MODEL 1
REMARK VINA RESULT:      -8.2      0.000      0.000
REMARK  6 active torsions:
REMARK  status: ('A' for Active; 'I' for Inactive)
REMARK    1  A    between atoms: C_2  and  C_3 
REMARK    2  A    between atoms: C_7  and  C_8 
REMARK       I    between atoms: C_8  and  N_9 
REMARK    3  A    between atoms: N_9  and  C_10 
REMARK    4  A    between atoms: C_10  and  C_11 
REMARK    5  A    between atoms: C_10  and  C_19 
REMARK    6  A    between atoms: C_14  and  O_15 
ROOT
HETATM    1  C   UNL     1      41.779 -15.171   3.534  1.00  0.00     0.151 C 
ENDROOT
BRANCH   1   2
HETATM    2  N   UNL     1      41.250 -14.772   2.240  1.00  0.00    -0.343 N 
HETATM    3  C   UNL     1      40.071 -14.091   2.095  1.00  0.00     0.270 C 
HETATM    4  O   UNL     1      39.364 -13.766   3.043  1.00  0.00    -0.266 OA
HETATM    5  H   UNL     1      41.790 -15.021   1.428  1.00  0.00     0.163 HD
BRANCH   3   6
HETATM    6  C   UNL     1      39.706 -13.789   0.736  1.00  0.00     0.119 A 
HETATM    7  N   UNL     1      38.923 -12.708   0.431  1.00  0.00    -0.273 N 
HETATM    8  N   UNL     1      38.671 -12.563  -0.880  1.00  0.00    -0.179 NA
HETATM    9  H   UNL     1      38.530 -12.038   1.086  1.00  0.00     0.189 HD
HETATM   10  C   UNL     1      39.323 -13.583  -1.449  1.00  0.00     0.056 A 
HETATM   11  C   UNL     1      39.981 -14.381  -0.482  1.00  0.00     0.065 A 
BRANCH  10  12
HETATM   12  C   UNL     1      39.301 -13.768  -2.928  1.00  0.00     0.056 C 
HETATM   13  C   UNL     1      38.358 -14.881  -3.357  1.00  0.00     0.011 C 
ENDBRANCH  10  12
ENDBRANCH   3   6
ENDBRANCH   1   2
BRANCH   1  14
HETATM   14  C   UNL     1      42.608 -14.007   4.072  1.00  0.00    -0.031 A 
HETATM   15  C   UNL     1      42.812 -13.825   5.450  1.00  0.00     0.012 A 
HETATM   16  C   UNL     1      43.568 -12.748   5.919  1.00  0.00     0.037 A 
HETATM   17  C   UNL     1      44.134 -11.834   5.030  1.00  0.00     0.068 A 
HETATM   18  C   UNL     1      43.958 -12.018   3.658  1.00  0.00     0.037 A 
HETATM   19  C   UNL     1      43.204 -13.099   3.184  1.00  0.00     0.012 A 
BRANCH  17  20
HETATM   20  O   UNL     1      44.836 -10.820   5.620  1.00  0.00    -0.356 OA
HETATM   21  C   UNL     1      45.523 -11.137   6.825  1.00  0.00     0.210 C 
ENDBRANCH  17  20
ENDBRANCH   1  14
BRANCH   1  22
HETATM   22  C   UNL     1      42.537 -16.501   3.476  1.00  0.00    -0.031 A 
HETATM   23  C   UNL     1      42.414 -17.338   2.349  1.00  0.00     0.009 A 
HETATM   24  C   UNL     1      43.121 -18.540   2.259  1.00  0.00     0.001 A 
HETATM   25  C   UNL     1      43.982 -18.920   3.284  1.00  0.00     0.000 A 
HETATM   26  C   UNL     1      44.143 -18.095   4.393  1.00  0.00     0.001 A 
HETATM   27  C   UNL     1      43.433 -16.894   4.486  1.00  0.00     0.009 A 
ENDBRANCH   1  22
TORSDOF 6
ENDMDL
MODEL 2
REMARK VINA RESULT:      -8.1      2.949      7.203
REMARK  6 active torsions:
REMARK  status: ('A' for Active; 'I' for Inactive)
REMARK    1  A    between atoms: C_2  and  C_3 
REMARK    2  A    between atoms: C_7  and  C_8 
REMARK       I    between atoms: C_8  and  N_9 
REMARK    3  A    between atoms: N_9  and  C_10 
REMARK    4  A    between atoms: C_10  and  C_11 
REMARK    5  A    between atoms: C_10  and  C_19 
REMARK    6  A    between atoms: C_14  and  O_15 
ROOT
HETATM    1  C   UNL     1      41.782 -15.191   4.152  1.00  0.00     0.151 C 
ENDROOT
BRANCH   1   2
HETATM    2  N   UNL     1      42.572 -14.155   4.797  1.00  0.00    -0.343 N 
HETATM    3  C   UNL     1      42.195 -13.549   5.966  1.00  0.00     0.270 C 
HETATM    4  O   UNL     1      41.158 -13.828   6.560  1.00  0.00    -0.266 OA
HETATM    5  H   UNL     1      43.430 -13.886   4.345  1.00  0.00     0.163 HD
BRANCH   3   6
HETATM    6  C   UNL     1      43.102 -12.542   6.450  1.00  0.00     0.119 A 
HETATM    7  N   UNL     1      42.649 -11.328   6.893  1.00  0.00    -0.273 N 
HETATM    8  N   UNL     1      43.618 -10.498   7.311  1.00  0.00    -0.179 NA
HETATM    9  H   UNL     1      41.683 -11.015   6.928  1.00  0.00     0.189 HD
HETATM   10  C   UNL     1      44.742 -11.202   7.140  1.00  0.00     0.056 A 
HETATM   11  C   UNL     1      44.474 -12.484   6.600  1.00  0.00     0.065 A 
BRANCH  10  12
HETATM   12  C   UNL     1      46.065 -10.622   7.508  1.00  0.00     0.056 C 
HETATM   13  C   UNL     1      45.935  -9.257   8.167  1.00  0.00     0.011 C 
ENDBRANCH  10  12
ENDBRANCH   3   6
ENDBRANCH   1   2
BRANCH   1  14
HETATM   14  C   UNL     1      42.574 -16.494   4.232  1.00  0.00    -0.031 A 
HETATM   15  C   UNL     1      42.804 -17.139   5.458  1.00  0.00     0.012 A 
HETATM   16  C   UNL     1      43.538 -18.327   5.508  1.00  0.00     0.037 A 
HETATM   17  C   UNL     1      44.058 -18.892   4.343  1.00  0.00     0.068 A 
HETATM   18  C   UNL     1      43.816 -18.272   3.117  1.00  0.00     0.037 A 
HETATM   19  C   UNL     1      43.077 -17.084   3.063  1.00  0.00     0.012 A 
BRANCH  17  20
HETATM   20  O   UNL     1      44.769 -20.045   4.534  1.00  0.00    -0.356 OA
HETATM   21  C   UNL     1      44.199 -21.009   5.410  1.00  0.00     0.210 C 
ENDBRANCH  17  20
ENDBRANCH   1  14
BRANCH   1  22
HETATM   22  C   UNL     1      41.357 -14.807   2.730  1.00  0.00    -0.031 A 
HETATM   23  C   UNL     1      40.395 -15.577   2.047  1.00  0.00     0.009 A 
HETATM   24  C   UNL     1      39.967 -15.229   0.763  1.00  0.00     0.001 A 
HETATM   25  C   UNL     1      40.477 -14.091   0.144  1.00  0.00     0.000 A 
HETATM   26  C   UNL     1      41.405 -13.299   0.812  1.00  0.00     0.001 A 
HETATM   27  C   UNL     1      41.837 -13.648   2.095  1.00  0.00     0.009 A 
ENDBRANCH   1  22
TORSDOF 6
ENDMDL
MODEL 3
REMARK VINA RESULT:      -7.8      2.268      4.791
REMARK  6 active torsions:
REMARK  status: ('A' for Active; 'I' for Inactive)
REMARK    1  A    between atoms: C_2  and  C_3 
REMARK    2  A    between atoms: C_7  and  C_8 
REMARK       I    between atoms: C_8  and  N_9 
REMARK    3  A    between atoms: N_9  and  C_10 
REMARK    4  A    between atoms: C_10  and  C_11 
REMARK    5  A    between atoms: C_10  and  C_19 
REMARK    6  A    between atoms: C_14  and  O_15 
ROOT
HETATM    1  C   UNL     1      42.733 -14.583   3.111  1.00  0.00     0.151 C 
ENDROOT
BRANCH   1   2
HETATM    2  N   UNL     1      41.955 -14.656   1.886  1.00  0.00    -0.343 N 
HETATM    3  C   UNL     1      41.589 -13.549   1.168  1.00  0.00     0.270 C 
HETATM    4  O   UNL     1      41.884 -12.406   1.503  1.00  0.00    -0.266 OA
HETATM    5  H   UNL     1      41.682 -15.572   1.571  1.00  0.00     0.163 HD
BRANCH   3   6
HETATM    6  C   UNL     1      40.814 -13.818  -0.014  1.00  0.00     0.119 A 
HETATM    7  N   UNL     1      40.906 -13.021  -1.124  1.00  0.00    -0.273 N 
HETATM    8  N   UNL     1      40.120 -13.404  -2.143  1.00  0.00    -0.179 NA
HETATM    9  H   UNL     1      41.491 -12.199  -1.235  1.00  0.00     0.189 HD
HETATM   10  C   UNL     1      39.500 -14.495  -1.681  1.00  0.00     0.056 A 
HETATM   11  C   UNL     1      39.896 -14.793  -0.354  1.00  0.00     0.065 A 
BRANCH  10  12
HETATM   12  C   UNL     1      38.532 -15.240  -2.536  1.00  0.00     0.056 C 
HETATM   13  C   UNL     1      38.051 -14.412  -3.719  1.00  0.00     0.011 C 
ENDBRANCH  10  12
ENDBRANCH   3   6
ENDBRANCH   1   2
BRANCH   1  14
HETATM   14  C   UNL     1      43.192 -15.999   3.452  1.00  0.00    -0.031 A 
HETATM   15  C   UNL     1      43.202 -17.020   2.488  1.00  0.00     0.012 A 
HETATM   16  C   UNL     1      43.619 -18.310   2.825  1.00  0.00     0.037 A 
HETATM   17  C   UNL     1      44.032 -18.609   4.124  1.00  0.00     0.068 A 
HETATM   18  C   UNL     1      44.049 -17.597   5.084  1.00  0.00     0.037 A 
HETATM   19  C   UNL     1      43.636 -16.301   4.748  1.00  0.00     0.012 A 
BRANCH  17  20
HETATM   20  O   UNL     1      44.400 -19.911   4.322  1.00  0.00    -0.356 OA
HETATM   21  C   UNL     1      43.974 -20.516   5.537  1.00  0.00     0.210 C 
ENDBRANCH  17  20
ENDBRANCH   1  14
BRANCH   1  22
HETATM   22  C   UNL     1      41.979 -13.883   4.247  1.00  0.00    -0.031 A 
HETATM   23  C   UNL     1      42.560 -12.784   4.911  1.00  0.00     0.009 A 
HETATM   24  C   UNL     1      41.879 -12.110   5.927  1.00  0.00     0.001 A 
HETATM   25  C   UNL     1      40.594 -12.505   6.286  1.00  0.00     0.000 A 
HETATM   26  C   UNL     1      39.988 -13.568   5.623  1.00  0.00     0.001 A 
HETATM   27  C   UNL     1      40.670 -14.247   4.609  1.00  0.00     0.009 A 
ENDBRANCH   1  22
TORSDOF 6
ENDMDL
MODEL 4
REMARK VINA RESULT:      -7.6      2.844      7.211
REMARK  6 active torsions:
REMARK  status: ('A' for Active; 'I' for Inactive)
REMARK    1  A    between atoms: C_2  and  C_3 
REMARK    2  A    between atoms: C_7  and  C_8 
REMARK       I    between atoms: C_8  and  N_9 
REMARK    3  A    between atoms: N_9  and  C_10 
REMARK    4  A    between atoms: C_10  and  C_11 
REMARK    5  A    between atoms: C_10  and  C_19 
REMARK    6  A    between atoms: C_14  and  O_15 
ROOT
HETATM    1  C   UNL     1      42.936 -13.586   3.126  1.00  0.00     0.151 C 
ENDROOT
BRANCH   1   2
HETATM    2  N   UNL     1      43.220 -13.002   4.427  1.00  0.00    -0.343 N 
HETATM    3  C   UNL     1      43.913 -11.831   4.583  1.00  0.00     0.270 C 
HETATM    4  O   UNL     1      44.353 -11.182   3.639  1.00  0.00    -0.266 OA
HETATM    5  H   UNL     1      42.886 -13.500   5.235  1.00  0.00     0.163 HD
BRANCH   3   6
HETATM    6  C   UNL     1      44.103 -11.413   5.947  1.00  0.00     0.119 A 
HETATM    7  N   UNL     1      45.174 -11.845   6.682  1.00  0.00    -0.273 N 
HETATM    8  N   UNL     1      45.210 -11.367   7.936  1.00  0.00    -0.179 NA
HETATM    9  H   UNL     1      45.911 -12.472   6.373  1.00  0.00     0.189 HD
HETATM   10  C   UNL     1      44.125 -10.589   8.016  1.00  0.00     0.056 A 
HETATM   11  C   UNL     1      43.397 -10.588   6.801  1.00  0.00     0.065 A 
BRANCH  10  12
HETATM   12  C   UNL     1      43.810  -9.851   9.273  1.00  0.00     0.056 C 
HETATM   13  C   UNL     1      44.983  -9.829  10.240  1.00  0.00     0.011 C 
ENDBRANCH  10  12
ENDBRANCH   3   6
ENDBRANCH   1   2
BRANCH   1  14
HETATM   14  C   UNL     1      41.558 -13.093   2.690  1.00  0.00    -0.031 A 
HETATM   15  C   UNL     1      41.357 -12.486   1.440  1.00  0.00     0.012 A 
HETATM   16  C   UNL     1      40.089 -12.036   1.066  1.00  0.00     0.037 A 
HETATM   17  C   UNL     1      38.999 -12.179   1.926  1.00  0.00     0.068 A 
HETATM   18  C   UNL     1      39.183 -12.802   3.160  1.00  0.00     0.037 A 
HETATM   19  C   UNL     1      40.452 -13.259   3.537  1.00  0.00     0.012 A 
BRANCH  17  20
HETATM   20  O   UNL     1      37.820 -11.683   1.443  1.00  0.00    -0.356 OA
HETATM   21  C   UNL     1      37.758 -11.431   0.045  1.00  0.00     0.210 C 
ENDBRANCH  17  20
ENDBRANCH   1  14
BRANCH   1  22
HETATM   22  C   UNL     1      43.082 -15.111   3.121  1.00  0.00    -0.031 A 
HETATM   23  C   UNL     1      43.186 -15.818   4.336  1.00  0.00     0.009 A 
HETATM   24  C   UNL     1      43.287 -17.211   4.358  1.00  0.00     0.001 A 
HETATM   25  C   UNL     1      43.264 -17.929   3.166  1.00  0.00     0.000 A 
HETATM   26  C   UNL     1      43.131 -17.256   1.956  1.00  0.00     0.001 A 
HETATM   27  C   UNL     1      43.034 -15.862   1.932  1.00  0.00     0.009 A 
ENDBRANCH   1  22
TORSDOF 6
ENDMDL
MODEL 5
REMARK VINA RESULT:      -7.5     15.367     17.594
REMARK  6 active torsions:
REMARK  status: ('A' for Active; 'I' for Inactive)
REMARK    1  A    between atoms: C_2  and  C_3 
REMARK    2  A    between atoms: C_7  and  C_8 
REMARK       I    between atoms: C_8  and  N_9 
REMARK    3  A    between atoms: N_9  and  C_10 
REMARK    4  A    between atoms: C_10  and  C_11 
REMARK    5  A    between atoms: C_10  and  C_19 
REMARK    6  A    between atoms: C_14  and  O_15 
ROOT
HETATM    1  C   UNL     1      44.962 -29.005   0.072  1.00  0.00     0.151 C 
ENDROOT
BRANCH   1   2
HETATM    2  N   UNL     1      46.279 -29.432   0.516  1.00  0.00    -0.343 N 
HETATM    3  C   UNL     1      46.989 -28.773   1.485  1.00  0.00     0.270 C 
HETATM    4  O   UNL     1      46.573 -27.768   2.053  1.00  0.00    -0.266 OA
HETATM    5  H   UNL     1      46.668 -30.249   0.076  1.00  0.00     0.163 HD
BRANCH   3   6
HETATM    6  C   UNL     1      48.277 -29.339   1.786  1.00  0.00     0.119 A 
HETATM    7  N   UNL     1      49.167 -29.655   0.795  1.00  0.00    -0.273 N 
HETATM    8  N   UNL     1      50.323 -30.174   1.238  1.00  0.00    -0.179 NA
HETATM    9  H   UNL     1      49.031 -29.537  -0.205  1.00  0.00     0.189 HD
HETATM   10  C   UNL     1      50.182 -30.188   2.567  1.00  0.00     0.056 A 
HETATM   11  C   UNL     1      48.920 -29.682   2.960  1.00  0.00     0.065 A 
BRANCH  10  12
HETATM   12  C   UNL     1      51.279 -30.692   3.442  1.00  0.00     0.056 C 
HETATM   13  C   UNL     1      50.872 -30.746   4.907  1.00  0.00     0.011 C 
ENDBRANCH  10  12
ENDBRANCH   3   6
ENDBRANCH   1   2
BRANCH   1  14
HETATM   14  C   UNL     1      43.928 -29.825   0.841  1.00  0.00    -0.031 A 
HETATM   15  C   UNL     1      42.642 -29.325   1.104  1.00  0.00     0.012 A 
HETATM   16  C   UNL     1      41.716 -30.092   1.815  1.00  0.00     0.037 A 
HETATM   17  C   UNL     1      42.050 -31.365   2.279  1.00  0.00     0.068 A 
HETATM   18  C   UNL     1      43.316 -31.880   2.003  1.00  0.00     0.037 A 
HETATM   19  C   UNL     1      44.246 -31.117   1.286  1.00  0.00     0.012 A 
BRANCH  17  20
HETATM   20  O   UNL     1      41.057 -32.000   2.973  1.00  0.00    -0.356 OA
HETATM   21  C   UNL     1      40.541 -31.322   4.111  1.00  0.00     0.210 C 
ENDBRANCH  17  20
ENDBRANCH   1  14
BRANCH   1  22
HETATM   22  C   UNL     1      44.803 -29.072  -1.450  1.00  0.00    -0.031 A 
HETATM   23  C   UNL     1      45.284 -28.024  -2.260  1.00  0.00     0.009 A 
HETATM   24  C   UNL     1      45.180 -28.077  -3.652  1.00  0.00     0.001 A 
HETATM   25  C   UNL     1      44.613 -29.190  -4.265  1.00  0.00     0.000 A 
HETATM   26  C   UNL     1      44.159 -30.251  -3.489  1.00  0.00     0.001 A 
HETATM   27  C   UNL     1      44.259 -30.197  -2.095  1.00  0.00     0.009 A 
ENDBRANCH   1  22
TORSDOF 6
ENDMDL
MODEL 6
REMARK VINA RESULT:      -7.3      2.447      7.211
REMARK  6 active torsions:
REMARK  status: ('A' for Active; 'I' for Inactive)
REMARK    1  A    between atoms: C_2  and  C_3 
REMARK    2  A    between atoms: C_7  and  C_8 
REMARK       I    between atoms: C_8  and  N_9 
REMARK    3  A    between atoms: N_9  and  C_10 
REMARK    4  A    between atoms: C_10  and  C_11 
REMARK    5  A    between atoms: C_10  and  C_19 
REMARK    6  A    between atoms: C_14  and  O_15 
ROOT
HETATM    1  C   UNL     1      40.221 -13.726   2.545  1.00  0.00     0.151 C 
ENDROOT
BRANCH   1   2
HETATM    2  N   UNL     1      41.113 -14.868   2.654  1.00  0.00    -0.343 N 
HETATM    3  C   UNL     1      41.264 -15.588   3.809  1.00  0.00     0.270 C 
HETATM    4  O   UNL     1      40.663 -15.325   4.846  1.00  0.00    -0.266 OA
HETATM    5  H   UNL     1      41.635 -15.122   1.831  1.00  0.00     0.163 HD
BRANCH   3   6
HETATM    6  C   UNL     1      42.197 -16.681   3.728  1.00  0.00     0.119 A 
HETATM    7  N   UNL     1      42.960 -17.048   4.804  1.00  0.00    -0.273 N 
HETATM    8  N   UNL     1      43.781 -18.085   4.569  1.00  0.00    -0.179 NA
HETATM    9  H   UNL     1      42.959 -16.620   5.725  1.00  0.00     0.189 HD
HETATM   10  C   UNL     1      43.536 -18.407   3.294  1.00  0.00     0.056 A 
HETATM   11  C   UNL     1      42.558 -17.557   2.723  1.00  0.00     0.065 A 
BRANCH  10  12
HETATM   12  C   UNL     1      44.254 -19.542   2.646  1.00  0.00     0.056 C 
HETATM   13  C   UNL     1      43.343 -20.364   1.747  1.00  0.00     0.011 C 
ENDBRANCH  10  12
ENDBRANCH   3   6
ENDBRANCH   1   2
BRANCH   1  14
HETATM   14  C   UNL     1      39.797 -13.610   1.082  1.00  0.00    -0.031 A 
HETATM   15  C   UNL     1      40.022 -14.651   0.167  1.00  0.00     0.012 A 
HETATM   16  C   UNL     1      39.632 -14.518  -1.168  1.00  0.00     0.037 A 
HETATM   17  C   UNL     1      39.013 -13.351  -1.617  1.00  0.00     0.068 A 
HETATM   18  C   UNL     1      38.763 -12.320  -0.712  1.00  0.00     0.037 A 
HETATM   19  C   UNL     1      39.149 -12.451   0.628  1.00  0.00     0.012 A 
BRANCH  17  20
HETATM   20  O   UNL     1      38.697 -13.346  -2.947  1.00  0.00    -0.356 OA
HETATM   21  C   UNL     1      38.232 -14.572  -3.497  1.00  0.00     0.210 C 
ENDBRANCH  17  20
ENDBRANCH   1  14
BRANCH   1  22
HETATM   22  C   UNL     1      40.833 -12.444   3.119  1.00  0.00    -0.031 A 
HETATM   23  C   UNL     1      42.147 -12.069   2.774  1.00  0.00     0.009 A 
HETATM   24  C   UNL     1      42.715 -10.889   3.258  1.00  0.00     0.001 A 
HETATM   25  C   UNL     1      41.974 -10.046   4.080  1.00  0.00     0.000 A 
HETATM   26  C   UNL     1      40.664 -10.379   4.410  1.00  0.00     0.001 A 
HETATM   27  C   UNL     1      40.096 -11.562   3.929  1.00  0.00     0.009 A 
ENDBRANCH   1  22
TORSDOF 6
ENDMDL
MODEL 7
REMARK VINA RESULT:      -7.2      1.737      2.218
REMARK  6 active torsions:
REMARK  status: ('A' for Active; 'I' for Inactive)
REMARK    1  A    between atoms: C_2  and  C_3 
REMARK    2  A    between atoms: C_7  and  C_8 
REMARK       I    between atoms: C_8  and  N_9 
REMARK    3  A    between atoms: N_9  and  C_10 
REMARK    4  A    between atoms: C_10  and  C_11 
REMARK    5  A    between atoms: C_10  and  C_19 
REMARK    6  A    between atoms: C_14  and  O_15 
ROOT
HETATM    1  C   UNL     1      41.790 -14.802   4.932  1.00  0.00     0.151 C 
ENDROOT
BRANCH   1   2
HETATM    2  N   UNL     1      41.528 -14.417   3.555  1.00  0.00    -0.343 N 
HETATM    3  C   UNL     1      40.539 -14.986   2.798  1.00  0.00     0.270 C 
HETATM    4  O   UNL     1      39.797 -15.869   3.218  1.00  0.00    -0.266 OA
HETATM    5  H   UNL     1      42.114 -13.700   3.160  1.00  0.00     0.163 HD
BRANCH   3   6
HETATM    6  C   UNL     1      40.434 -14.481   1.454  1.00  0.00     0.119 A 
HETATM    7  N   UNL     1      39.748 -15.166   0.487  1.00  0.00    -0.273 N 
HETATM    8  N   UNL     1      39.742 -14.564  -0.714  1.00  0.00    -0.179 NA
HETATM    9  H   UNL     1      39.267 -16.054   0.595  1.00  0.00     0.189 HD
HETATM   10  C   UNL     1      40.444 -13.443  -0.516  1.00  0.00     0.056 A 
HETATM   11  C   UNL     1      40.902 -13.347   0.820  1.00  0.00     0.065 A 
BRANCH  10  12
HETATM   12  C   UNL     1      40.658 -12.475  -1.630  1.00  0.00     0.056 C 
HETATM   13  C   UNL     1      40.130 -12.995  -2.958  1.00  0.00     0.011 C 
ENDBRANCH  10  12
ENDBRANCH   3   6
ENDBRANCH   1   2
BRANCH   1  14
HETATM   14  C   UNL     1      42.436 -13.607   5.630  1.00  0.00    -0.031 A 
HETATM   15  C   UNL     1      43.724 -13.688   6.185  1.00  0.00     0.012 A 
HETATM   16  C   UNL     1      44.291 -12.584   6.825  1.00  0.00     0.037 A 
HETATM   17  C   UNL     1      43.590 -11.382   6.927  1.00  0.00     0.068 A 
HETATM   18  C   UNL     1      42.320 -11.283   6.359  1.00  0.00     0.037 A 
HETATM   19  C   UNL     1      41.750 -12.386   5.712  1.00  0.00     0.012 A 
BRANCH  17  20
HETATM   20  O   UNL     1      44.253 -10.387   7.591  1.00  0.00    -0.356 OA
HETATM   21  C   UNL     1      43.477  -9.270   8.007  1.00  0.00     0.210 C 
ENDBRANCH  17  20
ENDBRANCH   1  14
BRANCH   1  22
HETATM   22  C   UNL     1      42.602 -16.098   5.037  1.00  0.00    -0.031 A 
HETATM   23  C   UNL     1      42.554 -16.871   6.214  1.00  0.00     0.009 A 
HETATM   24  C   UNL     1      43.260 -18.072   6.321  1.00  0.00     0.001 A 
HETATM   25  C   UNL     1      44.010 -18.536   5.246  1.00  0.00     0.000 A 
HETATM   26  C   UNL     1      44.049 -17.806   4.062  1.00  0.00     0.001 A 
HETATM   27  C   UNL     1      43.347 -16.602   3.955  1.00  0.00     0.009 A 
ENDBRANCH   1  22
TORSDOF 6
ENDMDL
MODEL 8
REMARK VINA RESULT:      -7.1     15.618     17.840
REMARK  6 active torsions:
REMARK  status: ('A' for Active; 'I' for Inactive)
REMARK    1  A    between atoms: C_2  and  C_3 
REMARK    2  A    between atoms: C_7  and  C_8 
REMARK       I    between atoms: C_8  and  N_9 
REMARK    3  A    between atoms: N_9  and  C_10 
REMARK    4  A    between atoms: C_10  and  C_11 
REMARK    5  A    between atoms: C_10  and  C_19 
REMARK    6  A    between atoms: C_14  and  O_15 
ROOT
HETATM    1  C   UNL     1      45.409 -29.045  -0.265  1.00  0.00     0.151 C 
ENDROOT
BRANCH   1   2
HETATM    2  N   UNL     1      46.683 -29.681   0.026  1.00  0.00    -0.343 N 
HETATM    3  C   UNL     1      47.881 -29.022  -0.058  1.00  0.00     0.270 C 
HETATM    4  O   UNL     1      47.976 -27.844  -0.390  1.00  0.00    -0.266 OA
HETATM    5  H   UNL     1      46.661 -30.650   0.297  1.00  0.00     0.163 HD
BRANCH   3   6
HETATM    6  C   UNL     1      49.037 -29.817   0.261  1.00  0.00     0.119 A 
HETATM    7  N   UNL     1      49.742 -29.618   1.418  1.00  0.00    -0.273 N 
HETATM    8  N   UNL     1      50.794 -30.440   1.570  1.00  0.00    -0.179 NA
HETATM    9  H   UNL     1      49.547 -28.930   2.139  1.00  0.00     0.189 HD
HETATM   10  C   UNL     1      50.766 -31.206   0.474  1.00  0.00     0.056 A 
HETATM   11  C   UNL     1      49.691 -30.853  -0.378  1.00  0.00     0.065 A 
BRANCH  10  12
HETATM   12  C   UNL     1      51.784 -32.275   0.269  1.00  0.00     0.056 C 
HETATM   13  C   UNL     1      52.438 -32.196  -1.102  1.00  0.00     0.011 C 
ENDBRANCH  10  12
ENDBRANCH   3   6
ENDBRANCH   1   2
BRANCH   1  14
HETATM   14  C   UNL     1      44.373 -29.629   0.693  1.00  0.00    -0.031 A 
HETATM   15  C   UNL     1      43.046 -29.168   0.710  1.00  0.00     0.012 A 
HETATM   16  C   UNL     1      42.118 -29.712   1.601  1.00  0.00     0.037 A 
HETATM   17  C   UNL     1      42.490 -30.720   2.491  1.00  0.00     0.068 A 
HETATM   18  C   UNL     1      43.799 -31.202   2.467  1.00  0.00     0.037 A 
HETATM   19  C   UNL     1      44.732 -30.662   1.572  1.00  0.00     0.012 A 
BRANCH  17  20
HETATM   20  O   UNL     1      41.490 -31.152   3.317  1.00  0.00    -0.356 OA
HETATM   21  C   UNL     1      40.365 -31.760   2.695  1.00  0.00     0.210 C 
ENDBRANCH  17  20
ENDBRANCH   1  14
BRANCH   1  22
HETATM   22  C   UNL     1      45.021 -29.155  -1.744  1.00  0.00    -0.031 A 
HETATM   23  C   UNL     1      45.316 -28.103  -2.634  1.00  0.00     0.009 A 
HETATM   24  C   UNL     1      45.001 -28.193  -3.991  1.00  0.00     0.001 A 
HETATM   25  C   UNL     1      44.404 -29.345  -4.493  1.00  0.00     0.000 A 
HETATM   26  C   UNL     1      44.131 -30.409  -3.639  1.00  0.00     0.001 A 
HETATM   27  C   UNL     1      44.442 -30.319  -2.279  1.00  0.00     0.009 A 
ENDBRANCH   1  22
TORSDOF 6
ENDMDL
MODEL 9
REMARK VINA RESULT:      -7.1     13.256     17.372
REMARK  6 active torsions:
REMARK  status: ('A' for Active; 'I' for Inactive)
REMARK    1  A    between atoms: C_2  and  C_3 
REMARK    2  A    between atoms: C_7  and  C_8 
REMARK       I    between atoms: C_8  and  N_9 
REMARK    3  A    between atoms: N_9  and  C_10 
REMARK    4  A    between atoms: C_10  and  C_11 
REMARK    5  A    between atoms: C_10  and  C_19 
REMARK    6  A    between atoms: C_14  and  O_15 
ROOT
HETATM    1  C   UNL     1      41.631  -6.906  16.178  1.00  0.00     0.151 C 
ENDROOT
BRANCH   1   2
HETATM    2  N   UNL     1      41.444  -7.791  17.315  1.00  0.00    -0.343 N 
HETATM    3  C   UNL     1      41.948  -7.523  18.560  1.00  0.00     0.270 C 
HETATM    4  O   UNL     1      42.602  -6.517  18.815  1.00  0.00    -0.266 OA
HETATM    5  H   UNL     1      40.919  -8.635  17.156  1.00  0.00     0.163 HD
BRANCH   3   6
HETATM    6  C   UNL     1      41.666  -8.521  19.558  1.00  0.00     0.119 A 
HETATM    7  N   UNL     1      40.469  -9.185  19.585  1.00  0.00    -0.273 N 
HETATM    8  N   UNL     1      40.360 -10.083  20.577  1.00  0.00    -0.179 NA
HETATM    9  H   UNL     1      39.689  -9.058  18.946  1.00  0.00     0.189 HD
HETATM   10  C   UNL     1      41.533 -10.005  21.213  1.00  0.00     0.056 A 
HETATM   11  C   UNL     1      42.382  -9.040  20.619  1.00  0.00     0.065 A 
BRANCH  10  12
HETATM   12  C   UNL     1      41.817 -10.874  22.392  1.00  0.00     0.056 C 
HETATM   13  C   UNL     1      43.133 -11.624  22.253  1.00  0.00     0.011 C 
ENDBRANCH  10  12
ENDBRANCH   3   6
ENDBRANCH   1   2
BRANCH   1  14
HETATM   14  C   UNL     1      40.318  -6.158  15.953  1.00  0.00    -0.031 A 
HETATM   15  C   UNL     1      39.511  -6.412  14.833  1.00  0.00     0.012 A 
HETATM   16  C   UNL     1      38.318  -5.711  14.645  1.00  0.00     0.037 A 
HETATM   17  C   UNL     1      37.907  -4.745  15.564  1.00  0.00     0.068 A 
HETATM   18  C   UNL     1      38.689  -4.501  16.693  1.00  0.00     0.037 A 
HETATM   19  C   UNL     1      39.884  -5.206  16.887  1.00  0.00     0.012 A 
BRANCH  17  20
HETATM   20  O   UNL     1      36.730  -4.123  15.253  1.00  0.00    -0.356 OA
HETATM   21  C   UNL     1      36.711  -3.355  14.056  1.00  0.00     0.210 C 
ENDBRANCH  17  20
ENDBRANCH   1  14
BRANCH   1  22
HETATM   22  C   UNL     1      42.149  -7.641  14.937  1.00  0.00    -0.031 A 
HETATM   23  C   UNL     1      41.618  -8.898  14.586  1.00  0.00     0.009 A 
HETATM   24  C   UNL     1      42.050  -9.573  13.442  1.00  0.00     0.001 A 
HETATM   25  C   UNL     1      43.007  -8.996  12.612  1.00  0.00     0.000 A 
HETATM   26  C   UNL     1      43.523  -7.742  12.922  1.00  0.00     0.001 A 
HETATM   27  C   UNL     1      43.095  -7.067  14.069  1.00  0.00     0.009 A 
ENDBRANCH   1  22
TORSDOF 6
ENDMDL
MODEL 10
REMARK VINA RESULT:      -7.1     13.479     18.132
REMARK  6 active torsions:
REMARK  status: ('A' for Active; 'I' for Inactive)
REMARK    1  A    between atoms: C_2  and  C_3 
REMARK    2  A    between atoms: C_7  and  C_8 
REMARK       I    between atoms: C_8  and  N_9 
REMARK    3  A    between atoms: N_9  and  C_10 
REMARK    4  A    between atoms: C_10  and  C_11 
REMARK    5  A    between atoms: C_10  and  C_19 
REMARK    6  A    between atoms: C_14  and  O_15 
ROOT
HETATM    1  C   UNL     1      40.376  -7.531  17.023  1.00  0.00     0.151 C 
ENDROOT
BRANCH   1   2
HETATM    2  N   UNL     1      41.039  -8.170  18.148  1.00  0.00    -0.343 N 
HETATM    3  C   UNL     1      40.362  -8.662  19.231  1.00  0.00     0.270 C 
HETATM    4  O   UNL     1      39.141  -8.599  19.343  1.00  0.00    -0.266 OA
HETATM    5  H   UNL     1      42.042  -8.241  18.107  1.00  0.00     0.163 HD
BRANCH   3   6
HETATM    6  C   UNL     1      41.189  -9.254  20.249  1.00  0.00     0.119 A 
HETATM    7  N   UNL     1      41.213 -10.608  20.450  1.00  0.00    -0.273 N 
HETATM    8  N   UNL     1      42.034 -11.004  21.437  1.00  0.00    -0.179 NA
HETATM    9  H   UNL     1      40.683 -11.309  19.940  1.00  0.00     0.189 HD
HETATM   10  C   UNL     1      42.569  -9.864  21.888  1.00  0.00     0.056 A 
HETATM   11  C   UNL     1      42.070  -8.742  21.183  1.00  0.00     0.065 A 
BRANCH  10  12
HETATM   12  C   UNL     1      43.563  -9.880  22.999  1.00  0.00     0.056 C 
HETATM   13  C   UNL     1      44.474 -11.097  22.943  1.00  0.00     0.011 C 
ENDBRANCH  10  12
ENDBRANCH   3   6
ENDBRANCH   1   2
BRANCH   1  14
HETATM   14  C   UNL     1      41.266  -7.716  15.796  1.00  0.00    -0.031 A 
HETATM   15  C   UNL     1      41.026  -8.736  14.861  1.00  0.00     0.012 A 
HETATM   16  C   UNL     1      41.859  -8.890  13.750  1.00  0.00     0.037 A 
HETATM   17  C   UNL     1      42.944  -8.036  13.549  1.00  0.00     0.068 A 
HETATM   18  C   UNL     1      43.178  -7.005  14.459  1.00  0.00     0.037 A 
HETATM   19  C   UNL     1      42.343  -6.845  15.572  1.00  0.00     0.012 A 
BRANCH  17  20
HETATM   20  O   UNL     1      43.686  -8.306  12.433  1.00  0.00    -0.356 OA
HETATM   21  C   UNL     1      43.053  -8.088  11.178  1.00  0.00     0.210 C 
ENDBRANCH  17  20
ENDBRANCH   1  14
BRANCH   1  22
HETATM   22  C   UNL     1      40.006  -6.072  17.310  1.00  0.00    -0.031 A 
HETATM   23  C   UNL     1      39.038  -5.419  16.521  1.00  0.00     0.009 A 
HETATM   24  C   UNL     1      38.660  -4.100  16.783  1.00  0.00     0.001 A 
HETATM   25  C   UNL     1      39.226  -3.413  17.853  1.00  0.00     0.000 A 
HETATM   26  C   UNL     1      40.161  -4.047  18.664  1.00  0.00     0.001 A 
HETATM   27  C   UNL     1      40.543  -5.366  18.401  1.00  0.00     0.009 A 
ENDBRANCH   1  22
TORSDOF 6
ENDMDL
