MODEL 1
REMARK VINA RESULT:      -8.2      0.000      0.000
REMARK  3 active torsions:
REMARK  status: ('A' for Active; 'I' for Inactive)
REMARK    1  A    between atoms: C_5  and  N_6 
REMARK       I    between atoms: N_6  and  C_7 
REMARK    2  A    between atoms: C_7  and  C_8 
REMARK    3  A    between atoms: C_8  and  C_9 
ROOT
HETATM    1  C   UNL     1      39.963 -13.581   2.604  1.00  0.00     0.286 C 
HETATM    2  N   UNL     1      40.720 -12.773   1.550  1.00  0.00    -0.056 N 
HETATM    3  H   UNL     1      40.685 -11.780   1.860  1.00  0.00     0.278 HD
HETATM    4  H   UNL     1      41.713 -13.037   1.538  1.00  0.00     0.278 HD
HETATM    5  C   UNL     1      40.087 -12.939   0.203  1.00  0.00     0.209 C 
HETATM    6  C   UNL     1      40.158 -14.435  -0.184  1.00  0.00     0.115 C 
HETATM    7  N   UNL     1      39.613 -15.307   0.854  1.00  0.00    -0.353 N 
HETATM    8  C   UNL     1      39.821 -15.063   2.198  1.00  0.00     0.249 C 
HETATM    9  O   UNL     1      39.805 -15.983   3.006  1.00  0.00    -0.271 OA
HETATM   10  C   UNL     1      40.793 -12.073  -0.830  1.00  0.00     0.035 C 
HETATM   11  C   UNL     1      40.152 -12.279  -2.205  1.00  0.00     0.002 C 
HETATM   12  C   UNL     1      40.105 -13.755  -2.611  1.00  0.00     0.002 C 
HETATM   13  C   UNL     1      39.477 -14.646  -1.536  1.00  0.00     0.027 C 
HETATM   14  H   UNL     1      39.550 -16.303   0.649  1.00  0.00     0.163 HD
ENDROOT
BRANCH   1  15
HETATM   15  C   UNL     1      40.600 -13.416   3.989  1.00  0.00     0.146 C 
BRANCH  15  16
HETATM   16  C   UNL     1      42.018 -12.928   3.838  1.00  0.00     0.224 C 
HETATM   17  N   UNL     1      43.068 -13.766   3.661  1.00  0.00    -0.327 N 
HETATM   18  H   UNL     1      43.957 -13.274   3.714  1.00  0.00     0.169 HD
HETATM   19  O   UNL     1      42.229 -11.707   3.883  1.00  0.00    -0.273 OA
BRANCH  17  20
HETATM   20  C   UNL     1      43.178 -15.152   3.444  1.00  0.00     0.034 A 
HETATM   21  C   UNL     1      43.187 -16.128   4.439  1.00  0.00     0.030 A 
HETATM   22  C   UNL     1      43.289 -17.486   4.104  1.00  0.00     0.009 A 
HETATM   23  C   UNL     1      43.383 -17.888   2.769  1.00  0.00    -0.062 A 
HETATM   24  C   UNL     1      43.466 -19.341   2.403  1.00  0.00     0.048 C 
HETATM   25  C   UNL     1      43.344 -16.916   1.769  1.00  0.00     0.009 A 
HETATM   26  C   UNL     1      43.237 -15.564   2.105  1.00  0.00     0.030 A 
ENDBRANCH  17  20
ENDBRANCH  15  16
ENDBRANCH   1  15
TORSDOF 3
ENDMDL
MODEL 2
REMARK VINA RESULT:      -8.0      2.391      3.649
REMARK  3 active torsions:
REMARK  status: ('A' for Active; 'I' for Inactive)
REMARK    1  A    between atoms: C_5  and  N_6 
REMARK       I    between atoms: N_6  and  C_7 
REMARK    2  A    between atoms: C_7  and  C_8 
REMARK    3  A    between atoms: C_8  and  C_9 
ROOT
HETATM    1  C   UNL     1      41.121 -15.108   5.182  1.00  0.00     0.286 C 
HETATM    2  N   UNL     1      40.815 -15.752   3.830  1.00  0.00    -0.056 N 
HETATM    3  H   UNL     1      41.561 -16.459   3.666  1.00  0.00     0.278 HD
HETATM    4  H   UNL     1      39.929 -16.271   3.870  1.00  0.00     0.278 HD
HETATM    5  C   UNL     1      40.805 -14.721   2.744  1.00  0.00     0.209 C 
HETATM    6  C   UNL     1      39.689 -13.697   3.060  1.00  0.00     0.115 C 
HETATM    7  N   UNL     1      39.796 -13.153   4.412  1.00  0.00    -0.353 N 
HETATM    8  C   UNL     1      40.162 -13.937   5.489  1.00  0.00     0.249 C 
HETATM    9  O   UNL     1      39.798 -13.646   6.621  1.00  0.00    -0.271 OA
HETATM   10  C   UNL     1      40.579 -15.374   1.388  1.00  0.00     0.035 C 
HETATM   11  C   UNL     1      40.540 -14.302   0.296  1.00  0.00     0.002 C 
HETATM   12  C   UNL     1      39.517 -13.203   0.594  1.00  0.00     0.002 C 
HETATM   13  C   UNL     1      39.683 -12.602   1.993  1.00  0.00     0.027 C 
HETATM   14  H   UNL     1      39.147 -12.413   4.677  1.00  0.00     0.163 HD
ENDROOT
BRANCH   1  15
HETATM   15  C   UNL     1      41.138 -16.154   6.302  1.00  0.00     0.146 C 
BRANCH  15  16
HETATM   16  C   UNL     1      42.519 -16.231   6.900  1.00  0.00     0.224 C 
HETATM   17  N   UNL     1      43.493 -17.028   6.397  1.00  0.00    -0.327 N 
HETATM   18  H   UNL     1      44.310 -17.054   7.002  1.00  0.00     0.169 HD
HETATM   19  O   UNL     1      42.770 -15.539   7.897  1.00  0.00    -0.273 OA
BRANCH  17  20
HETATM   20  C   UNL     1      43.595 -17.825   5.241  1.00  0.00     0.034 A 
HETATM   21  C   UNL     1      43.580 -17.353   3.929  1.00  0.00     0.030 A 
HETATM   22  C   UNL     1      43.701 -18.241   2.851  1.00  0.00     0.009 A 
HETATM   23  C   UNL     1      43.838 -19.614   3.068  1.00  0.00    -0.062 A 
HETATM   24  C   UNL     1      43.994 -20.567   1.919  1.00  0.00     0.048 C 
HETATM   25  C   UNL     1      43.884 -20.087   4.380  1.00  0.00     0.009 A 
HETATM   26  C   UNL     1      43.769 -19.199   5.453  1.00  0.00     0.030 A 
ENDBRANCH  17  20
ENDBRANCH  15  16
ENDBRANCH   1  15
TORSDOF 3
ENDMDL
MODEL 3
REMARK VINA RESULT:      -7.7      3.088      4.388
REMARK  3 active torsions:
REMARK  status: ('A' for Active; 'I' for Inactive)
REMARK    1  A    between atoms: C_5  and  N_6 
REMARK       I    between atoms: N_6  and  C_7 
REMARK    2  A    between atoms: C_7  and  C_8 
REMARK    3  A    between atoms: C_8  and  C_9 
ROOT
HETATM    1  C   UNL     1      41.018 -14.957   5.933  1.00  0.00     0.286 C 
HETATM    2  N   UNL     1      42.148 -13.932   6.026  1.00  0.00    -0.056 N 
HETATM    3  H   UNL     1      42.237 -13.684   7.033  1.00  0.00     0.278 HD
HETATM    4  H   UNL     1      43.043 -14.358   5.754  1.00  0.00     0.278 HD
HETATM    5  C   UNL     1      41.835 -12.723   5.200  1.00  0.00     0.209 C 
HETATM    6  C   UNL     1      41.700 -13.168   3.725  1.00  0.00     0.115 C 
HETATM    7  N   UNL     1      40.762 -14.275   3.559  1.00  0.00    -0.353 N 
HETATM    8  C   UNL     1      40.686 -15.313   4.467  1.00  0.00     0.249 C 
HETATM    9  O   UNL     1      40.296 -16.419   4.117  1.00  0.00    -0.271 OA
HETATM   10  C   UNL     1      42.924 -11.672   5.357  1.00  0.00     0.035 C 
HETATM   11  C   UNL     1      42.602 -10.457   4.482  1.00  0.00     0.002 C 
HETATM   12  C   UNL     1      42.363 -10.840   3.019  1.00  0.00     0.002 C 
HETATM   13  C   UNL     1      41.333 -11.962   2.860  1.00  0.00     0.027 C 
HETATM   14  H   UNL     1      40.553 -14.580   2.609  1.00  0.00     0.163 HD
ENDROOT
BRANCH   1  15
HETATM   15  C   UNL     1      41.325 -16.198   6.777  1.00  0.00     0.146 C 
BRANCH  15  16
HETATM   16  C   UNL     1      42.776 -16.185   7.185  1.00  0.00     0.224 C 
HETATM   17  N   UNL     1      43.726 -16.906   6.542  1.00  0.00    -0.327 N 
HETATM   18  H   UNL     1      44.616 -16.882   7.034  1.00  0.00     0.169 HD
HETATM   19  O   UNL     1      43.110 -15.488   8.154  1.00  0.00    -0.273 OA
BRANCH  17  20
HETATM   20  C   UNL     1      43.726 -17.682   5.368  1.00  0.00     0.034 A 
HETATM   21  C   UNL     1      43.637 -17.183   4.069  1.00  0.00     0.030 A 
HETATM   22  C   UNL     1      43.659 -18.053   2.970  1.00  0.00     0.009 A 
HETATM   23  C   UNL     1      43.772 -19.433   3.151  1.00  0.00    -0.062 A 
HETATM   24  C   UNL     1      43.822 -20.366   1.977  1.00  0.00     0.048 C 
HETATM   25  C   UNL     1      43.891 -19.934   4.448  1.00  0.00     0.009 A 
HETATM   26  C   UNL     1      43.874 -19.065   5.542  1.00  0.00     0.030 A 
ENDBRANCH  17  20
ENDBRANCH  15  16
ENDBRANCH   1  15
TORSDOF 3
ENDMDL
MODEL 4
REMARK VINA RESULT:      -7.7      2.134      6.053
REMARK  3 active torsions:
REMARK  status: ('A' for Active; 'I' for Inactive)
REMARK    1  A    between atoms: C_5  and  N_6 
REMARK       I    between atoms: N_6  and  C_7 
REMARK    2  A    between atoms: C_7  and  C_8 
REMARK    3  A    between atoms: C_8  and  C_9 
ROOT
HETATM    1  C   UNL     1      42.858 -16.008   4.682  1.00  0.00     0.286 C 
HETATM    2  N   UNL     1      43.109 -16.670   3.327  1.00  0.00    -0.056 N 
HETATM    3  H   UNL     1      42.371 -16.315   2.685  1.00  0.00     0.278 HD
HETATM    4  H   UNL     1      44.007 -16.359   2.936  1.00  0.00     0.278 HD
HETATM    5  C   UNL     1      43.044 -18.162   3.449  1.00  0.00     0.209 C 
HETATM    6  C   UNL     1      44.153 -18.615   4.428  1.00  0.00     0.115 C 
HETATM    7  N   UNL     1      44.100 -17.901   5.701  1.00  0.00    -0.353 N 
HETATM    8  C   UNL     1      43.805 -16.553   5.772  1.00  0.00     0.249 C 
HETATM    9  O   UNL     1      44.219 -15.874   6.703  1.00  0.00    -0.271 OA
HETATM   10  C   UNL     1      43.217 -18.817   2.086  1.00  0.00     0.035 C 
HETATM   11  C   UNL     1      43.178 -20.340   2.235  1.00  0.00     0.002 C 
HETATM   12  C   UNL     1      44.191 -20.851   3.263  1.00  0.00     0.002 C 
HETATM   13  C   UNL     1      44.083 -20.132   4.611  1.00  0.00     0.027 C 
HETATM   14  H   UNL     1      44.746 -18.192   6.434  1.00  0.00     0.163 HD
ENDROOT
BRANCH   1  15
HETATM   15  C   UNL     1      42.918 -14.480   4.570  1.00  0.00     0.146 C 
BRANCH  15  16
HETATM   16  C   UNL     1      41.604 -13.889   5.012  1.00  0.00     0.224 C 
HETATM   17  N   UNL     1      40.582 -13.649   4.156  1.00  0.00    -0.327 N 
HETATM   18  H   UNL     1      39.831 -13.127   4.601  1.00  0.00     0.169 HD
HETATM   19  O   UNL     1      41.458 -13.607   6.210  1.00  0.00    -0.273 OA
BRANCH  17  20
HETATM   20  C   UNL     1      40.361 -13.951   2.799  1.00  0.00     0.034 A 
HETATM   21  C   UNL     1      40.123 -15.223   2.282  1.00  0.00     0.030 A 
HETATM   22  C   UNL     1      39.904 -15.404   0.909  1.00  0.00     0.009 A 
HETATM   23  C   UNL     1      39.920 -14.317   0.032  1.00  0.00    -0.062 A 
HETATM   24  C   UNL     1      39.660 -14.501  -1.435  1.00  0.00     0.048 C 
HETATM   25  C   UNL     1      40.129 -13.038   0.550  1.00  0.00     0.009 A 
HETATM   26  C   UNL     1      40.341 -12.859   1.920  1.00  0.00     0.030 A 
ENDBRANCH  17  20
ENDBRANCH  15  16
ENDBRANCH   1  15
TORSDOF 3
ENDMDL
MODEL 5
REMARK VINA RESULT:      -7.5      3.642      6.665
REMARK  3 active torsions:
REMARK  status: ('A' for Active; 'I' for Inactive)
REMARK    1  A    between atoms: C_5  and  N_6 
REMARK       I    between atoms: N_6  and  C_7 
REMARK    2  A    between atoms: C_7  and  C_8 
REMARK    3  A    between atoms: C_8  and  C_9 
ROOT
HETATM    1  C   UNL     1      42.199 -14.521   4.970  1.00  0.00     0.286 C 
HETATM    2  N   UNL     1      42.470 -15.073   3.571  1.00  0.00    -0.056 N 
HETATM    3  H   UNL     1      41.656 -14.796   2.983  1.00  0.00     0.278 HD
HETATM    4  H   UNL     1      43.293 -14.618   3.157  1.00  0.00     0.278 HD
HETATM    5  C   UNL     1      42.621 -16.563   3.611  1.00  0.00     0.209 C 
HETATM    6  C   UNL     1      43.832 -16.901   4.511  1.00  0.00     0.115 C 
HETATM    7  N   UNL     1      43.747 -16.265   5.824  1.00  0.00    -0.353 N 
HETATM    8  C   UNL     1      43.271 -14.978   5.984  1.00  0.00     0.249 C 
HETATM    9  O   UNL     1      43.633 -14.294   6.932  1.00  0.00    -0.271 OA
HETATM   10  C   UNL     1      42.811 -17.119   2.207  1.00  0.00     0.035 C 
HETATM   11  C   UNL     1      42.994 -18.637   2.271  1.00  0.00     0.002 C 
HETATM   12  C   UNL     1      44.122 -19.048   3.222  1.00  0.00     0.002 C 
HETATM   13  C   UNL     1      43.985 -18.419   4.612  1.00  0.00     0.027 C 
HETATM   14  H   UNL     1      44.465 -16.497   6.509  1.00  0.00     0.163 HD
ENDROOT
BRANCH   1  15
HETATM   15  C   UNL     1      42.039 -12.997   4.942  1.00  0.00     0.146 C 
BRANCH  15  16
HETATM   16  C   UNL     1      43.190 -12.382   4.187  1.00  0.00     0.224 C 
HETATM   17  N   UNL     1      44.067 -11.522   4.759  1.00  0.00    -0.327 N 
HETATM   18  H   UNL     1      44.691 -11.106   4.072  1.00  0.00     0.169 HD
HETATM   19  O   UNL     1      43.334 -12.674   2.991  1.00  0.00    -0.273 OA
BRANCH  17  20
HETATM   20  C   UNL     1      44.272 -11.081   6.080  1.00  0.00     0.034 A 
HETATM   21  C   UNL     1      43.295 -10.536   6.912  1.00  0.00     0.030 A 
HETATM   22  C   UNL     1      43.612 -10.141   8.219  1.00  0.00     0.009 A 
HETATM   23  C   UNL     1      44.910 -10.284   8.715  1.00  0.00    -0.062 A 
HETATM   24  C   UNL     1      45.250  -9.886  10.121  1.00  0.00     0.048 C 
HETATM   25  C   UNL     1      45.884 -10.856   7.895  1.00  0.00     0.009 A 
HETATM   26  C   UNL     1      45.565 -11.254   6.594  1.00  0.00     0.030 A 
ENDBRANCH  17  20
ENDBRANCH  15  16
ENDBRANCH   1  15
TORSDOF 3
ENDMDL
MODEL 6
REMARK VINA RESULT:      -7.4      2.990      4.645
REMARK  3 active torsions:
REMARK  status: ('A' for Active; 'I' for Inactive)
REMARK    1  A    between atoms: C_5  and  N_6 
REMARK       I    between atoms: N_6  and  C_7 
REMARK    2  A    between atoms: C_7  and  C_8 
REMARK    3  A    between atoms: C_8  and  C_9 
ROOT
HETATM    1  C   UNL     1      40.750 -14.428   4.010  1.00  0.00     0.286 C 
HETATM    2  N   UNL     1      39.730 -13.422   3.479  1.00  0.00    -0.056 N 
HETATM    3  H   UNL     1      39.962 -13.271   2.475  1.00  0.00     0.278 HD
HETATM    4  H   UNL     1      38.784 -13.824   3.499  1.00  0.00     0.278 HD
HETATM    5  C   UNL     1      39.803 -12.139   4.247  1.00  0.00     0.209 C 
HETATM    6  C   UNL     1      39.466 -12.442   5.726  1.00  0.00     0.115 C 
HETATM    7  N   UNL     1      40.279 -13.525   6.275  1.00  0.00    -0.353 N 
HETATM    8  C   UNL     1      40.605 -14.643   5.532  1.00  0.00     0.249 C 
HETATM    9  O   UNL     1      40.840 -15.710   6.086  1.00  0.00    -0.271 OA
HETATM   10  C   UNL     1      38.842 -11.112   3.666  1.00  0.00     0.035 C 
HETATM   11  C   UNL     1      38.909  -9.819   4.483  1.00  0.00     0.002 C 
HETATM   12  C   UNL     1      38.676 -10.061   5.977  1.00  0.00     0.002 C 
HETATM   13  C   UNL     1      39.578 -11.158   6.549  1.00  0.00     0.027 C 
HETATM   14  H   UNL     1      40.177 -13.737   7.266  1.00  0.00     0.163 HD
ENDROOT
BRANCH   1  15
HETATM   15  C   UNL     1      40.687 -15.746   3.229  1.00  0.00     0.146 C 
BRANCH  15  16
HETATM   16  C   UNL     1      41.653 -15.694   2.073  1.00  0.00     0.224 C 
HETATM   17  N   UNL     1      42.710 -16.534   1.961  1.00  0.00    -0.327 N 
HETATM   18  H   UNL     1      43.325 -16.268   1.195  1.00  0.00     0.169 HD
HETATM   19  O   UNL     1      41.472 -14.841   1.191  1.00  0.00    -0.273 OA
BRANCH  17  20
HETATM   20  C   UNL     1      43.132 -17.664   2.686  1.00  0.00     0.034 A 
HETATM   21  C   UNL     1      43.157 -18.972   2.202  1.00  0.00     0.030 A 
HETATM   22  C   UNL     1      43.611 -20.022   3.013  1.00  0.00     0.009 A 
HETATM   23  C   UNL     1      44.047 -19.781   4.318  1.00  0.00    -0.062 A 
HETATM   24  C   UNL     1      44.558 -20.897   5.182  1.00  0.00     0.048 C 
HETATM   25  C   UNL     1      44.052 -18.470   4.795  1.00  0.00     0.009 A 
HETATM   26  C   UNL     1      43.604 -17.424   3.983  1.00  0.00     0.030 A 
ENDBRANCH  17  20
ENDBRANCH  15  16
ENDBRANCH   1  15
TORSDOF 3
ENDMDL
MODEL 7
REMARK VINA RESULT:      -7.3      3.521      6.183
REMARK  3 active torsions:
REMARK  status: ('A' for Active; 'I' for Inactive)
REMARK    1  A    between atoms: C_5  and  N_6 
REMARK       I    between atoms: N_6  and  C_7 
REMARK    2  A    between atoms: C_7  and  C_8 
REMARK    3  A    between atoms: C_8  and  C_9 
ROOT
HETATM    1  C   UNL     1      41.761 -11.494   4.955  1.00  0.00     0.286 C 
HETATM    2  N   UNL     1      41.894 -11.392   6.474  1.00  0.00    -0.056 N 
HETATM    3  H   UNL     1      41.081 -10.832   6.803  1.00  0.00     0.278 HD
HETATM    4  H   UNL     1      41.801 -12.319   6.907  1.00  0.00     0.278 HD
HETATM    5  C   UNL     1      43.186 -10.733   6.848  1.00  0.00     0.209 C 
HETATM    6  C   UNL     1      44.346 -11.606   6.314  1.00  0.00     0.115 C 
HETATM    7  N   UNL     1      44.209 -11.908   4.891  1.00  0.00    -0.353 N 
HETATM    8  C   UNL     1      42.984 -12.189   4.318  1.00  0.00     0.249 C 
HETATM    9  O   UNL     1      42.913 -12.885   3.313  1.00  0.00    -0.271 OA
HETATM   10  C   UNL     1      43.282 -10.561   8.357  1.00  0.00     0.035 C 
HETATM   11  C   UNL     1      44.621  -9.915   8.722  1.00  0.00     0.002 C 
HETATM   12  C   UNL     1      45.814 -10.680   8.143  1.00  0.00     0.002 C 
HETATM   13  C   UNL     1      45.681 -10.936   6.639  1.00  0.00     0.027 C 
HETATM   14  H   UNL     1      44.970 -12.414   4.440  1.00  0.00     0.163 HD
ENDROOT
BRANCH   1  15
HETATM   15  C   UNL     1      40.440 -12.164   4.559  1.00  0.00     0.146 C 
BRANCH  15  16
HETATM   16  C   UNL     1      39.964 -13.046   5.685  1.00  0.00     0.224 C 
HETATM   17  N   UNL     1      40.244 -14.371   5.748  1.00  0.00    -0.327 N 
HETATM   18  H   UNL     1      39.732 -14.829   6.498  1.00  0.00     0.169 HD
HETATM   19  O   UNL     1      39.285 -12.536   6.587  1.00  0.00    -0.273 OA
BRANCH  17  20
HETATM   20  C   UNL     1      41.064 -15.226   4.989  1.00  0.00     0.034 A 
HETATM   21  C   UNL     1      42.298 -15.733   5.396  1.00  0.00     0.030 A 
HETATM   22  C   UNL     1      43.025 -16.591   4.559  1.00  0.00     0.009 A 
HETATM   23  C   UNL     1      42.532 -16.955   3.304  1.00  0.00    -0.062 A 
HETATM   24  C   UNL     1      43.294 -17.893   2.414  1.00  0.00     0.048 C 
HETATM   25  C   UNL     1      41.284 -16.473   2.906  1.00  0.00     0.009 A 
HETATM   26  C   UNL     1      40.558 -15.623   3.744  1.00  0.00     0.030 A 
ENDBRANCH  17  20
ENDBRANCH  15  16
ENDBRANCH   1  15
TORSDOF 3
ENDMDL
MODEL 8
REMARK VINA RESULT:      -7.3      3.136      5.402
REMARK  3 active torsions:
REMARK  status: ('A' for Active; 'I' for Inactive)
REMARK    1  A    between atoms: C_5  and  N_6 
REMARK       I    between atoms: N_6  and  C_7 
REMARK    2  A    between atoms: C_7  and  C_8 
REMARK    3  A    between atoms: C_8  and  C_9 
ROOT
HETATM    1  C   UNL     1      41.176 -14.158   4.728  1.00  0.00     0.286 C 
HETATM    2  N   UNL     1      42.635 -13.803   5.015  1.00  0.00    -0.056 N 
HETATM    3  H   UNL     1      43.111 -14.696   5.261  1.00  0.00     0.278 HD
HETATM    4  H   UNL     1      43.094 -13.456   4.163  1.00  0.00     0.278 HD
HETATM    5  C   UNL     1      42.728 -12.816   6.137  1.00  0.00     0.209 C 
HETATM    6  C   UNL     1      41.987 -11.527   5.709  1.00  0.00     0.115 C 
HETATM    7  N   UNL     1      40.627 -11.793   5.246  1.00  0.00    -0.353 N 
HETATM    8  C   UNL     1      40.318 -12.899   4.479  1.00  0.00     0.249 C 
HETATM    9  O   UNL     1      39.361 -12.879   3.715  1.00  0.00    -0.271 OA
HETATM   10  C   UNL     1      44.183 -12.524   6.473  1.00  0.00     0.035 C 
HETATM   11  C   UNL     1      44.258 -11.491   7.600  1.00  0.00     0.002 C 
HETATM   12  C   UNL     1      43.464 -10.222   7.280  1.00  0.00     0.002 C 
HETATM   13  C   UNL     1      42.023 -10.514   6.854  1.00  0.00     0.027 C 
HETATM   14  H   UNL     1      40.040 -10.991   5.019  1.00  0.00     0.163 HD
ENDROOT
BRANCH   1  15
HETATM   15  C   UNL     1      41.067 -15.171   3.583  1.00  0.00     0.146 C 
BRANCH  15  16
HETATM   16  C   UNL     1      42.234 -14.999   2.644  1.00  0.00     0.224 C 
HETATM   17  N   UNL     1      43.256 -15.886   2.572  1.00  0.00    -0.327 N 
HETATM   18  H   UNL     1      44.014 -15.542   1.988  1.00  0.00     0.169 HD
HETATM   19  O   UNL     1      42.258 -13.999   1.911  1.00  0.00    -0.273 OA
BRANCH  17  20
HETATM   20  C   UNL     1      43.486 -17.150   3.147  1.00  0.00     0.034 A 
HETATM   21  C   UNL     1      43.440 -18.367   2.468  1.00  0.00     0.030 A 
HETATM   22  C   UNL     1      43.699 -19.568   3.142  1.00  0.00     0.009 A 
HETATM   23  C   UNL     1      44.008 -19.572   4.504  1.00  0.00    -0.062 A 
HETATM   24  C   UNL     1      44.312 -20.853   5.226  1.00  0.00     0.048 C 
HETATM   25  C   UNL     1      44.084 -18.354   5.180  1.00  0.00     0.009 A 
HETATM   26  C   UNL     1      43.831 -17.157   4.505  1.00  0.00     0.030 A 
ENDBRANCH  17  20
ENDBRANCH  15  16
ENDBRANCH   1  15
TORSDOF 3
ENDMDL
MODEL 9
REMARK VINA RESULT:      -7.3      1.400      2.265
REMARK  3 active torsions:
REMARK  status: ('A' for Active; 'I' for Inactive)
REMARK    1  A    between atoms: C_5  and  N_6 
REMARK       I    between atoms: N_6  and  C_7 
REMARK    2  A    between atoms: C_7  and  C_8 
REMARK    3  A    between atoms: C_8  and  C_9 
ROOT
HETATM    1  C   UNL     1      40.236 -13.035   2.044  1.00  0.00     0.286 C 
HETATM    2  N   UNL     1      39.802 -14.182   1.132  1.00  0.00    -0.056 N 
HETATM    3  H   UNL     1      40.496 -14.946   1.271  1.00  0.00     0.278 HD
HETATM    4  H   UNL     1      38.895 -14.558   1.434  1.00  0.00     0.278 HD
HETATM    5  C   UNL     1      39.770 -13.738  -0.298  1.00  0.00     0.209 C 
HETATM    6  C   UNL     1      38.735 -12.595  -0.426  1.00  0.00     0.115 C 
HETATM    7  N   UNL     1      38.966 -11.522   0.538  1.00  0.00    -0.353 N 
HETATM    8  C   UNL     1      39.364 -11.777   1.836  1.00  0.00     0.249 C 
HETATM    9  O   UNL     1      39.097 -10.989   2.735  1.00  0.00    -0.271 OA
HETATM   10  C   UNL     1      39.415 -14.902  -1.212  1.00  0.00     0.035 C 
HETATM   11  C   UNL     1      39.357 -14.421  -2.664  1.00  0.00     0.002 C 
HETATM   12  C   UNL     1      38.418 -13.226  -2.846  1.00  0.00     0.002 C 
HETATM   13  C   UNL     1      38.712 -12.086  -1.867  1.00  0.00     0.027 C 
HETATM   14  H   UNL     1      38.378 -10.693   0.472  1.00  0.00     0.163 HD
ENDROOT
BRANCH   1  15
HETATM   15  C   UNL     1      40.276 -13.478   3.510  1.00  0.00     0.146 C 
BRANCH  15  16
HETATM   16  C   UNL     1      41.607 -13.109   4.114  1.00  0.00     0.224 C 
HETATM   17  N   UNL     1      42.652 -13.969   4.169  1.00  0.00    -0.327 N 
HETATM   18  H   UNL     1      43.417 -13.598   4.726  1.00  0.00     0.169 HD
HETATM   19  O   UNL     1      41.746 -11.970   4.583  1.00  0.00    -0.273 OA
BRANCH  17  20
HETATM   20  C   UNL     1      42.881 -15.253   3.639  1.00  0.00     0.034 A 
HETATM   21  C   UNL     1      43.005 -15.559   2.285  1.00  0.00     0.030 A 
HETATM   22  C   UNL     1      43.246 -16.877   1.872  1.00  0.00     0.009 A 
HETATM   23  C   UNL     1      43.366 -17.909   2.806  1.00  0.00    -0.062 A 
HETATM   24  C   UNL     1      43.649 -19.317   2.371  1.00  0.00     0.048 C 
HETATM   25  C   UNL     1      43.271 -17.601   4.164  1.00  0.00     0.009 A 
HETATM   26  C   UNL     1      43.037 -16.286   4.573  1.00  0.00     0.030 A 
ENDBRANCH  17  20
ENDBRANCH  15  16
ENDBRANCH   1  15
TORSDOF 3
ENDMDL
MODEL 10
REMARK VINA RESULT:      -7.2     14.614     17.497
REMARK  3 active torsions:
REMARK  status: ('A' for Active; 'I' for Inactive)
REMARK    1  A    between atoms: C_5  and  N_6 
REMARK       I    between atoms: N_6  and  C_7 
REMARK    2  A    between atoms: C_7  and  C_8 
REMARK    3  A    between atoms: C_8  and  C_9 
ROOT
HETATM    1  C   UNL     1      48.684 -29.592   0.494  1.00  0.00     0.286 C 
HETATM    2  N   UNL     1      49.002 -29.135   1.918  1.00  0.00    -0.056 N 
HETATM    3  H   UNL     1      49.621 -28.303   1.828  1.00  0.00     0.278 HD
HETATM    4  H   UNL     1      48.148 -28.810   2.390  1.00  0.00     0.278 HD
HETATM    5  C   UNL     1      49.678 -30.229   2.685  1.00  0.00     0.209 C 
HETATM    6  C   UNL     1      48.711 -31.433   2.764  1.00  0.00     0.115 C 
HETATM    7  N   UNL     1      48.210 -31.834   1.451  1.00  0.00    -0.353 N 
HETATM    8  C   UNL     1      47.877 -30.908   0.481  1.00  0.00     0.249 C 
HETATM    9  O   UNL     1      47.045 -31.177  -0.376  1.00  0.00    -0.271 OA
HETATM   10  C   UNL     1      50.064 -29.746   4.076  1.00  0.00     0.035 C 
HETATM   11  C   UNL     1      50.725 -30.886   4.855  1.00  0.00     0.002 C 
HETATM   12  C   UNL     1      49.858 -32.147   4.892  1.00  0.00     0.002 C 
HETATM   13  C   UNL     1      49.391 -32.587   3.502  1.00  0.00     0.027 C 
HETATM   14  H   UNL     1      47.628 -32.669   1.402  1.00  0.00     0.163 HD
ENDROOT
BRANCH   1  15
HETATM   15  C   UNL     1      47.994 -28.479  -0.303  1.00  0.00     0.146 C 
BRANCH  15  16
HETATM   16  C   UNL     1      46.671 -28.146   0.336  1.00  0.00     0.224 C 
HETATM   17  N   UNL     1      45.499 -28.178  -0.343  1.00  0.00    -0.327 N 
HETATM   18  H   UNL     1      44.733 -27.796   0.207  1.00  0.00     0.169 HD
HETATM   19  O   UNL     1      46.659 -27.824   1.533  1.00  0.00    -0.273 OA
BRANCH  17  20
HETATM   20  C   UNL     1      45.136 -28.605  -1.634  1.00  0.00     0.034 A 
HETATM   21  C   UNL     1      45.486 -27.969  -2.824  1.00  0.00     0.030 A 
HETATM   22  C   UNL     1      45.078 -28.493  -4.058  1.00  0.00     0.009 A 
HETATM   23  C   UNL     1      44.315 -29.661  -4.123  1.00  0.00    -0.062 A 
HETATM   24  C   UNL     1      43.897 -30.241  -5.442  1.00  0.00     0.048 C 
HETATM   25  C   UNL     1      43.988 -30.317  -2.935  1.00  0.00     0.009 A 
HETATM   26  C   UNL     1      44.400 -29.796  -1.706  1.00  0.00     0.030 A 
ENDBRANCH  17  20
ENDBRANCH  15  16
ENDBRANCH   1  15
TORSDOF 3
ENDMDL
