MODEL 1
REMARK VINA RESULT:      -8.0      0.000      0.000
REMARK  6 active torsions:
REMARK  status: ('A' for Active; 'I' for Inactive)
REMARK    1  A    between atoms: C_2  and  N_3 
REMARK    2  A    between atoms: C_2  and  C_21 
REMARK       I    between atoms: N_3  and  C_4 
REMARK       I    between atoms: C_4  and  N_5 
REMARK    3  A    between atoms: N_5  and  C_6 
REMARK    4  A    between atoms: C_9  and  O_10 
REMARK    5  A    between atoms: O_10  and  C_11 
REMARK    6  A    between atoms: C_11  and  C_12 
ROOT
HETATM    1  C   UNL     1      40.406 -14.718   1.537  1.00  0.00     0.036 A 
HETATM    2  C   UNL     1      39.928 -15.552   2.549  1.00  0.00     0.032 A 
HETATM    3  C   UNL     1      40.801 -16.085   3.508  1.00  0.00     0.039 A 
HETATM    4  C   UNL     1      42.159 -15.777   3.472  1.00  0.00     0.068 A 
HETATM    5  C   UNL     1      42.648 -14.977   2.439  1.00  0.00     0.039 A 
HETATM    6  C   UNL     1      41.778 -14.449   1.480  1.00  0.00     0.032 A 
ENDROOT
BRANCH   1   7
HETATM    7  N   UNL     1      39.586 -14.096   0.571  1.00  0.00    -0.309 N 
HETATM    8  C   UNL     1      38.937 -12.897   0.672  1.00  0.00     0.321 C 
HETATM    9  N   UNL     1      38.340 -12.447  -0.463  1.00  0.00    -0.332 N 
HETATM   10  O   UNL     1      38.861 -12.192   1.673  1.00  0.00    -0.247 OA
HETATM   11  H   UNL     1      37.887 -11.546  -0.348  1.00  0.00     0.165 HD
HETATM   12  H   UNL     1      39.468 -14.605  -0.287  1.00  0.00     0.170 HD
BRANCH   9  13
HETATM   13  C   UNL     1      38.279 -13.012  -1.808  1.00  0.00     0.155 C 
HETATM   14  C   UNL     1      37.188 -12.328  -2.626  1.00  0.00     0.041 C 
BRANCH  13  15
HETATM   15  C   UNL     1      39.628 -12.857  -2.453  1.00  0.00     0.169 A 
HETATM   16  N   UNL     1      40.401 -13.899  -2.793  1.00  0.00    -0.156 NA
HETATM   17  N   UNL     1      41.490 -13.278  -3.279  1.00  0.00    -0.270 N 
HETATM   18  H   UNL     1      42.271 -13.831  -3.615  1.00  0.00     0.190 HD
HETATM   19  C   UNL     1      41.351 -11.928  -3.231  1.00  0.00     0.227 A 
HETATM   20  N   UNL     1      40.184 -11.624  -2.718  1.00  0.00    -0.223 NA
ENDBRANCH  13  15
ENDBRANCH   9  13
ENDBRANCH   1   7
BRANCH   4  21
HETATM   21  O   UNL     1      43.096 -16.200   4.373  1.00  0.00    -0.351 OA
BRANCH  21  22
HETATM   22  C   UNL     1      43.065 -17.590   4.711  1.00  0.00     0.180 C 
BRANCH  22  23
HETATM   23  C   UNL     1      44.357 -18.254   4.201  1.00  0.00     0.010 C 
HETATM   24  C   UNL     1      44.657 -19.581   4.923  1.00  0.00     0.007 C 
HETATM   25  C   UNL     1      43.702 -20.705   4.522  1.00  0.00     0.000 C 
HETATM   26  C   UNL     1      43.663 -20.898   3.009  1.00  0.00     0.000 C 
HETATM   27  C   UNL     1      43.359 -19.598   2.271  1.00  0.00     0.000 C 
HETATM   28  C   UNL     1      44.312 -18.475   2.682  1.00  0.00     0.007 C 
ENDBRANCH  22  23
ENDBRANCH  21  22
ENDBRANCH   4  21
TORSDOF 6
ENDMDL
MODEL 2
REMARK VINA RESULT:      -7.8      6.488      8.562
REMARK  6 active torsions:
REMARK  status: ('A' for Active; 'I' for Inactive)
REMARK    1  A    between atoms: C_2  and  N_3 
REMARK    2  A    between atoms: C_2  and  C_21 
REMARK       I    between atoms: N_3  and  C_4 
REMARK       I    between atoms: C_4  and  N_5 
REMARK    3  A    between atoms: N_5  and  C_6 
REMARK    4  A    between atoms: C_9  and  O_10 
REMARK    5  A    between atoms: O_10  and  C_11 
REMARK    6  A    between atoms: C_11  and  C_12 
ROOT
HETATM    1  C   UNL     1      43.021 -13.112   6.088  1.00  0.00     0.036 A 
HETATM    2  C   UNL     1      42.434 -14.310   6.497  1.00  0.00     0.032 A 
HETATM    3  C   UNL     1      42.096 -15.297   5.560  1.00  0.00     0.039 A 
HETATM    4  C   UNL     1      42.354 -15.100   4.207  1.00  0.00     0.068 A 
HETATM    5  C   UNL     1      42.903 -13.889   3.788  1.00  0.00     0.039 A 
HETATM    6  C   UNL     1      43.237 -12.902   4.721  1.00  0.00     0.032 A 
ENDROOT
BRANCH   1   7
HETATM    7  N   UNL     1      43.443 -12.096   6.971  1.00  0.00    -0.309 N 
HETATM    8  C   UNL     1      42.933 -10.833   7.100  1.00  0.00     0.321 C 
HETATM    9  N   UNL     1      43.415 -10.101   8.138  1.00  0.00    -0.332 N 
HETATM   10  O   UNL     1      42.080 -10.316   6.385  1.00  0.00    -0.247 OA
HETATM   11  H   UNL     1      42.995  -9.179   8.208  1.00  0.00     0.165 HD
HETATM   12  H   UNL     1      44.214 -12.337   7.569  1.00  0.00     0.170 HD
BRANCH   9  13
HETATM   13  C   UNL     1      44.385 -10.428   9.179  1.00  0.00     0.155 C 
HETATM   14  C   UNL     1      45.520  -9.409   9.190  1.00  0.00     0.041 C 
BRANCH  13  15
HETATM   15  C   UNL     1      43.671 -10.471  10.501  1.00  0.00     0.169 A 
HETATM   16  N   UNL     1      44.008 -11.314  11.488  1.00  0.00    -0.156 NA
HETATM   17  N   UNL     1      43.087 -11.018  12.421  1.00  0.00    -0.270 N 
HETATM   18  H   UNL     1      43.090 -11.520  13.302  1.00  0.00     0.190 HD
HETATM   19  C   UNL     1      42.253 -10.033  11.996  1.00  0.00     0.227 A 
HETATM   20  N   UNL     1      42.595  -9.659  10.787  1.00  0.00    -0.223 NA
ENDBRANCH  13  15
ENDBRANCH   9  13
ENDBRANCH   1   7
BRANCH   4  21
HETATM   21  O   UNL     1      42.110 -16.003   3.209  1.00  0.00    -0.351 OA
BRANCH  21  22
HETATM   22  C   UNL     1      42.255 -17.383   3.557  1.00  0.00     0.180 C 
BRANCH  22  23
HETATM   23  C   UNL     1      43.712 -17.811   3.303  1.00  0.00     0.010 C 
HETATM   24  C   UNL     1      44.436 -18.221   4.599  1.00  0.00     0.007 C 
HETATM   25  C   UNL     1      43.947 -19.558   5.155  1.00  0.00     0.000 C 
HETATM   26  C   UNL     1      44.023 -20.665   4.108  1.00  0.00     0.000 C 
HETATM   27  C   UNL     1      43.304 -20.285   2.817  1.00  0.00     0.000 C 
HETATM   28  C   UNL     1      43.791 -18.944   2.269  1.00  0.00     0.007 C 
ENDBRANCH  22  23
ENDBRANCH  21  22
ENDBRANCH   4  21
TORSDOF 6
ENDMDL
MODEL 3
REMARK VINA RESULT:      -7.6      6.259      8.192
REMARK  6 active torsions:
REMARK  status: ('A' for Active; 'I' for Inactive)
REMARK    1  A    between atoms: C_2  and  N_3 
REMARK    2  A    between atoms: C_2  and  C_21 
REMARK       I    between atoms: N_3  and  C_4 
REMARK       I    between atoms: C_4  and  N_5 
REMARK    3  A    between atoms: N_5  and  C_6 
REMARK    4  A    between atoms: C_9  and  O_10 
REMARK    5  A    between atoms: O_10  and  C_11 
REMARK    6  A    between atoms: C_11  and  C_12 
ROOT
HETATM    1  C   UNL     1      43.503 -13.303   6.480  1.00  0.00     0.036 A 
HETATM    2  C   UNL     1      43.560 -14.668   6.761  1.00  0.00     0.032 A 
HETATM    3  C   UNL     1      43.179 -15.613   5.798  1.00  0.00     0.039 A 
HETATM    4  C   UNL     1      42.751 -15.201   4.539  1.00  0.00     0.068 A 
HETATM    5  C   UNL     1      42.654 -13.837   4.266  1.00  0.00     0.039 A 
HETATM    6  C   UNL     1      43.030 -12.894   5.228  1.00  0.00     0.032 A 
ENDROOT
BRANCH   1   7
HETATM    7  N   UNL     1      43.923 -12.293   7.371  1.00  0.00    -0.309 N 
HETATM    8  C   UNL     1      44.989 -11.447   7.236  1.00  0.00     0.321 C 
HETATM    9  N   UNL     1      45.083 -10.456   8.161  1.00  0.00    -0.332 N 
HETATM   10  O   UNL     1      45.845 -11.489   6.358  1.00  0.00    -0.247 OA
HETATM   11  H   UNL     1      45.876  -9.841   8.011  1.00  0.00     0.165 HD
HETATM   12  H   UNL     1      43.369 -12.196   8.204  1.00  0.00     0.170 HD
BRANCH   9  13
HETATM   13  C   UNL     1      44.223 -10.107   9.289  1.00  0.00     0.155 C 
HETATM   14  C   UNL     1      45.063  -9.800  10.525  1.00  0.00     0.041 C 
BRANCH  13  15
HETATM   15  C   UNL     1      43.373  -8.932   8.896  1.00  0.00     0.169 A 
HETATM   16  N   UNL     1      43.868  -7.837   8.299  1.00  0.00    -0.156 NA
HETATM   17  N   UNL     1      42.769  -7.071   8.189  1.00  0.00    -0.270 N 
HETATM   18  H   UNL     1      42.842  -6.151   7.769  1.00  0.00     0.190 HD
HETATM   19  C   UNL     1      41.676  -7.700   8.695  1.00  0.00     0.227 A 
HETATM   20  N   UNL     1      42.019  -8.882   9.148  1.00  0.00    -0.223 NA
ENDBRANCH  13  15
ENDBRANCH   9  13
ENDBRANCH   1   7
BRANCH   4  21
HETATM   21  O   UNL     1      42.396 -16.027   3.509  1.00  0.00    -0.351 OA
BRANCH  21  22
HETATM   22  C   UNL     1      42.482 -17.431   3.766  1.00  0.00     0.180 C 
BRANCH  22  23
HETATM   23  C   UNL     1      43.825 -17.956   3.227  1.00  0.00     0.010 C 
HETATM   24  C   UNL     1      44.646 -18.684   4.307  1.00  0.00     0.007 C 
HETATM   25  C   UNL     1      44.057 -20.042   4.687  1.00  0.00     0.000 C 
HETATM   26  C   UNL     1      43.852 -20.929   3.462  1.00  0.00     0.000 C 
HETATM   27  C   UNL     1      43.032 -20.232   2.380  1.00  0.00     0.000 C 
HETATM   28  C   UNL     1      43.621 -18.870   2.010  1.00  0.00     0.007 C 
ENDBRANCH  22  23
ENDBRANCH  21  22
ENDBRANCH   4  21
TORSDOF 6
ENDMDL
MODEL 4
REMARK VINA RESULT:      -7.5      6.740      8.832
REMARK  6 active torsions:
REMARK  status: ('A' for Active; 'I' for Inactive)
REMARK    1  A    between atoms: C_2  and  N_3 
REMARK    2  A    between atoms: C_2  and  C_21 
REMARK       I    between atoms: N_3  and  C_4 
REMARK       I    between atoms: C_4  and  N_5 
REMARK    3  A    between atoms: N_5  and  C_6 
REMARK    4  A    between atoms: C_9  and  O_10 
REMARK    5  A    between atoms: O_10  and  C_11 
REMARK    6  A    between atoms: C_11  and  C_12 
ROOT
HETATM    1  C   UNL     1      43.515 -12.125   6.640  1.00  0.00     0.036 A 
HETATM    2  C   UNL     1      43.044 -11.892   5.347  1.00  0.00     0.032 A 
HETATM    3  C   UNL     1      42.408 -12.910   4.623  1.00  0.00     0.039 A 
HETATM    4  C   UNL     1      42.224 -14.168   5.191  1.00  0.00     0.068 A 
HETATM    5  C   UNL     1      42.728 -14.419   6.467  1.00  0.00     0.039 A 
HETATM    6  C   UNL     1      43.366 -13.405   7.188  1.00  0.00     0.032 A 
ENDROOT
BRANCH   1   7
HETATM    7  N   UNL     1      44.111 -11.140   7.454  1.00  0.00    -0.309 N 
HETATM    8  C   UNL     1      45.410 -10.713   7.437  1.00  0.00     0.321 C 
HETATM    9  N   UNL     1      45.693  -9.637   8.216  1.00  0.00    -0.332 N 
HETATM   10  O   UNL     1      46.326 -11.195   6.778  1.00  0.00    -0.247 OA
HETATM   11  H   UNL     1      46.663  -9.343   8.158  1.00  0.00     0.165 HD
HETATM   12  H   UNL     1      43.501 -10.710   8.127  1.00  0.00     0.170 HD
BRANCH   9  13
HETATM   13  C   UNL     1      44.841  -8.819   9.074  1.00  0.00     0.155 C 
HETATM   14  C   UNL     1      43.840  -8.030   8.236  1.00  0.00     0.041 C 
BRANCH  13  15
HETATM   15  C   UNL     1      44.146  -9.719  10.057  1.00  0.00     0.169 A 
HETATM   16  N   UNL     1      42.822  -9.687  10.270  1.00  0.00    -0.156 NA
HETATM   17  N   UNL     1      42.682 -10.613  11.234  1.00  0.00    -0.270 N 
HETATM   18  H   UNL     1      41.760 -10.805  11.611  1.00  0.00     0.190 HD
HETATM   19  C   UNL     1      43.877 -11.168  11.561  1.00  0.00     0.227 A 
HETATM   20  N   UNL     1      44.826 -10.630  10.834  1.00  0.00    -0.223 NA
ENDBRANCH  13  15
ENDBRANCH   9  13
ENDBRANCH   1   7
BRANCH   4  21
HETATM   21  O   UNL     1      41.583 -15.222   4.602  1.00  0.00    -0.351 OA
BRANCH  21  22
HETATM   22  C   UNL     1      42.165 -16.512   4.811  1.00  0.00     0.180 C 
BRANCH  22  23
HETATM   23  C   UNL     1      43.512 -16.578   4.068  1.00  0.00     0.010 C 
HETATM   24  C   UNL     1      44.486 -17.585   4.707  1.00  0.00     0.007 C 
HETATM   25  C   UNL     1      44.076 -19.039   4.474  1.00  0.00     0.000 C 
HETATM   26  C   UNL     1      43.874 -19.335   2.990  1.00  0.00     0.000 C 
HETATM   27  C   UNL     1      42.905 -18.355   2.336  1.00  0.00     0.000 C 
HETATM   28  C   UNL     1      43.315 -16.903   2.579  1.00  0.00     0.007 C 
ENDBRANCH  22  23
ENDBRANCH  21  22
ENDBRANCH   4  21
TORSDOF 6
ENDMDL
MODEL 5
REMARK VINA RESULT:      -7.3      6.540      8.770
REMARK  6 active torsions:
REMARK  status: ('A' for Active; 'I' for Inactive)
REMARK    1  A    between atoms: C_2  and  N_3 
REMARK    2  A    between atoms: C_2  and  C_21 
REMARK       I    between atoms: N_3  and  C_4 
REMARK       I    between atoms: C_4  and  N_5 
REMARK    3  A    between atoms: N_5  and  C_6 
REMARK    4  A    between atoms: C_9  and  O_10 
REMARK    5  A    between atoms: O_10  and  C_11 
REMARK    6  A    between atoms: C_11  and  C_12 
ROOT
HETATM    1  C   UNL     1      43.220 -12.884   5.951  1.00  0.00     0.036 A 
HETATM    2  C   UNL     1      42.264 -11.868   5.911  1.00  0.00     0.032 A 
HETATM    3  C   UNL     1      42.473 -10.661   6.592  1.00  0.00     0.039 A 
HETATM    4  C   UNL     1      43.648 -10.453   7.310  1.00  0.00     0.068 A 
HETATM    5  C   UNL     1      44.589 -11.480   7.387  1.00  0.00     0.039 A 
HETATM    6  C   UNL     1      44.378 -12.686   6.711  1.00  0.00     0.032 A 
ENDROOT
BRANCH   1   7
HETATM    7  N   UNL     1      43.111 -14.101   5.247  1.00  0.00    -0.309 N 
HETATM    8  C   UNL     1      42.666 -15.305   5.719  1.00  0.00     0.321 C 
HETATM    9  N   UNL     1      42.508 -16.286   4.792  1.00  0.00    -0.332 N 
HETATM   10  O   UNL     1      42.383 -15.571   6.883  1.00  0.00    -0.247 OA
HETATM   11  H   UNL     1      42.157 -17.155   5.183  1.00  0.00     0.165 HD
HETATM   12  H   UNL     1      43.402 -14.071   4.285  1.00  0.00     0.170 HD
BRANCH   9  13
HETATM   13  C   UNL     1      42.710 -16.286   3.346  1.00  0.00     0.155 C 
HETATM   14  C   UNL     1      43.152 -17.666   2.870  1.00  0.00     0.041 C 
BRANCH  13  15
HETATM   15  C   UNL     1      41.430 -15.859   2.684  1.00  0.00     0.169 A 
HETATM   16  N   UNL     1      40.230 -15.965   3.274  1.00  0.00    -0.156 NA
HETATM   17  N   UNL     1      39.414 -15.512   2.306  1.00  0.00    -0.270 N 
HETATM   18  H   UNL     1      38.414 -15.483   2.470  1.00  0.00     0.190 HD
HETATM   19  C   UNL     1      40.115 -15.149   1.201  1.00  0.00     0.227 A 
HETATM   20  N   UNL     1      41.394 -15.351   1.404  1.00  0.00    -0.223 NA
ENDBRANCH  13  15
ENDBRANCH   9  13
ENDBRANCH   1   7
BRANCH   4  21
HETATM   21  O   UNL     1      43.983  -9.307   7.976  1.00  0.00    -0.351 OA
BRANCH  21  22
HETATM   22  C   UNL     1      43.041  -8.843   8.948  1.00  0.00     0.180 C 
BRANCH  22  23
HETATM   23  C   UNL     1      43.798  -8.467  10.234  1.00  0.00     0.010 C 
HETATM   24  C   UNL     1      42.858  -7.937  11.333  1.00  0.00     0.007 C 
HETATM   25  C   UNL     1      41.985  -9.031  11.947  1.00  0.00     0.000 C 
HETATM   26  C   UNL     1      42.822 -10.201  12.456  1.00  0.00     0.000 C 
HETATM   27  C   UNL     1      43.756 -10.750  11.382  1.00  0.00     0.000 C 
HETATM   28  C   UNL     1      44.621  -9.650  10.766  1.00  0.00     0.007 C 
ENDBRANCH  22  23
ENDBRANCH  21  22
ENDBRANCH   4  21
TORSDOF 6
ENDMDL
MODEL 6
REMARK VINA RESULT:      -7.2      6.268      8.779
REMARK  6 active torsions:
REMARK  status: ('A' for Active; 'I' for Inactive)
REMARK    1  A    between atoms: C_2  and  N_3 
REMARK    2  A    between atoms: C_2  and  C_21 
REMARK       I    between atoms: N_3  and  C_4 
REMARK       I    between atoms: C_4  and  N_5 
REMARK    3  A    between atoms: N_5  and  C_6 
REMARK    4  A    between atoms: C_9  and  O_10 
REMARK    5  A    between atoms: O_10  and  C_11 
REMARK    6  A    between atoms: C_11  and  C_12 
ROOT
HETATM    1  C   UNL     1      43.326 -13.504   6.792  1.00  0.00     0.036 A 
HETATM    2  C   UNL     1      43.977 -14.737   6.741  1.00  0.00     0.032 A 
HETATM    3  C   UNL     1      43.471 -15.782   5.954  1.00  0.00     0.039 A 
HETATM    4  C   UNL     1      42.314 -15.598   5.201  1.00  0.00     0.068 A 
HETATM    5  C   UNL     1      41.637 -14.381   5.280  1.00  0.00     0.039 A 
HETATM    6  C   UNL     1      42.140 -13.341   6.068  1.00  0.00     0.032 A 
ENDROOT
BRANCH   1   7
HETATM    7  N   UNL     1      43.802 -12.388   7.511  1.00  0.00    -0.309 N 
HETATM    8  C   UNL     1      44.777 -11.505   7.137  1.00  0.00     0.321 C 
HETATM    9  N   UNL     1      44.937 -10.421   7.940  1.00  0.00    -0.332 N 
HETATM   10  O   UNL     1      45.496 -11.591   6.147  1.00  0.00    -0.247 OA
HETATM   11  H   UNL     1      45.656  -9.782   7.614  1.00  0.00     0.165 HD
HETATM   12  H   UNL     1      43.370 -12.235   8.405  1.00  0.00     0.170 HD
BRANCH   9  13
HETATM   13  C   UNL     1      44.229 -10.003   9.147  1.00  0.00     0.155 C 
HETATM   14  C   UNL     1      45.219  -9.705  10.269  1.00  0.00     0.041 C 
BRANCH  13  15
HETATM   15  C   UNL     1      43.391  -8.799   8.818  1.00  0.00     0.169 A 
HETATM   16  N   UNL     1      43.916  -7.600   8.528  1.00  0.00    -0.156 NA
HETATM   17  N   UNL     1      42.809  -6.857   8.354  1.00  0.00    -0.270 N 
HETATM   18  H   UNL     1      42.899  -5.873   8.125  1.00  0.00     0.190 HD
HETATM   19  C   UNL     1      41.685  -7.600   8.527  1.00  0.00     0.227 A 
HETATM   20  N   UNL     1      42.014  -8.835   8.819  1.00  0.00    -0.223 NA
ENDBRANCH  13  15
ENDBRANCH   9  13
ENDBRANCH   1   7
BRANCH   4  21
HETATM   21  O   UNL     1      41.751 -16.523   4.367  1.00  0.00    -0.351 OA
BRANCH  21  22
HETATM   22  C   UNL     1      40.664 -16.065   3.557  1.00  0.00     0.180 C 
BRANCH  22  23
HETATM   23  C   UNL     1      41.032 -16.257   2.075  1.00  0.00     0.010 C 
HETATM   24  C   UNL     1      39.988 -15.636   1.127  1.00  0.00     0.007 C 
HETATM   25  C   UNL     1      40.019 -14.108   1.129  1.00  0.00     0.000 C 
HETATM   26  C   UNL     1      41.418 -13.573   0.833  1.00  0.00     0.000 C 
HETATM   27  C   UNL     1      42.469 -14.168   1.765  1.00  0.00     0.000 C 
HETATM   28  C   UNL     1      42.428 -15.696   1.767  1.00  0.00     0.007 C 
ENDBRANCH  22  23
ENDBRANCH  21  22
ENDBRANCH   4  21
TORSDOF 6
ENDMDL
MODEL 7
REMARK VINA RESULT:      -7.2      7.353      9.461
REMARK  6 active torsions:
REMARK  status: ('A' for Active; 'I' for Inactive)
REMARK    1  A    between atoms: C_2  and  N_3 
REMARK    2  A    between atoms: C_2  and  C_21 
REMARK       I    between atoms: N_3  and  C_4 
REMARK       I    between atoms: C_4  and  N_5 
REMARK    3  A    between atoms: N_5  and  C_6 
REMARK    4  A    between atoms: C_9  and  O_10 
REMARK    5  A    between atoms: O_10  and  C_11 
REMARK    6  A    between atoms: C_11  and  C_12 
ROOT
HETATM    1  C   UNL     1      43.825 -11.866   6.445  1.00  0.00     0.036 A 
HETATM    2  C   UNL     1      45.074 -11.699   7.044  1.00  0.00     0.032 A 
HETATM    3  C   UNL     1      45.312 -10.627   7.916  1.00  0.00     0.039 A 
HETATM    4  C   UNL     1      44.297  -9.719   8.207  1.00  0.00     0.068 A 
HETATM    5  C   UNL     1      43.059  -9.859   7.581  1.00  0.00     0.039 A 
HETATM    6  C   UNL     1      42.823 -10.925   6.708  1.00  0.00     0.032 A 
ENDROOT
BRANCH   1   7
HETATM    7  N   UNL     1      43.489 -12.949   5.606  1.00  0.00    -0.309 N 
HETATM    8  C   UNL     1      43.123 -14.214   5.976  1.00  0.00     0.321 C 
HETATM    9  N   UNL     1      42.695 -15.025   4.974  1.00  0.00    -0.332 N 
HETATM   10  O   UNL     1      43.130 -14.669   7.115  1.00  0.00    -0.247 OA
HETATM   11  H   UNL     1      42.415 -15.947   5.296  1.00  0.00     0.165 HD
HETATM   12  H   UNL     1      43.531 -12.759   4.620  1.00  0.00     0.170 HD
BRANCH   9  13
HETATM   13  C   UNL     1      42.529 -14.785   3.543  1.00  0.00     0.155 C 
HETATM   14  C   UNL     1      42.839 -16.050   2.750  1.00  0.00     0.041 C 
BRANCH  13  15
HETATM   15  C   UNL     1      41.123 -14.313   3.298  1.00  0.00     0.169 A 
HETATM   16  N   UNL     1      40.190 -15.070   2.700  1.00  0.00    -0.156 NA
HETATM   17  N   UNL     1      39.142 -14.229   2.668  1.00  0.00    -0.270 N 
HETATM   18  H   UNL     1      38.270 -14.535   2.251  1.00  0.00     0.190 HD
HETATM   19  C   UNL     1      39.451 -13.033   3.233  1.00  0.00     0.227 A 
HETATM   20  N   UNL     1      40.695 -13.050   3.646  1.00  0.00    -0.223 NA
ENDBRANCH  13  15
ENDBRANCH   9  13
ENDBRANCH   1   7
BRANCH   4  21
HETATM   21  O   UNL     1      44.396  -8.664   9.071  1.00  0.00    -0.351 OA
BRANCH  21  22
HETATM   22  C   UNL     1      44.180  -8.957  10.454  1.00  0.00     0.180 C 
BRANCH  22  23
HETATM   23  C   UNL     1      42.744  -8.549  10.831  1.00  0.00     0.010 C 
HETATM   24  C   UNL     1      41.918  -9.735  11.362  1.00  0.00     0.007 C 
HETATM   25  C   UNL     1      42.353 -10.186  12.756  1.00  0.00     0.000 C 
HETATM   26  C   UNL     1      42.352  -9.027  13.749  1.00  0.00     0.000 C 
HETATM   27  C   UNL     1      43.172  -7.841  13.249  1.00  0.00     0.000 C 
HETATM   28  C   UNL     1      42.738  -7.400  11.851  1.00  0.00     0.007 C 
ENDBRANCH  22  23
ENDBRANCH  21  22
ENDBRANCH   4  21
TORSDOF 6
ENDMDL
MODEL 8
REMARK VINA RESULT:      -7.2      3.753      8.706
REMARK  6 active torsions:
REMARK  status: ('A' for Active; 'I' for Inactive)
REMARK    1  A    between atoms: C_2  and  N_3 
REMARK    2  A    between atoms: C_2  and  C_21 
REMARK       I    between atoms: N_3  and  C_4 
REMARK       I    between atoms: C_4  and  N_5 
REMARK    3  A    between atoms: N_5  and  C_6 
REMARK    4  A    between atoms: C_9  and  O_10 
REMARK    5  A    between atoms: O_10  and  C_11 
REMARK    6  A    between atoms: C_11  and  C_12 
ROOT
HETATM    1  C   UNL     1      41.865 -14.678   2.975  1.00  0.00     0.036 A 
HETATM    2  C   UNL     1      41.283 -15.217   1.827  1.00  0.00     0.032 A 
HETATM    3  C   UNL     1      40.950 -14.395   0.740  1.00  0.00     0.039 A 
HETATM    4  C   UNL     1      41.209 -13.028   0.787  1.00  0.00     0.068 A 
HETATM    5  C   UNL     1      41.753 -12.478   1.947  1.00  0.00     0.039 A 
HETATM    6  C   UNL     1      42.082 -13.296   3.033  1.00  0.00     0.032 A 
ENDROOT
BRANCH   1   7
HETATM    7  N   UNL     1      42.283 -15.443   4.084  1.00  0.00    -0.309 N 
HETATM    8  C   UNL     1      41.498 -16.080   5.005  1.00  0.00     0.321 C 
HETATM    9  N   UNL     1      42.148 -16.884   5.886  1.00  0.00    -0.332 N 
HETATM   10  O   UNL     1      40.276 -16.007   5.096  1.00  0.00    -0.247 OA
HETATM   11  H   UNL     1      41.526 -17.352   6.538  1.00  0.00     0.165 HD
HETATM   12  H   UNL     1      43.277 -15.519   4.206  1.00  0.00     0.170 HD
BRANCH   9  13
HETATM   13  C   UNL     1      43.563 -17.219   6.021  1.00  0.00     0.155 C 
HETATM   14  C   UNL     1      44.034 -16.976   7.452  1.00  0.00     0.041 C 
BRANCH  13  15
HETATM   15  C   UNL     1      43.757 -18.653   5.615  1.00  0.00     0.169 A 
HETATM   16  N   UNL     1      43.450 -19.687   6.412  1.00  0.00    -0.156 NA
HETATM   17  N   UNL     1      43.826 -20.731   5.654  1.00  0.00    -0.270 N 
HETATM   18  H   UNL     1      43.717 -21.673   6.013  1.00  0.00     0.190 HD
HETATM   19  C   UNL     1      44.324 -20.319   4.459  1.00  0.00     0.227 A 
HETATM   20  N   UNL     1      44.292 -19.010   4.397  1.00  0.00    -0.223 NA
ENDBRANCH  13  15
ENDBRANCH   9  13
ENDBRANCH   1   7
BRANCH   4  21
HETATM   21  O   UNL     1      40.969 -12.137  -0.222  1.00  0.00    -0.351 OA
BRANCH  21  22
HETATM   22  C   UNL     1      39.607 -12.010  -0.642  1.00  0.00     0.180 C 
BRANCH  22  23
HETATM   23  C   UNL     1      39.565 -11.940  -2.179  1.00  0.00     0.010 C 
HETATM   24  C   UNL     1      40.314 -13.112  -2.840  1.00  0.00     0.007 C 
HETATM   25  C   UNL     1      39.577 -14.444  -2.697  1.00  0.00     0.000 C 
HETATM   26  C   UNL     1      38.141 -14.350  -3.206  1.00  0.00     0.000 C 
HETATM   27  C   UNL     1      37.376 -13.200  -2.558  1.00  0.00     0.000 C 
HETATM   28  C   UNL     1      38.121 -11.873  -2.697  1.00  0.00     0.007 C 
ENDBRANCH  22  23
ENDBRANCH  21  22
ENDBRANCH   4  21
TORSDOF 6
ENDMDL
MODEL 9
REMARK VINA RESULT:      -7.1      1.881      2.580
REMARK  6 active torsions:
REMARK  status: ('A' for Active; 'I' for Inactive)
REMARK    1  A    between atoms: C_2  and  N_3 
REMARK    2  A    between atoms: C_2  and  C_21 
REMARK       I    between atoms: N_3  and  C_4 
REMARK       I    between atoms: C_4  and  N_5 
REMARK    3  A    between atoms: N_5  and  C_6 
REMARK    4  A    between atoms: C_9  and  O_10 
REMARK    5  A    between atoms: O_10  and  C_11 
REMARK    6  A    between atoms: C_11  and  C_12 
ROOT
HETATM    1  C   UNL     1      39.902 -12.662   1.499  1.00  0.00     0.036 A 
HETATM    2  C   UNL     1      40.287 -12.095   2.715  1.00  0.00     0.032 A 
HETATM    3  C   UNL     1      40.610 -12.907   3.812  1.00  0.00     0.039 A 
HETATM    4  C   UNL     1      40.564 -14.294   3.698  1.00  0.00     0.068 A 
HETATM    5  C   UNL     1      40.141 -14.864   2.498  1.00  0.00     0.039 A 
HETATM    6  C   UNL     1      39.815 -14.055   1.405  1.00  0.00     0.032 A 
ENDROOT
BRANCH   1   7
HETATM    7  N   UNL     1      39.619 -11.918   0.334  1.00  0.00    -0.309 N 
HETATM    8  C   UNL     1      40.459 -11.086  -0.353  1.00  0.00     0.321 C 
HETATM    9  N   UNL     1      39.989 -10.612  -1.536  1.00  0.00    -0.332 N 
HETATM   10  O   UNL     1      41.588 -10.748  -0.012  1.00  0.00    -0.247 OA
HETATM   11  H   UNL     1      40.652 -10.016  -2.021  1.00  0.00     0.165 HD
HETATM   12  H   UNL     1      38.684 -12.014  -0.022  1.00  0.00     0.170 HD
BRANCH   9  13
HETATM   13  C   UNL     1      38.730 -10.848  -2.237  1.00  0.00     0.155 C 
HETATM   14  C   UNL     1      38.697 -10.074  -3.551  1.00  0.00     0.041 C 
BRANCH  13  15
HETATM   15  C   UNL     1      38.581 -12.326  -2.467  1.00  0.00     0.169 A 
HETATM   16  N   UNL     1      37.621 -13.064  -1.889  1.00  0.00    -0.156 NA
HETATM   17  N   UNL     1      37.912 -14.293  -2.349  1.00  0.00    -0.270 N 
HETATM   18  H   UNL     1      37.341 -15.080  -2.063  1.00  0.00     0.190 HD
HETATM   19  C   UNL     1      38.994 -14.268  -3.169  1.00  0.00     0.227 A 
HETATM   20  N   UNL     1      39.442 -13.040  -3.271  1.00  0.00    -0.223 NA
ENDBRANCH  13  15
ENDBRANCH   9  13
ENDBRANCH   1   7
BRANCH   4  21
HETATM   21  O   UNL     1      40.896 -15.185   4.680  1.00  0.00    -0.351 OA
BRANCH  21  22
HETATM   22  C   UNL     1      41.462 -16.424   4.243  1.00  0.00     0.180 C 
BRANCH  22  23
HETATM   23  C   UNL     1      42.944 -16.198   3.891  1.00  0.00     0.010 C 
HETATM   24  C   UNL     1      43.895 -16.854   4.910  1.00  0.00     0.007 C 
HETATM   25  C   UNL     1      43.913 -18.379   4.810  1.00  0.00     0.000 C 
HETATM   26  C   UNL     1      44.220 -18.847   3.391  1.00  0.00     0.000 C 
HETATM   27  C   UNL     1      43.285 -18.217   2.363  1.00  0.00     0.000 C 
HETATM   28  C   UNL     1      43.264 -16.692   2.473  1.00  0.00     0.007 C 
ENDBRANCH  22  23
ENDBRANCH  21  22
ENDBRANCH   4  21
TORSDOF 6
ENDMDL
MODEL 10
REMARK VINA RESULT:      -7.1      1.970      3.355
REMARK  6 active torsions:
REMARK  status: ('A' for Active; 'I' for Inactive)
REMARK    1  A    between atoms: C_2  and  N_3 
REMARK    2  A    between atoms: C_2  and  C_21 
REMARK       I    between atoms: N_3  and  C_4 
REMARK       I    between atoms: C_4  and  N_5 
REMARK    3  A    between atoms: N_5  and  C_6 
REMARK    4  A    between atoms: C_9  and  O_10 
REMARK    5  A    between atoms: O_10  and  C_11 
REMARK    6  A    between atoms: C_11  and  C_12 
ROOT
HETATM    1  C   UNL     1      40.696 -13.928   0.655  1.00  0.00     0.036 A 
HETATM    2  C   UNL     1      41.855 -13.739   1.408  1.00  0.00     0.032 A 
HETATM    3  C   UNL     1      42.292 -14.721   2.309  1.00  0.00     0.039 A 
HETATM    4  C   UNL     1      41.579 -15.909   2.454  1.00  0.00     0.068 A 
HETATM    5  C   UNL     1      40.398 -16.085   1.734  1.00  0.00     0.039 A 
HETATM    6  C   UNL     1      39.960 -15.104   0.839  1.00  0.00     0.032 A 
ENDROOT
BRANCH   1   7
HETATM    7  N   UNL     1      40.224 -13.016  -0.312  1.00  0.00    -0.309 N 
HETATM    8  C   UNL     1      39.902 -11.698  -0.134  1.00  0.00     0.321 C 
HETATM    9  N   UNL     1      39.623 -10.997  -1.264  1.00  0.00    -0.332 N 
HETATM   10  O   UNL     1      39.862 -11.097   0.934  1.00  0.00    -0.247 OA
HETATM   11  H   UNL     1      39.410 -10.020  -1.088  1.00  0.00     0.165 HD
HETATM   12  H   UNL     1      40.109 -13.390  -1.237  1.00  0.00     0.170 HD
BRANCH   9  13
HETATM   13  C   UNL     1      39.623 -11.395  -2.669  1.00  0.00     0.155 C 
HETATM   14  C   UNL     1      41.052 -11.543  -3.182  1.00  0.00     0.041 C 
BRANCH  13  15
HETATM   15  C   UNL     1      38.854 -12.680  -2.802  1.00  0.00     0.169 A 
HETATM   16  N   UNL     1      37.597 -12.830  -2.360  1.00  0.00    -0.156 NA
HETATM   17  N   UNL     1      37.360 -14.120  -2.655  1.00  0.00    -0.270 N 
HETATM   18  H   UNL     1      36.462 -14.528  -2.420  1.00  0.00     0.190 HD
HETATM   19  C   UNL     1      38.436 -14.694  -3.254  1.00  0.00     0.227 A 
HETATM   20  N   UNL     1      39.399 -13.812  -3.367  1.00  0.00    -0.223 NA
ENDBRANCH  13  15
ENDBRANCH   9  13
ENDBRANCH   1   7
BRANCH   4  21
HETATM   21  O   UNL     1      41.927 -16.953   3.264  1.00  0.00    -0.351 OA
BRANCH  21  22
HETATM   22  C   UNL     1      43.162 -16.817   3.974  1.00  0.00     0.180 C 
BRANCH  22  23
HETATM   23  C   UNL     1      42.924 -17.154   5.457  1.00  0.00     0.010 C 
HETATM   24  C   UNL     1      44.124 -16.773   6.344  1.00  0.00     0.007 C 
HETATM   25  C   UNL     1      44.276 -15.263   6.521  1.00  0.00     0.000 C 
HETATM   26  C   UNL     1      42.989 -14.623   7.032  1.00  0.00     0.000 C 
HETATM   27  C   UNL     1      41.786 -14.979   6.164  1.00  0.00     0.000 C 
HETATM   28  C   UNL     1      41.643 -16.491   5.984  1.00  0.00     0.007 C 
ENDBRANCH  22  23
ENDBRANCH  21  22
ENDBRANCH   4  21
TORSDOF 6
ENDMDL
