MODEL 1
REMARK VINA RESULT:      -8.2      0.000      0.000
REMARK  8 active torsions:
REMARK  status: ('A' for Active; 'I' for Inactive)
REMARK    1  A    between atoms: O_2  and  C_3 
REMARK    2  A    between atoms: C_4  and  O_5 
REMARK    3  A    between atoms: C_6  and  C_7 
REMARK    4  A    between atoms: C_7  and  C_8 
REMARK    5  A    between atoms: C_11  and  C_12 
REMARK    6  A    between atoms: C_12  and  N_13 
REMARK    7  A    between atoms: C_16  and  N_17 
REMARK       I    between atoms: N_17  and  C_18 
REMARK       I    between atoms: C_18  and  N_19 
REMARK    8  A    between atoms: N_19  and  C_20 
ROOT
HETATM    1  N   UNL     1      43.767 -11.900   5.268  1.00  0.00    -0.065 N 
HETATM    2  H   UNL     1      43.784 -12.910   5.065  1.00  0.00     0.280 HD
HETATM    3  C   UNL     1      42.938 -11.752   6.538  1.00  0.00     0.260 C 
HETATM    4  C   UNL     1      43.857 -11.011   7.522  1.00  0.00     0.113 C 
HETATM    5  C   UNL     1      45.247 -11.482   7.118  1.00  0.00     0.054 C 
HETATM    6  C   UNL     1      45.179 -11.475   5.604  1.00  0.00     0.237 C 
ENDROOT
BRANCH   1   7
HETATM    7  C   UNL     1      43.214 -11.214   4.050  1.00  0.00     0.273 C 
BRANCH   7   8
HETATM    8  C   UNL     1      42.672 -12.167   3.019  1.00  0.00    -0.029 A 
HETATM    9  C   UNL     1      43.313 -13.395   2.789  1.00  0.00     0.019 A 
HETATM   10  C   UNL     1      42.809 -14.310   1.852  1.00  0.00    -0.018 A 
HETATM   11  C   UNL     1      41.640 -13.976   1.165  1.00  0.00     0.105 A 
HETATM   12  C   UNL     1      40.989 -12.751   1.364  1.00  0.00     0.102 A 
HETATM   13  C   UNL     1      41.510 -11.849   2.291  1.00  0.00     0.048 A 
BRANCH  10  14
HETATM   14  C   UNL     1      43.517 -15.628   1.630  1.00  0.00     0.068 C 
BRANCH  14  15
HETATM   15  C   UNL     1      43.106 -16.665   2.638  1.00  0.00    -0.032 C 
HETATM   16  C   UNL     1      42.764 -17.924   2.337  1.00  0.00     0.007 C 
ENDBRANCH  14  15
ENDBRANCH  10  14
BRANCH  11  17
HETATM   17  O   UNL     1      41.116 -14.868   0.266  1.00  0.00    -0.357 OA
HETATM   18  H   UNL     1      40.526 -14.349  -0.316  1.00  0.00     0.218 HD
ENDBRANCH  11  17
BRANCH  12  19
HETATM   19  O   UNL     1      39.859 -12.571   0.610  1.00  0.00    -0.353 OA
HETATM   20  C   UNL     1      39.912 -11.596  -0.425  1.00  0.00     0.210 C 
ENDBRANCH  12  19
ENDBRANCH   7   8
ENDBRANCH   1   7
BRANCH   4  21
HETATM   21  N   UNL     1      43.544 -11.169   8.929  1.00  0.00    -0.337 N 
HETATM   22  C   UNL     1      43.353 -10.088   9.769  1.00  0.00     0.321 C 
HETATM   23  N   UNL     1      43.040 -10.502  11.040  1.00  0.00    -0.309 N 
HETATM   24  O   UNL     1      43.484  -8.940   9.366  1.00  0.00    -0.247 OA
HETATM   25  H   UNL     1      43.270 -11.459  11.266  1.00  0.00     0.170 HD
HETATM   26  H   UNL     1      43.033 -12.001   9.199  1.00  0.00     0.164 HD
BRANCH  23  27
HETATM   27  C   UNL     1      42.625  -9.700  12.123  1.00  0.00     0.036 A 
HETATM   28  C   UNL     1      43.339  -8.590  12.582  1.00  0.00     0.032 A 
HETATM   29  C   UNL     1      42.845  -7.825  13.643  1.00  0.00     0.044 A 
HETATM   30  C   UNL     1      41.642  -8.171  14.243  1.00  0.00     0.116 A 
HETATM   31  F   UNL     1      41.171  -7.435  15.256  1.00  0.00    -0.206 F 
HETATM   32  C   UNL     1      40.918  -9.269  13.799  1.00  0.00     0.044 A 
HETATM   33  C   UNL     1      41.408 -10.031  12.736  1.00  0.00     0.032 A 
ENDBRANCH  23  27
ENDBRANCH   4  21
TORSDOF 8
ENDMDL
MODEL 2
REMARK VINA RESULT:      -8.1      1.409      1.462
REMARK  8 active torsions:
REMARK  status: ('A' for Active; 'I' for Inactive)
REMARK    1  A    between atoms: O_2  and  C_3 
REMARK    2  A    between atoms: C_4  and  O_5 
REMARK    3  A    between atoms: C_6  and  C_7 
REMARK    4  A    between atoms: C_7  and  C_8 
REMARK    5  A    between atoms: C_11  and  C_12 
REMARK    6  A    between atoms: C_12  and  N_13 
REMARK    7  A    between atoms: C_16  and  N_17 
REMARK       I    between atoms: N_17  and  C_18 
REMARK       I    between atoms: C_18  and  N_19 
REMARK    8  A    between atoms: N_19  and  C_20 
ROOT
HETATM    1  N   UNL     1      44.266 -12.166   5.719  1.00  0.00    -0.065 N 
HETATM    2  H   UNL     1      44.613 -13.135   5.655  1.00  0.00     0.280 HD
HETATM    3  C   UNL     1      43.366 -12.135   6.948  1.00  0.00     0.260 C 
HETATM    4  C   UNL     1      43.949 -11.022   7.833  1.00  0.00     0.113 C 
HETATM    5  C   UNL     1      45.436 -11.069   7.512  1.00  0.00     0.054 C 
HETATM    6  C   UNL     1      45.451 -11.272   6.010  1.00  0.00     0.237 C 
ENDROOT
BRANCH   1   7
HETATM    7  C   UNL     1      43.591 -11.850   4.414  1.00  0.00     0.273 C 
BRANCH   7   8
HETATM    8  C   UNL     1      42.538 -12.853   4.025  1.00  0.00    -0.029 A 
HETATM    9  C   UNL     1      42.824 -14.228   4.072  1.00  0.00     0.019 A 
HETATM   10  C   UNL     1      41.849 -15.181   3.740  1.00  0.00    -0.018 A 
HETATM   11  C   UNL     1      40.578 -14.729   3.379  1.00  0.00     0.105 A 
HETATM   12  C   UNL     1      40.270 -13.363   3.310  1.00  0.00     0.102 A 
HETATM   13  C   UNL     1      41.255 -12.429   3.632  1.00  0.00     0.048 A 
BRANCH  10  14
HETATM   14  C   UNL     1      42.183 -16.654   3.805  1.00  0.00     0.068 C 
BRANCH  14  15
HETATM   15  C   UNL     1      42.813 -17.146   2.532  1.00  0.00    -0.032 C 
HETATM   16  C   UNL     1      43.089 -18.429   2.266  1.00  0.00     0.007 C 
ENDBRANCH  14  15
ENDBRANCH  10  14
BRANCH  11  17
HETATM   17  O   UNL     1      39.604 -15.644   3.078  1.00  0.00    -0.357 OA
HETATM   18  H   UNL     1      38.799 -15.344   3.546  1.00  0.00     0.218 HD
ENDBRANCH  11  17
BRANCH  12  19
HETATM   19  O   UNL     1      38.983 -13.080   2.933  1.00  0.00    -0.353 OA
HETATM   20  C   UNL     1      38.753 -11.848   2.261  1.00  0.00     0.210 C 
ENDBRANCH  12  19
ENDBRANCH   7   8
ENDBRANCH   1   7
BRANCH   4  21
HETATM   21  N   UNL     1      43.627 -11.097   9.246  1.00  0.00    -0.337 N 
HETATM   22  C   UNL     1      43.531  -9.971  10.041  1.00  0.00     0.321 C 
HETATM   23  N   UNL     1      43.187 -10.306  11.328  1.00  0.00    -0.309 N 
HETATM   24  O   UNL     1      43.758  -8.855   9.593  1.00  0.00    -0.247 OA
HETATM   25  H   UNL     1      43.335 -11.269  11.592  1.00  0.00     0.170 HD
HETATM   26  H   UNL     1      43.048 -11.871   9.548  1.00  0.00     0.164 HD
BRANCH  23  27
HETATM   27  C   UNL     1      42.844  -9.429  12.377  1.00  0.00     0.036 A 
HETATM   28  C   UNL     1      43.531  -8.242  12.649  1.00  0.00     0.032 A 
HETATM   29  C   UNL     1      43.110  -7.408  13.690  1.00  0.00     0.044 A 
HETATM   30  C   UNL     1      42.006  -7.762  14.455  1.00  0.00     0.116 A 
HETATM   31  F   UNL     1      41.604  -6.960  15.448  1.00  0.00    -0.206 F 
HETATM   32  C   UNL     1      41.311  -8.935  14.198  1.00  0.00     0.044 A 
HETATM   33  C   UNL     1      41.728  -9.767  13.155  1.00  0.00     0.032 A 
ENDBRANCH  23  27
ENDBRANCH   4  21
TORSDOF 8
ENDMDL
MODEL 3
REMARK VINA RESULT:      -8.0      3.463      5.454
REMARK  8 active torsions:
REMARK  status: ('A' for Active; 'I' for Inactive)
REMARK    1  A    between atoms: O_2  and  C_3 
REMARK    2  A    between atoms: C_4  and  O_5 
REMARK    3  A    between atoms: C_6  and  C_7 
REMARK    4  A    between atoms: C_7  and  C_8 
REMARK    5  A    between atoms: C_11  and  C_12 
REMARK    6  A    between atoms: C_12  and  N_13 
REMARK    7  A    between atoms: C_16  and  N_17 
REMARK       I    between atoms: N_17  and  C_18 
REMARK       I    between atoms: C_18  and  N_19 
REMARK    8  A    between atoms: N_19  and  C_20 
ROOT
HETATM    1  N   UNL     1      40.660 -13.904   1.531  1.00  0.00    -0.065 N 
HETATM    2  H   UNL     1      40.921 -13.605   0.580  1.00  0.00     0.280 HD
HETATM    3  C   UNL     1      41.744 -13.350   2.447  1.00  0.00     0.260 C 
HETATM    4  C   UNL     1      40.987 -12.506   3.485  1.00  0.00     0.113 C 
HETATM    5  C   UNL     1      39.785 -11.994   2.704  1.00  0.00     0.054 C 
HETATM    6  C   UNL     1      39.368 -13.206   1.894  1.00  0.00     0.237 C 
ENDROOT
BRANCH   1   7
HETATM    7  C   UNL     1      40.538 -15.402   1.506  1.00  0.00     0.273 C 
BRANCH   7   8
HETATM    8  C   UNL     1      41.277 -16.083   2.628  1.00  0.00    -0.029 A 
HETATM    9  C   UNL     1      42.357 -16.934   2.345  1.00  0.00     0.019 A 
HETATM   10  C   UNL     1      43.077 -17.557   3.377  1.00  0.00    -0.018 A 
HETATM   11  C   UNL     1      42.702 -17.293   4.697  1.00  0.00     0.105 A 
HETATM   12  C   UNL     1      41.619 -16.460   5.006  1.00  0.00     0.102 A 
HETATM   13  C   UNL     1      40.908 -15.858   3.968  1.00  0.00     0.048 A 
BRANCH  10  14
HETATM   14  C   UNL     1      44.239 -18.464   3.044  1.00  0.00     0.068 C 
BRANCH  14  15
HETATM   15  C   UNL     1      43.805 -19.891   2.857  1.00  0.00    -0.032 C 
HETATM   16  C   UNL     1      43.460 -20.434   1.683  1.00  0.00     0.007 C 
ENDBRANCH  14  15
ENDBRANCH  10  14
BRANCH  11  17
HETATM   17  O   UNL     1      43.409 -17.869   5.719  1.00  0.00    -0.357 OA
HETATM   18  H   UNL     1      42.744 -18.219   6.344  1.00  0.00     0.218 HD
ENDBRANCH  11  17
BRANCH  12  19
HETATM   19  O   UNL     1      41.374 -16.307   6.346  1.00  0.00    -0.353 OA
HETATM   20  C   UNL     1      40.160 -15.667   6.721  1.00  0.00     0.210 C 
ENDBRANCH  12  19
ENDBRANCH   7   8
ENDBRANCH   1   7
BRANCH   4  21
HETATM   21  N   UNL     1      41.760 -11.479   4.158  1.00  0.00    -0.337 N 
HETATM   22  C   UNL     1      42.223 -11.632   5.450  1.00  0.00     0.321 C 
HETATM   23  N   UNL     1      42.949 -10.536   5.846  1.00  0.00    -0.309 N 
HETATM   24  O   UNL     1      41.962 -12.632   6.105  1.00  0.00    -0.247 OA
HETATM   25  H   UNL     1      42.811  -9.693   5.307  1.00  0.00     0.170 HD
HETATM   26  H   UNL     1      42.333 -10.877   3.578  1.00  0.00     0.164 HD
BRANCH  23  27
HETATM   27  C   UNL     1      43.706 -10.392   7.026  1.00  0.00     0.036 A 
HETATM   28  C   UNL     1      45.018 -10.852   7.165  1.00  0.00     0.032 A 
HETATM   29  C   UNL     1      45.715 -10.643   8.360  1.00  0.00     0.044 A 
HETATM   30  C   UNL     1      45.098  -9.977   9.411  1.00  0.00     0.116 A 
HETATM   31  F   UNL     1      45.768  -9.777  10.552  1.00  0.00    -0.206 F 
HETATM   32  C   UNL     1      43.797  -9.512   9.291  1.00  0.00     0.044 A 
HETATM   33  C   UNL     1      43.102  -9.716   8.096  1.00  0.00     0.032 A 
ENDBRANCH  23  27
ENDBRANCH   4  21
TORSDOF 8
ENDMDL
MODEL 4
REMARK VINA RESULT:      -7.9      2.814      4.480
REMARK  8 active torsions:
REMARK  status: ('A' for Active; 'I' for Inactive)
REMARK    1  A    between atoms: O_2  and  C_3 
REMARK    2  A    between atoms: C_4  and  O_5 
REMARK    3  A    between atoms: C_6  and  C_7 
REMARK    4  A    between atoms: C_7  and  C_8 
REMARK    5  A    between atoms: C_11  and  C_12 
REMARK    6  A    between atoms: C_12  and  N_13 
REMARK    7  A    between atoms: C_16  and  N_17 
REMARK       I    between atoms: N_17  and  C_18 
REMARK       I    between atoms: C_18  and  N_19 
REMARK    8  A    between atoms: N_19  and  C_20 
ROOT
HETATM    1  N   UNL     1      42.539 -13.096   2.785  1.00  0.00    -0.065 N 
HETATM    2  H   UNL     1      43.306 -13.213   2.107  1.00  0.00     0.280 HD
HETATM    3  C   UNL     1      43.215 -12.848   4.128  1.00  0.00     0.260 C 
HETATM    4  C   UNL     1      42.637 -11.512   4.618  1.00  0.00     0.113 C 
HETATM    5  C   UNL     1      42.365 -10.758   3.324  1.00  0.00     0.054 C 
HETATM    6  C   UNL     1      41.792 -11.832   2.421  1.00  0.00     0.237 C 
ENDROOT
BRANCH   1   7
HETATM    7  C   UNL     1      41.687 -14.332   2.708  1.00  0.00     0.273 C 
BRANCH   7   8
HETATM    8  C   UNL     1      42.196 -15.465   3.558  1.00  0.00    -0.029 A 
HETATM    9  C   UNL     1      42.935 -16.507   2.974  1.00  0.00     0.019 A 
HETATM   10  C   UNL     1      43.442 -17.559   3.752  1.00  0.00    -0.018 A 
HETATM   11  C   UNL     1      43.209 -17.534   5.129  1.00  0.00     0.105 A 
HETATM   12  C   UNL     1      42.463 -16.515   5.735  1.00  0.00     0.102 A 
HETATM   13  C   UNL     1      41.957 -15.484   4.945  1.00  0.00     0.048 A 
BRANCH  10  14
HETATM   14  C   UNL     1      44.240 -18.664   3.097  1.00  0.00     0.068 C 
BRANCH  14  15
HETATM   15  C   UNL     1      43.355 -19.755   2.561  1.00  0.00    -0.032 C 
HETATM   16  C   UNL     1      43.679 -20.567   1.547  1.00  0.00     0.007 C 
ENDBRANCH  14  15
ENDBRANCH  10  14
BRANCH  11  17
HETATM   17  O   UNL     1      43.720 -18.537   5.911  1.00  0.00    -0.357 OA
HETATM   18  H   UNL     1      44.283 -19.077   5.322  1.00  0.00     0.218 HD
ENDBRANCH  11  17
BRANCH  12  19
HETATM   19  O   UNL     1      42.318 -16.637   7.093  1.00  0.00    -0.353 OA
HETATM   20  C   UNL     1      42.943 -15.654   7.909  1.00  0.00     0.210 C 
ENDBRANCH  12  19
ENDBRANCH   7   8
ENDBRANCH   1   7
BRANCH   4  21
HETATM   21  N   UNL     1      43.436 -10.789   5.589  1.00  0.00    -0.337 N 
HETATM   22  C   UNL     1      42.921 -10.362   6.798  1.00  0.00     0.321 C 
HETATM   23  N   UNL     1      43.882  -9.731   7.548  1.00  0.00    -0.309 N 
HETATM   24  O   UNL     1      41.745 -10.540   7.085  1.00  0.00    -0.247 OA
HETATM   25  H   UNL     1      44.697  -9.408   7.046  1.00  0.00     0.170 HD
HETATM   26  H   UNL     1      44.431 -10.981   5.605  1.00  0.00     0.164 HD
BRANCH  23  27
HETATM   27  C   UNL     1      43.779  -9.305   8.887  1.00  0.00     0.036 A 
HETATM   28  C   UNL     1      43.289  -8.052   9.265  1.00  0.00     0.032 A 
HETATM   29  C   UNL     1      43.188  -7.714  10.619  1.00  0.00     0.044 A 
HETATM   30  C   UNL     1      43.578  -8.627  11.589  1.00  0.00     0.116 A 
HETATM   31  F   UNL     1      43.477  -8.302  12.883  1.00  0.00    -0.206 F 
HETATM   32  C   UNL     1      44.065  -9.877  11.233  1.00  0.00     0.044 A 
HETATM   33  C   UNL     1      44.162 -10.217   9.881  1.00  0.00     0.032 A 
ENDBRANCH  23  27
ENDBRANCH   4  21
TORSDOF 8
ENDMDL
MODEL 5
REMARK VINA RESULT:      -7.6      6.110      9.937
REMARK  8 active torsions:
REMARK  status: ('A' for Active; 'I' for Inactive)
REMARK    1  A    between atoms: O_2  and  C_3 
REMARK    2  A    between atoms: C_4  and  O_5 
REMARK    3  A    between atoms: C_6  and  C_7 
REMARK    4  A    between atoms: C_7  and  C_8 
REMARK    5  A    between atoms: C_11  and  C_12 
REMARK    6  A    between atoms: C_12  and  N_13 
REMARK    7  A    between atoms: C_16  and  N_17 
REMARK       I    between atoms: N_17  and  C_18 
REMARK       I    between atoms: C_18  and  N_19 
REMARK    8  A    between atoms: N_19  and  C_20 
ROOT
HETATM    1  N   UNL     1      40.979 -14.765   1.325  1.00  0.00    -0.065 N 
HETATM    2  H   UNL     1      41.740 -15.443   1.173  1.00  0.00     0.280 HD
HETATM    3  C   UNL     1      41.532 -13.421   0.867  1.00  0.00     0.260 C 
HETATM    4  C   UNL     1      40.536 -12.928  -0.193  1.00  0.00     0.113 C 
HETATM    5  C   UNL     1      40.024 -14.219  -0.814  1.00  0.00     0.054 C 
HETATM    6  C   UNL     1      39.848 -15.126   0.388  1.00  0.00     0.237 C 
ENDROOT
BRANCH   1   7
HETATM    7  C   UNL     1      40.596 -14.846   2.777  1.00  0.00     0.273 C 
BRANCH   7   8
HETATM    8  C   UNL     1      41.683 -15.410   3.652  1.00  0.00    -0.029 A 
HETATM    9  C   UNL     1      42.285 -16.636   3.327  1.00  0.00     0.019 A 
HETATM   10  C   UNL     1      43.319 -17.166   4.115  1.00  0.00    -0.018 A 
HETATM   11  C   UNL     1      43.748 -16.432   5.223  1.00  0.00     0.105 A 
HETATM   12  C   UNL     1      43.155 -15.213   5.579  1.00  0.00     0.102 A 
HETATM   13  C   UNL     1      42.121 -14.708   4.792  1.00  0.00     0.048 A 
BRANCH  10  14
HETATM   14  C   UNL     1      43.954 -18.485   3.737  1.00  0.00     0.068 C 
BRANCH  14  15
HETATM   15  C   UNL     1      43.477 -18.976   2.398  1.00  0.00    -0.032 C 
HETATM   16  C   UNL     1      43.337 -20.265   2.066  1.00  0.00     0.007 C 
ENDBRANCH  14  15
ENDBRANCH  10  14
BRANCH  11  17
HETATM   17  O   UNL     1      44.775 -16.918   5.989  1.00  0.00    -0.357 OA
HETATM   18  H   UNL     1      44.941 -16.244   6.677  1.00  0.00     0.218 HD
ENDBRANCH  11  17
BRANCH  12  19
HETATM   19  O   UNL     1      43.683 -14.620   6.695  1.00  0.00    -0.353 OA
HETATM   20  C   UNL     1      43.887 -13.213   6.654  1.00  0.00     0.210 C 
ENDBRANCH  12  19
ENDBRANCH   7   8
ENDBRANCH   1   7
BRANCH   4  21
HETATM   21  N   UNL     1      41.043 -11.953  -1.141  1.00  0.00    -0.337 N 
HETATM   22  C   UNL     1      40.986 -10.594  -0.904  1.00  0.00     0.321 C 
HETATM   23  N   UNL     1      41.556  -9.890  -1.936  1.00  0.00    -0.309 N 
HETATM   24  O   UNL     1      40.460 -10.147   0.106  1.00  0.00    -0.247 OA
HETATM   25  H   UNL     1      41.662 -10.387  -2.808  1.00  0.00     0.170 HD
HETATM   26  H   UNL     1      41.815 -12.241  -1.732  1.00  0.00     0.164 HD
BRANCH  23  27
HETATM   27  C   UNL     1      41.824  -8.507  -1.982  1.00  0.00     0.036 A 
HETATM   28  C   UNL     1      40.879  -7.547  -2.353  1.00  0.00     0.032 A 
HETATM   29  C   UNL     1      41.213  -6.189  -2.344  1.00  0.00     0.044 A 
HETATM   30  C   UNL     1      42.489  -5.794  -1.965  1.00  0.00     0.116 A 
HETATM   31  F   UNL     1      42.805  -4.494  -1.955  1.00  0.00    -0.206 F 
HETATM   32  C   UNL     1      43.441  -6.733  -1.592  1.00  0.00     0.044 A 
HETATM   33  C   UNL     1      43.107  -8.090  -1.596  1.00  0.00     0.032 A 
ENDBRANCH  23  27
ENDBRANCH   4  21
TORSDOF 8
ENDMDL
MODEL 6
REMARK VINA RESULT:      -7.6      4.248      9.933
REMARK  8 active torsions:
REMARK  status: ('A' for Active; 'I' for Inactive)
REMARK    1  A    between atoms: O_2  and  C_3 
REMARK    2  A    between atoms: C_4  and  O_5 
REMARK    3  A    between atoms: C_6  and  C_7 
REMARK    4  A    between atoms: C_7  and  C_8 
REMARK    5  A    between atoms: C_11  and  C_12 
REMARK    6  A    between atoms: C_12  and  N_13 
REMARK    7  A    between atoms: C_16  and  N_17 
REMARK       I    between atoms: N_17  and  C_18 
REMARK       I    between atoms: C_18  and  N_19 
REMARK    8  A    between atoms: N_19  and  C_20 
ROOT
HETATM    1  N   UNL     1      40.131  -9.799   6.616  1.00  0.00    -0.065 N 
HETATM    2  H   UNL     1      39.427  -9.822   7.368  1.00  0.00     0.280 HD
HETATM    3  C   UNL     1      40.656 -11.225   6.504  1.00  0.00     0.260 C 
HETATM    4  C   UNL     1      40.424 -11.614   5.036  1.00  0.00     0.113 C 
HETATM    5  C   UNL     1      39.174 -10.829   4.663  1.00  0.00     0.054 C 
HETATM    6  C   UNL     1      39.412  -9.484   5.322  1.00  0.00     0.237 C 
ENDROOT
BRANCH   1   7
HETATM    7  C   UNL     1      41.150  -8.761   6.994  1.00  0.00     0.273 C 
BRANCH   7   8
HETATM    8  C   UNL     1      42.215  -9.279   7.924  1.00  0.00    -0.029 A 
HETATM    9  C   UNL     1      42.046  -9.180   9.314  1.00  0.00     0.019 A 
HETATM   10  C   UNL     1      43.014  -9.681  10.199  1.00  0.00    -0.018 A 
HETATM   11  C   UNL     1      44.145 -10.299   9.660  1.00  0.00     0.105 A 
HETATM   12  C   UNL     1      44.346 -10.398   8.277  1.00  0.00     0.102 A 
HETATM   13  C   UNL     1      43.379  -9.885   7.413  1.00  0.00     0.048 A 
BRANCH  10  14
HETATM   14  C   UNL     1      42.802  -9.566  11.691  1.00  0.00     0.068 C 
BRANCH  14  15
HETATM   15  C   UNL     1      43.499  -8.366  12.269  1.00  0.00    -0.032 C 
HETATM   16  C   UNL     1      43.153  -7.762  13.413  1.00  0.00     0.007 C 
ENDBRANCH  14  15
ENDBRANCH  10  14
BRANCH  11  17
HETATM   17  O   UNL     1      45.088 -10.820  10.506  1.00  0.00    -0.357 OA
HETATM   18  H   UNL     1      45.326 -10.098  11.121  1.00  0.00     0.218 HD
ENDBRANCH  11  17
BRANCH  12  19
HETATM   19  O   UNL     1      45.507 -11.025   7.907  1.00  0.00    -0.353 OA
HETATM   20  C   UNL     1      45.586 -11.526   6.578  1.00  0.00     0.210 C 
ENDBRANCH  12  19
ENDBRANCH   7   8
ENDBRANCH   1   7
BRANCH   4  21
HETATM   21  N   UNL     1      40.357 -13.036   4.756  1.00  0.00    -0.337 N 
HETATM   22  C   UNL     1      41.449 -13.753   4.307  1.00  0.00     0.321 C 
HETATM   23  N   UNL     1      41.135 -15.080   4.146  1.00  0.00    -0.309 N 
HETATM   24  O   UNL     1      42.519 -13.204   4.081  1.00  0.00    -0.247 OA
HETATM   25  H   UNL     1      40.152 -15.300   4.084  1.00  0.00     0.170 HD
HETATM   26  H   UNL     1      39.692 -13.583   5.292  1.00  0.00     0.164 HD
BRANCH  23  27
HETATM   27  C   UNL     1      42.020 -16.138   3.858  1.00  0.00     0.036 A 
HETATM   28  C   UNL     1      42.956 -16.634   4.769  1.00  0.00     0.032 A 
HETATM   29  C   UNL     1      43.779 -17.710   4.419  1.00  0.00     0.044 A 
HETATM   30  C   UNL     1      43.665 -18.285   3.160  1.00  0.00     0.116 A 
HETATM   31  F   UNL     1      44.452 -19.316   2.829  1.00  0.00    -0.206 F 
HETATM   32  C   UNL     1      42.740 -17.807   2.243  1.00  0.00     0.044 A 
HETATM   33  C   UNL     1      41.914 -16.736   2.594  1.00  0.00     0.032 A 
ENDBRANCH  23  27
ENDBRANCH   4  21
TORSDOF 8
ENDMDL
MODEL 7
REMARK VINA RESULT:      -7.6      2.227      3.112
REMARK  8 active torsions:
REMARK  status: ('A' for Active; 'I' for Inactive)
REMARK    1  A    between atoms: O_2  and  C_3 
REMARK    2  A    between atoms: C_4  and  O_5 
REMARK    3  A    between atoms: C_6  and  C_7 
REMARK    4  A    between atoms: C_7  and  C_8 
REMARK    5  A    between atoms: C_11  and  C_12 
REMARK    6  A    between atoms: C_12  and  N_13 
REMARK    7  A    between atoms: C_16  and  N_17 
REMARK       I    between atoms: N_17  and  C_18 
REMARK       I    between atoms: C_18  and  N_19 
REMARK    8  A    between atoms: N_19  and  C_20 
ROOT
HETATM    1  N   UNL     1      43.313 -13.300   6.069  1.00  0.00    -0.065 N 
HETATM    2  H   UNL     1      44.223 -13.749   5.887  1.00  0.00     0.280 HD
HETATM    3  C   UNL     1      43.493 -12.526   7.370  1.00  0.00     0.260 C 
HETATM    4  C   UNL     1      43.112 -11.079   7.021  1.00  0.00     0.113 C 
HETATM    5  C   UNL     1      43.518 -10.958   5.559  1.00  0.00     0.054 C 
HETATM    6  C   UNL     1      43.074 -12.284   4.974  1.00  0.00     0.237 C 
ENDROOT
BRANCH   1   7
HETATM    7  C   UNL     1      42.280 -14.391   6.102  1.00  0.00     0.273 C 
BRANCH   7   8
HETATM    8  C   UNL     1      42.437 -15.398   4.995  1.00  0.00    -0.029 A 
HETATM    9  C   UNL     1      43.346 -16.459   5.131  1.00  0.00     0.019 A 
HETATM   10  C   UNL     1      43.488 -17.425   4.122  1.00  0.00    -0.018 A 
HETATM   11  C   UNL     1      42.687 -17.315   2.984  1.00  0.00     0.105 A 
HETATM   12  C   UNL     1      41.782 -16.258   2.816  1.00  0.00     0.102 A 
HETATM   13  C   UNL     1      41.662 -15.301   3.823  1.00  0.00     0.048 A 
BRANCH  10  14
HETATM   14  C   UNL     1      44.471 -18.560   4.300  1.00  0.00     0.068 C 
BRANCH  14  15
HETATM   15  C   UNL     1      43.991 -19.569   5.306  1.00  0.00    -0.032 C 
HETATM   16  C   UNL     1      44.254 -20.880   5.254  1.00  0.00     0.007 C 
ENDBRANCH  14  15
ENDBRANCH  10  14
BRANCH  11  17
HETATM   17  O   UNL     1      42.790 -18.262   2.000  1.00  0.00    -0.357 OA
HETATM   18  H   UNL     1      42.282 -17.917   1.239  1.00  0.00     0.218 HD
ENDBRANCH  11  17
BRANCH  12  19
HETATM   19  O   UNL     1      41.074 -16.286   1.643  1.00  0.00    -0.353 OA
HETATM   20  C   UNL     1      41.000 -15.080   0.893  1.00  0.00     0.210 C 
ENDBRANCH  12  19
ENDBRANCH   7   8
ENDBRANCH   1   7
BRANCH   4  21
HETATM   21  N   UNL     1      43.650 -10.051   7.891  1.00  0.00    -0.337 N 
HETATM   22  C   UNL     1      42.888  -9.436   8.866  1.00  0.00     0.321 C 
HETATM   23  N   UNL     1      43.634  -8.524   9.571  1.00  0.00    -0.309 N 
HETATM   24  O   UNL     1      41.703  -9.706   9.011  1.00  0.00    -0.247 OA
HETATM   25  H   UNL     1      44.489  -8.214   9.132  1.00  0.00     0.170 HD
HETATM   26  H   UNL     1      44.640 -10.094   8.102  1.00  0.00     0.164 HD
BRANCH  23  27
HETATM   27  C   UNL     1      43.253  -7.823  10.733  1.00  0.00     0.036 A 
HETATM   28  C   UNL     1      42.591  -6.592  10.712  1.00  0.00     0.032 A 
HETATM   29  C   UNL     1      42.217  -5.973  11.909  1.00  0.00     0.044 A 
HETATM   30  C   UNL     1      42.506  -6.584  13.122  1.00  0.00     0.116 A 
HETATM   31  F   UNL     1      42.145  -5.990  14.265  1.00  0.00    -0.206 F 
HETATM   32  C   UNL     1      43.161  -7.807  13.162  1.00  0.00     0.044 A 
HETATM   33  C   UNL     1      43.531  -8.429  11.967  1.00  0.00     0.032 A 
ENDBRANCH  23  27
ENDBRANCH   4  21
TORSDOF 8
ENDMDL
MODEL 8
REMARK VINA RESULT:      -7.5      6.371      8.405
REMARK  8 active torsions:
REMARK  status: ('A' for Active; 'I' for Inactive)
REMARK    1  A    between atoms: O_2  and  C_3 
REMARK    2  A    between atoms: C_4  and  O_5 
REMARK    3  A    between atoms: C_6  and  C_7 
REMARK    4  A    between atoms: C_7  and  C_8 
REMARK    5  A    between atoms: C_11  and  C_12 
REMARK    6  A    between atoms: C_12  and  N_13 
REMARK    7  A    between atoms: C_16  and  N_17 
REMARK       I    between atoms: N_17  and  C_18 
REMARK       I    between atoms: C_18  and  N_19 
REMARK    8  A    between atoms: N_19  and  C_20 
ROOT
HETATM    1  N   UNL     1      40.417 -11.060   4.255  1.00  0.00    -0.065 N 
HETATM    2  H   UNL     1      40.815 -10.322   4.856  1.00  0.00     0.280 HD
HETATM    3  C   UNL     1      41.592 -11.946   3.864  1.00  0.00     0.260 C 
HETATM    4  C   UNL     1      41.185 -13.358   4.314  1.00  0.00     0.113 C 
HETATM    5  C   UNL     1      40.316 -13.094   5.535  1.00  0.00     0.054 C 
HETATM    6  C   UNL     1      39.489 -11.896   5.109  1.00  0.00     0.237 C 
ENDROOT
BRANCH   1   7
HETATM    7  C   UNL     1      39.716 -10.373   3.116  1.00  0.00     0.273 C 
BRANCH   7   8
HETATM    8  C   UNL     1      40.218 -10.795   1.762  1.00  0.00    -0.029 A 
HETATM    9  C   UNL     1      39.807 -12.018   1.207  1.00  0.00     0.019 A 
HETATM   10  C   UNL     1      40.242 -12.419  -0.066  1.00  0.00    -0.018 A 
HETATM   11  C   UNL     1      41.082 -11.560  -0.778  1.00  0.00     0.105 A 
HETATM   12  C   UNL     1      41.520 -10.341  -0.243  1.00  0.00     0.102 A 
HETATM   13  C   UNL     1      41.087  -9.964   1.029  1.00  0.00     0.048 A 
BRANCH  10  14
HETATM   14  C   UNL     1      39.777 -13.738  -0.640  1.00  0.00     0.068 C 
BRANCH  14  15
HETATM   15  C   UNL     1      39.993 -14.876   0.318  1.00  0.00    -0.032 C 
HETATM   16  C   UNL     1      41.171 -15.194   0.868  1.00  0.00     0.007 C 
ENDBRANCH  14  15
ENDBRANCH  10  14
BRANCH  11  17
HETATM   17  O   UNL     1      41.495 -11.919  -2.034  1.00  0.00    -0.357 OA
HETATM   18  H   UNL     1      40.766 -11.674  -2.637  1.00  0.00     0.218 HD
ENDBRANCH  11  17
BRANCH  12  19
HETATM   19  O   UNL     1      42.345  -9.615  -1.062  1.00  0.00    -0.353 OA
HETATM   20  C   UNL     1      41.885  -8.339  -1.489  1.00  0.00     0.210 C 
ENDBRANCH  12  19
ENDBRANCH   7   8
ENDBRANCH   1   7
BRANCH   4  21
HETATM   21  N   UNL     1      42.270 -14.297   4.529  1.00  0.00    -0.337 N 
HETATM   22  C   UNL     1      42.111 -15.659   4.368  1.00  0.00     0.321 C 
HETATM   23  N   UNL     1      43.290 -16.324   4.601  1.00  0.00    -0.309 N 
HETATM   24  O   UNL     1      41.025 -16.142   4.076  1.00  0.00    -0.247 OA
HETATM   25  H   UNL     1      43.993 -15.815   5.117  1.00  0.00     0.170 HD
HETATM   26  H   UNL     1      43.211 -13.964   4.354  1.00  0.00     0.164 HD
BRANCH  23  27
HETATM   27  C   UNL     1      43.558 -17.690   4.383  1.00  0.00     0.036 A 
HETATM   28  C   UNL     1      43.843 -18.596   5.408  1.00  0.00     0.032 A 
HETATM   29  C   UNL     1      44.068 -19.945   5.114  1.00  0.00     0.044 A 
HETATM   30  C   UNL     1      44.010 -20.383   3.798  1.00  0.00     0.116 A 
HETATM   31  F   UNL     1      44.223 -21.675   3.520  1.00  0.00    -0.206 F 
HETATM   32  C   UNL     1      43.727 -19.499   2.767  1.00  0.00     0.044 A 
HETATM   33  C   UNL     1      43.496 -18.152   3.060  1.00  0.00     0.032 A 
ENDBRANCH  23  27
ENDBRANCH   4  21
TORSDOF 8
ENDMDL
MODEL 9
REMARK VINA RESULT:      -7.3      5.854      8.446
REMARK  8 active torsions:
REMARK  status: ('A' for Active; 'I' for Inactive)
REMARK    1  A    between atoms: O_2  and  C_3 
REMARK    2  A    between atoms: C_4  and  O_5 
REMARK    3  A    between atoms: C_6  and  C_7 
REMARK    4  A    between atoms: C_7  and  C_8 
REMARK    5  A    between atoms: C_11  and  C_12 
REMARK    6  A    between atoms: C_12  and  N_13 
REMARK    7  A    between atoms: C_16  and  N_17 
REMARK       I    between atoms: N_17  and  C_18 
REMARK       I    between atoms: C_18  and  N_19 
REMARK    8  A    between atoms: N_19  and  C_20 
ROOT
HETATM    1  N   UNL     1      41.947 -13.351   6.400  1.00  0.00    -0.065 N 
HETATM    2  H   UNL     1      41.761 -12.891   7.303  1.00  0.00     0.280 HD
HETATM    3  C   UNL     1      41.289 -12.468   5.348  1.00  0.00     0.260 C 
HETATM    4  C   UNL     1      42.419 -12.115   4.368  1.00  0.00     0.113 C 
HETATM    5  C   UNL     1      43.654 -12.098   5.258  1.00  0.00     0.054 C 
HETATM    6  C   UNL     1      43.439 -13.301   6.156  1.00  0.00     0.237 C 
ENDROOT
BRANCH   1   7
HETATM    7  C   UNL     1      41.409 -14.752   6.498  1.00  0.00     0.273 C 
BRANCH   7   8
HETATM    8  C   UNL     1      41.805 -15.627   5.339  1.00  0.00    -0.029 A 
HETATM    9  C   UNL     1      42.861 -16.543   5.476  1.00  0.00     0.019 A 
HETATM   10  C   UNL     1      43.228 -17.388   4.417  1.00  0.00    -0.018 A 
HETATM   11  C   UNL     1      42.502 -17.309   3.226  1.00  0.00     0.105 A 
HETATM   12  C   UNL     1      41.453 -16.394   3.058  1.00  0.00     0.102 A 
HETATM   13  C   UNL     1      41.110 -15.554   4.116  1.00  0.00     0.048 A 
BRANCH  10  14
HETATM   14  C   UNL     1      44.365 -18.368   4.595  1.00  0.00     0.068 C 
BRANCH  14  15
HETATM   15  C   UNL     1      43.939 -19.593   5.357  1.00  0.00    -0.032 C 
HETATM   16  C   UNL     1      44.420 -20.824   5.147  1.00  0.00     0.007 C 
ENDBRANCH  14  15
ENDBRANCH  10  14
BRANCH  11  17
HETATM   17  O   UNL     1      42.826 -18.145   2.190  1.00  0.00    -0.357 OA
HETATM   18  H   UNL     1      42.325 -17.820   1.415  1.00  0.00     0.218 HD
ENDBRANCH  11  17
BRANCH  12  19
HETATM   19  O   UNL     1      40.845 -16.435   1.830  1.00  0.00    -0.353 OA
HETATM   20  C   UNL     1      40.051 -15.316   1.456  1.00  0.00     0.210 C 
ENDBRANCH  12  19
ENDBRANCH   7   8
ENDBRANCH   1   7
BRANCH   4  21
HETATM   21  N   UNL     1      42.224 -10.918   3.573  1.00  0.00    -0.337 N 
HETATM   22  C   UNL     1      41.890 -10.968   2.233  1.00  0.00     0.321 C 
HETATM   23  N   UNL     1      41.733  -9.705   1.718  1.00  0.00    -0.309 N 
HETATM   24  O   UNL     1      41.786 -12.035   1.644  1.00  0.00    -0.247 OA
HETATM   25  H   UNL     1      42.146  -8.953   2.250  1.00  0.00     0.170 HD
HETATM   26  H   UNL     1      41.889 -10.091   4.055  1.00  0.00     0.164 HD
BRANCH  23  27
HETATM   27  C   UNL     1      41.244  -9.357   0.442  1.00  0.00     0.036 A 
HETATM   28  C   UNL     1      42.017  -9.399  -0.721  1.00  0.00     0.032 A 
HETATM   29  C   UNL     1      41.450  -9.068  -1.956  1.00  0.00     0.044 A 
HETATM   30  C   UNL     1      40.114  -8.695  -2.024  1.00  0.00     0.116 A 
HETATM   31  F   UNL     1      39.574  -8.381  -3.208  1.00  0.00    -0.206 F 
HETATM   32  C   UNL     1      39.331  -8.649  -0.880  1.00  0.00     0.044 A 
HETATM   33  C   UNL     1      39.895  -8.984   0.353  1.00  0.00     0.032 A 
ENDBRANCH  23  27
ENDBRANCH   4  21
TORSDOF 8
ENDMDL
MODEL 10
REMARK VINA RESULT:      -7.2      6.607     10.604
REMARK  8 active torsions:
REMARK  status: ('A' for Active; 'I' for Inactive)
REMARK    1  A    between atoms: O_2  and  C_3 
REMARK    2  A    between atoms: C_4  and  O_5 
REMARK    3  A    between atoms: C_6  and  C_7 
REMARK    4  A    between atoms: C_7  and  C_8 
REMARK    5  A    between atoms: C_11  and  C_12 
REMARK    6  A    between atoms: C_12  and  N_13 
REMARK    7  A    between atoms: C_16  and  N_17 
REMARK       I    between atoms: N_17  and  C_18 
REMARK       I    between atoms: C_18  and  N_19 
REMARK    8  A    between atoms: N_19  and  C_20 
ROOT
HETATM    1  N   UNL     1      40.673 -14.857   0.873  1.00  0.00    -0.065 N 
HETATM    2  H   UNL     1      41.606 -15.156   0.551  1.00  0.00     0.280 HD
HETATM    3  C   UNL     1      40.807 -13.375   1.195  1.00  0.00     0.260 C 
HETATM    4  C   UNL     1      39.732 -12.688   0.339  1.00  0.00     0.113 C 
HETATM    5  C   UNL     1      39.645 -13.583  -0.889  1.00  0.00     0.054 C 
HETATM    6  C   UNL     1      39.723 -14.977  -0.298  1.00  0.00     0.237 C 
ENDROOT
BRANCH   1   7
HETATM    7  C   UNL     1      40.301 -15.741   2.031  1.00  0.00     0.273 C 
BRANCH   7   8
HETATM    8  C   UNL     1      41.490 -16.296   2.768  1.00  0.00    -0.029 A 
HETATM    9  C   UNL     1      41.904 -15.714   3.978  1.00  0.00     0.019 A 
HETATM   10  C   UNL     1      42.993 -16.234   4.695  1.00  0.00    -0.018 A 
HETATM   11  C   UNL     1      43.646 -17.357   4.184  1.00  0.00     0.105 A 
HETATM   12  C   UNL     1      43.263 -17.948   2.972  1.00  0.00     0.102 A 
HETATM   13  C   UNL     1      42.186 -17.412   2.267  1.00  0.00     0.048 A 
BRANCH  10  14
HETATM   14  C   UNL     1      43.412 -15.591   5.998  1.00  0.00     0.068 C 
BRANCH  14  15
HETATM   15  C   UNL     1      43.160 -14.109   6.001  1.00  0.00    -0.032 C 
HETATM   16  C   UNL     1      43.829 -13.225   6.752  1.00  0.00     0.007 C 
ENDBRANCH  14  15
ENDBRANCH  10  14
BRANCH  11  17
HETATM   17  O   UNL     1      44.694 -17.896   4.882  1.00  0.00    -0.357 OA
HETATM   18  H   UNL     1      45.380 -18.107   4.219  1.00  0.00     0.218 HD
ENDBRANCH  11  17
BRANCH  12  19
HETATM   19  O   UNL     1      44.007 -19.039   2.602  1.00  0.00    -0.353 OA
HETATM   20  C   UNL     1      43.304 -20.176   2.117  1.00  0.00     0.210 C 
ENDBRANCH  12  19
ENDBRANCH   7   8
ENDBRANCH   1   7
BRANCH   4  21
HETATM   21  N   UNL     1      39.944 -11.281   0.055  1.00  0.00    -0.337 N 
HETATM   22  C   UNL     1      40.847 -10.848  -0.896  1.00  0.00     0.321 C 
HETATM   23  N   UNL     1      40.840  -9.479  -0.994  1.00  0.00    -0.309 N 
HETATM   24  O   UNL     1      41.545 -11.639  -1.516  1.00  0.00    -0.247 OA
HETATM   25  H   UNL     1      40.438  -8.979  -0.214  1.00  0.00     0.170 HD
HETATM   26  H   UNL     1      39.160 -10.656   0.200  1.00  0.00     0.164 HD
BRANCH  23  27
HETATM   27  C   UNL     1      41.502  -8.687  -1.954  1.00  0.00     0.036 A 
HETATM   28  C   UNL     1      42.638  -7.921  -1.675  1.00  0.00     0.032 A 
HETATM   29  C   UNL     1      43.258  -7.185  -2.690  1.00  0.00     0.044 A 
HETATM   30  C   UNL     1      42.741  -7.215  -3.978  1.00  0.00     0.116 A 
HETATM   31  F   UNL     1      43.338  -6.511  -4.948  1.00  0.00    -0.206 F 
HETATM   32  C   UNL     1      41.615  -7.970  -4.274  1.00  0.00     0.044 A 
HETATM   33  C   UNL     1      40.998  -8.710  -3.262  1.00  0.00     0.032 A 
ENDBRANCH  23  27
ENDBRANCH   4  21
TORSDOF 8
ENDMDL
