MODEL 1
REMARK VINA RESULT:      -7.7      0.000      0.000
REMARK  2 active torsions:
REMARK  status: ('A' for Active; 'I' for Inactive)
REMARK    1  A    between atoms: N_4  and  N_5 
REMARK       I    between atoms: N_5  and  C_6 
REMARK    2  A    between atoms: C_6  and  C_7 
ROOT
HETATM    1  C   UNL     1      42.538 -15.909   1.854  1.00  0.00     0.158 C 
HETATM    2  N   UNL     1      43.010 -16.415   3.140  1.00  0.00    -0.329 N 
HETATM    3  C   UNL     1      43.200 -15.723   4.271  1.00  0.00     0.166 A 
HETATM    4  N   UNL     1      42.987 -14.412   4.417  1.00  0.00    -0.277 N 
HETATM    5  S   UNL     1      43.769 -16.721   5.573  1.00  0.00    -0.050 SA
HETATM    6  C   UNL     1      43.752 -18.109   4.556  1.00  0.00     0.035 A 
HETATM    7  C   UNL     1      43.317 -17.767   3.278  1.00  0.00     0.053 A 
HETATM    8  C   UNL     1      44.108 -19.428   4.887  1.00  0.00     0.021 A 
HETATM    9  C   UNL     1      44.017 -20.407   3.895  1.00  0.00     0.002 A 
HETATM   10  C   UNL     1      43.585 -20.084   2.613  1.00  0.00     0.002 A 
HETATM   11  C   UNL     1      43.232 -18.768   2.290  1.00  0.00     0.031 A 
HETATM   12  H   UNL     1      42.655 -13.908   3.596  1.00  0.00     0.189 HD
ENDROOT
BRANCH   4  13
HETATM   13  N   UNL     1      43.168 -13.704   5.531  1.00  0.00    -0.263 N 
HETATM   14  C   UNL     1      43.568 -12.386   5.376  1.00  0.00     0.286 C 
HETATM   15  O   UNL     1      43.736 -11.926   4.247  1.00  0.00    -0.264 OA
HETATM   16  H   UNL     1      43.017 -14.126   6.443  1.00  0.00     0.190 HD
BRANCH  14  17
HETATM   17  C   UNL     1      43.761 -11.626   6.587  1.00  0.00     0.103 A 
HETATM   18  N   UNL     1      42.732 -10.896   7.155  1.00  0.00    -0.360 N 
HETATM   19  H   UNL     1      41.792 -10.839   6.778  1.00  0.00     0.165 HD
HETATM   20  C   UNL     1      43.168 -10.267   8.290  1.00  0.00     0.112 A 
HETATM   21  C   UNL     1      44.490 -10.588   8.466  1.00  0.00     0.051 A 
HETATM   22 CL   UNL     1      45.514 -10.078   9.716  1.00  0.00    -0.083 Cl
HETATM   23  C   UNL     1      44.869 -11.440   7.402  1.00  0.00     0.060 A 
ENDBRANCH  14  17
ENDBRANCH   4  13
TORSDOF 2
ENDMDL
MODEL 2
REMARK VINA RESULT:      -7.5      5.353      7.417
REMARK  2 active torsions:
REMARK  status: ('A' for Active; 'I' for Inactive)
REMARK    1  A    between atoms: N_4  and  N_5 
REMARK       I    between atoms: N_5  and  C_6 
REMARK    2  A    between atoms: C_6  and  C_7 
ROOT
HETATM    1  C   UNL     1      41.664 -13.771   5.261  1.00  0.00     0.158 C 
HETATM    2  N   UNL     1      41.779 -14.850   4.284  1.00  0.00    -0.329 N 
HETATM    3  C   UNL     1      41.104 -14.987   3.135  1.00  0.00     0.166 A 
HETATM    4  N   UNL     1      40.180 -14.137   2.678  1.00  0.00    -0.277 N 
HETATM    5  S   UNL     1      41.556 -16.421   2.267  1.00  0.00    -0.050 SA
HETATM    6  C   UNL     1      42.684 -16.846   3.495  1.00  0.00     0.035 A 
HETATM    7  C   UNL     1      42.678 -15.890   4.508  1.00  0.00     0.053 A 
HETATM    8  C   UNL     1      43.525 -17.970   3.545  1.00  0.00     0.021 A 
HETATM    9  C   UNL     1      44.370 -18.117   4.648  1.00  0.00     0.002 A 
HETATM   10  C   UNL     1      44.377 -17.172   5.669  1.00  0.00     0.002 A 
HETATM   11  C   UNL     1      43.536 -16.054   5.613  1.00  0.00     0.031 A 
HETATM   12  H   UNL     1      39.981 -13.324   3.257  1.00  0.00     0.189 HD
ENDROOT
BRANCH   4  13
HETATM   13  N   UNL     1      39.498 -14.253   1.539  1.00  0.00    -0.263 N 
HETATM   14  C   UNL     1      39.903 -13.453   0.483  1.00  0.00     0.286 C 
HETATM   15  O   UNL     1      40.855 -12.685   0.627  1.00  0.00    -0.264 OA
HETATM   16  H   UNL     1      38.718 -14.901   1.466  1.00  0.00     0.190 HD
BRANCH  14  17
HETATM   17  C   UNL     1      39.159 -13.585  -0.746  1.00  0.00     0.103 A 
HETATM   18  N   UNL     1      38.080 -12.768  -1.030  1.00  0.00    -0.360 N 
HETATM   19  H   UNL     1      37.738 -12.035  -0.417  1.00  0.00     0.165 HD
HETATM   20  C   UNL     1      37.547 -13.092  -2.248  1.00  0.00     0.112 A 
HETATM   21  C   UNL     1      38.282 -14.129  -2.766  1.00  0.00     0.051 A 
HETATM   22 CL   UNL     1      38.052 -14.913  -4.249  1.00  0.00    -0.083 Cl
HETATM   23  C   UNL     1      39.295 -14.443  -1.828  1.00  0.00     0.060 A 
ENDBRANCH  14  17
ENDBRANCH   4  13
TORSDOF 2
ENDMDL
MODEL 3
REMARK VINA RESULT:      -7.5      4.803      6.359
REMARK  2 active torsions:
REMARK  status: ('A' for Active; 'I' for Inactive)
REMARK    1  A    between atoms: N_4  and  N_5 
REMARK       I    between atoms: N_5  and  C_6 
REMARK    2  A    between atoms: C_6  and  C_7 
ROOT
HETATM    1  C   UNL     1      43.568 -16.140   5.621  1.00  0.00     0.158 C 
HETATM    2  N   UNL     1      43.405 -16.872   4.369  1.00  0.00    -0.329 N 
HETATM    3  C   UNL     1      43.045 -16.381   3.175  1.00  0.00     0.166 A 
HETATM    4  N   UNL     1      42.762 -15.100   2.923  1.00  0.00    -0.277 N 
HETATM    5  S   UNL     1      42.979 -17.606   1.947  1.00  0.00    -0.050 SA
HETATM    6  C   UNL     1      43.446 -18.813   3.081  1.00  0.00     0.035 A 
HETATM    7  C   UNL     1      43.636 -18.246   4.338  1.00  0.00     0.053 A 
HETATM    8  C   UNL     1      43.631 -20.187   2.854  1.00  0.00     0.021 A 
HETATM    9  C   UNL     1      44.015 -20.989   3.930  1.00  0.00     0.002 A 
HETATM   10  C   UNL     1      44.210 -20.441   5.193  1.00  0.00     0.002 A 
HETATM   11  C   UNL     1      44.023 -19.071   5.413  1.00  0.00     0.031 A 
HETATM   12  H   UNL     1      42.827 -14.454   3.709  1.00  0.00     0.189 HD
ENDROOT
BRANCH   4  13
HETATM   13  N   UNL     1      42.404 -14.590   1.746  1.00  0.00    -0.263 N 
HETATM   14  C   UNL     1      41.045 -14.456   1.509  1.00  0.00     0.286 C 
HETATM   15  O   UNL     1      40.237 -14.801   2.371  1.00  0.00    -0.264 OA
HETATM   16  H   UNL     1      43.106 -14.317   1.064  1.00  0.00     0.190 HD
BRANCH  14  17
HETATM   17  C   UNL     1      40.666 -13.902   0.233  1.00  0.00     0.103 A 
HETATM   18  N   UNL     1      41.197 -12.709  -0.226  1.00  0.00    -0.360 N 
HETATM   19  H   UNL     1      41.874 -12.150   0.282  1.00  0.00     0.165 HD
HETATM   20  C   UNL     1      40.680 -12.401  -1.455  1.00  0.00     0.112 A 
HETATM   21  C   UNL     1      39.803 -13.398  -1.803  1.00  0.00     0.051 A 
HETATM   22 CL   UNL     1      38.889 -13.512  -3.225  1.00  0.00    -0.083 Cl
HETATM   23  C   UNL     1      39.789 -14.342  -0.749  1.00  0.00     0.060 A 
ENDBRANCH  14  17
ENDBRANCH   4  13
TORSDOF 2
ENDMDL
MODEL 4
REMARK VINA RESULT:      -7.2      5.065      6.476
REMARK  2 active torsions:
REMARK  status: ('A' for Active; 'I' for Inactive)
REMARK    1  A    between atoms: N_4  and  N_5 
REMARK       I    between atoms: N_5  and  C_6 
REMARK    2  A    between atoms: C_6  and  C_7 
ROOT
HETATM    1  C   UNL     1      41.239 -15.387   6.144  1.00  0.00     0.158 C 
HETATM    2  N   UNL     1      41.435 -15.824   4.765  1.00  0.00    -0.329 N 
HETATM    3  C   UNL     1      40.788 -15.397   3.672  1.00  0.00     0.166 A 
HETATM    4  N   UNL     1      39.823 -14.474   3.660  1.00  0.00    -0.277 N 
HETATM    5  S   UNL     1      41.339 -16.182   2.225  1.00  0.00    -0.050 SA
HETATM    6  C   UNL     1      42.470 -17.115   3.126  1.00  0.00     0.035 A 
HETATM    7  C   UNL     1      42.390 -16.797   4.479  1.00  0.00     0.053 A 
HETATM    8  C   UNL     1      43.377 -18.075   2.645  1.00  0.00     0.021 A 
HETATM    9  C   UNL     1      44.210 -18.717   3.563  1.00  0.00     0.002 A 
HETATM   10  C   UNL     1      44.144 -18.413   4.919  1.00  0.00     0.002 A 
HETATM   11  C   UNL     1      43.239 -17.455   5.392  1.00  0.00     0.031 A 
HETATM   12  H   UNL     1      39.565 -14.069   4.559  1.00  0.00     0.189 HD
ENDROOT
BRANCH   4  13
HETATM   13  N   UNL     1      39.167 -14.033   2.587  1.00  0.00    -0.263 N 
HETATM   14  C   UNL     1      39.502 -12.770   2.124  1.00  0.00     0.286 C 
HETATM   15  O   UNL     1      40.370 -12.117   2.703  1.00  0.00    -0.264 OA
HETATM   16  H   UNL     1      38.457 -14.608   2.141  1.00  0.00     0.190 HD
BRANCH  14  17
HETATM   17  C   UNL     1      38.788 -12.301   0.962  1.00  0.00     0.103 A 
HETATM   18  N   UNL     1      38.724 -13.050  -0.200  1.00  0.00    -0.360 N 
HETATM   19  H   UNL     1      39.158 -13.959  -0.321  1.00  0.00     0.165 HD
HETATM   20  C   UNL     1      37.993 -12.389  -1.150  1.00  0.00     0.112 A 
HETATM   21  C   UNL     1      37.577 -11.200  -0.608  1.00  0.00     0.051 A 
HETATM   22 CL   UNL     1      36.641 -10.002  -1.354  1.00  0.00    -0.083 Cl
HETATM   23  C   UNL     1      38.072 -11.138   0.717  1.00  0.00     0.060 A 
ENDBRANCH  14  17
ENDBRANCH   4  13
TORSDOF 2
ENDMDL
MODEL 5
REMARK VINA RESULT:      -7.2      5.513      8.297
REMARK  2 active torsions:
REMARK  status: ('A' for Active; 'I' for Inactive)
REMARK    1  A    between atoms: N_4  and  N_5 
REMARK       I    between atoms: N_5  and  C_6 
REMARK    2  A    between atoms: C_6  and  C_7 
ROOT
HETATM    1  C   UNL     1      41.201 -10.826   0.622  1.00  0.00     0.158 C 
HETATM    2  N   UNL     1      40.564 -12.028   0.092  1.00  0.00    -0.329 N 
HETATM    3  C   UNL     1      40.903 -13.303   0.324  1.00  0.00     0.166 A 
HETATM    4  N   UNL     1      41.914 -13.702   1.101  1.00  0.00    -0.277 N 
HETATM    5  S   UNL     1      39.871 -14.426  -0.506  1.00  0.00    -0.050 SA
HETATM    6  C   UNL     1      38.962 -13.134  -1.187  1.00  0.00     0.035 A 
HETATM    7  C   UNL     1      39.469 -11.909  -0.761  1.00  0.00     0.053 A 
HETATM    8  C   UNL     1      37.858 -13.216  -2.053  1.00  0.00     0.021 A 
HETATM    9  C   UNL     1      37.268 -12.028  -2.487  1.00  0.00     0.002 A 
HETATM   10  C   UNL     1      37.760 -10.795  -2.073  1.00  0.00     0.002 A 
HETATM   11  C   UNL     1      38.861 -10.720  -1.210  1.00  0.00     0.031 A 
HETATM   12  H   UNL     1      42.466 -12.970   1.545  1.00  0.00     0.189 HD
ENDROOT
BRANCH   4  13
HETATM   13  N   UNL     1      42.269 -14.963   1.347  1.00  0.00    -0.263 N 
HETATM   14  C   UNL     1      42.781 -15.234   2.605  1.00  0.00     0.286 C 
HETATM   15  O   UNL     1      42.887 -14.327   3.431  1.00  0.00    -0.264 OA
HETATM   16  H   UNL     1      42.163 -15.679   0.634  1.00  0.00     0.190 HD
BRANCH  14  17
HETATM   17  C   UNL     1      43.162 -16.601   2.864  1.00  0.00     0.103 A 
HETATM   18  N   UNL     1      43.677 -16.990   4.087  1.00  0.00    -0.360 N 
HETATM   19  H   UNL     1      43.821 -16.366   4.874  1.00  0.00     0.165 HD
HETATM   20  C   UNL     1      43.959 -18.330   4.079  1.00  0.00     0.112 A 
HETATM   21  C   UNL     1      43.627 -18.820   2.841  1.00  0.00     0.051 A 
HETATM   22 CL   UNL     1      43.774 -20.418   2.295  1.00  0.00    -0.083 Cl
HETATM   23  C   UNL     1      43.127 -17.742   2.074  1.00  0.00     0.060 A 
ENDBRANCH  14  17
ENDBRANCH   4  13
TORSDOF 2
ENDMDL
MODEL 6
REMARK VINA RESULT:      -7.1      3.696      4.271
REMARK  2 active torsions:
REMARK  status: ('A' for Active; 'I' for Inactive)
REMARK    1  A    between atoms: N_4  and  N_5 
REMARK       I    between atoms: N_5  and  C_6 
REMARK    2  A    between atoms: C_6  and  C_7 
ROOT
HETATM    1  C   UNL     1      43.706 -16.804   7.017  1.00  0.00     0.158 C 
HETATM    2  N   UNL     1      43.212 -16.571   5.663  1.00  0.00    -0.329 N 
HETATM    3  C   UNL     1      42.579 -15.485   5.199  1.00  0.00     0.166 A 
HETATM    4  N   UNL     1      42.280 -14.401   5.920  1.00  0.00    -0.277 N 
HETATM    5  S   UNL     1      42.169 -15.624   3.518  1.00  0.00    -0.050 SA
HETATM    6  C   UNL     1      42.869 -17.194   3.445  1.00  0.00     0.035 A 
HETATM    7  C   UNL     1      43.386 -17.551   4.688  1.00  0.00     0.053 A 
HETATM    8  C   UNL     1      42.949 -18.054   2.337  1.00  0.00     0.021 A 
HETATM    9  C   UNL     1      43.567 -19.295   2.506  1.00  0.00     0.002 A 
HETATM   10  C   UNL     1      44.089 -19.669   3.740  1.00  0.00     0.002 A 
HETATM   11  C   UNL     1      44.005 -18.807   4.841  1.00  0.00     0.031 A 
HETATM   12  H   UNL     1      42.560 -14.412   6.900  1.00  0.00     0.189 HD
ENDROOT
BRANCH   4  13
HETATM   13  N   UNL     1      41.653 -13.310   5.480  1.00  0.00    -0.263 N 
HETATM   14  C   UNL     1      40.333 -13.148   5.867  1.00  0.00     0.286 C 
HETATM   15  O   UNL     1      39.799 -13.993   6.587  1.00  0.00    -0.264 OA
HETATM   16  H   UNL     1      42.135 -12.640   4.887  1.00  0.00     0.190 HD
BRANCH  14  17
HETATM   17  C   UNL     1      39.662 -11.965   5.387  1.00  0.00     0.103 A 
HETATM   18  N   UNL     1      38.977 -11.123   6.244  1.00  0.00    -0.360 N 
HETATM   19  H   UNL     1      38.897 -11.265   7.246  1.00  0.00     0.165 HD
HETATM   20  C   UNL     1      38.431 -10.079   5.547  1.00  0.00     0.112 A 
HETATM   21  C   UNL     1      38.760 -10.239   4.225  1.00  0.00     0.051 A 
HETATM   22 CL   UNL     1      38.339  -9.230   2.931  1.00  0.00    -0.083 Cl
HETATM   23  C   UNL     1      39.532 -11.421   4.117  1.00  0.00     0.060 A 
ENDBRANCH  14  17
ENDBRANCH   4  13
TORSDOF 2
ENDMDL
MODEL 7
REMARK VINA RESULT:      -7.0      3.350      8.142
REMARK  2 active torsions:
REMARK  status: ('A' for Active; 'I' for Inactive)
REMARK    1  A    between atoms: N_4  and  N_5 
REMARK       I    between atoms: N_5  and  C_6 
REMARK    2  A    between atoms: C_6  and  C_7 
ROOT
HETATM    1  C   UNL     1      41.159 -10.442   6.341  1.00  0.00     0.158 C 
HETATM    2  N   UNL     1      42.510 -10.921   6.622  1.00  0.00    -0.329 N 
HETATM    3  C   UNL     1      43.050 -12.096   6.272  1.00  0.00     0.166 A 
HETATM    4  N   UNL     1      42.423 -13.059   5.591  1.00  0.00    -0.277 N 
HETATM    5  S   UNL     1      44.694 -12.256   6.806  1.00  0.00    -0.050 SA
HETATM    6  C   UNL     1      44.645 -10.693   7.524  1.00  0.00     0.035 A 
HETATM    7  C   UNL     1      43.394 -10.112   7.331  1.00  0.00     0.053 A 
HETATM    8  C   UNL     1      45.670 -10.028   8.219  1.00  0.00     0.021 A 
HETATM    9  C   UNL     1      45.408  -8.753   8.723  1.00  0.00     0.002 A 
HETATM   10  C   UNL     1      44.165  -8.156   8.540  1.00  0.00     0.002 A 
HETATM   11  C   UNL     1      43.148  -8.824   7.847  1.00  0.00     0.031 A 
HETATM   12  H   UNL     1      41.458 -12.875   5.321  1.00  0.00     0.189 HD
ENDROOT
BRANCH   4  13
HETATM   13  N   UNL     1      42.940 -14.234   5.231  1.00  0.00    -0.263 N 
HETATM   14  C   UNL     1      42.173 -15.024   4.390  1.00  0.00     0.286 C 
HETATM   15  O   UNL     1      41.071 -14.624   4.011  1.00  0.00    -0.264 OA
HETATM   16  H   UNL     1      43.854 -14.522   5.569  1.00  0.00     0.190 HD
BRANCH  14  17
HETATM   17  C   UNL     1      42.739 -16.293   4.006  1.00  0.00     0.103 A 
HETATM   18  N   UNL     1      43.752 -16.885   4.739  1.00  0.00    -0.360 N 
HETATM   19  H   UNL     1      44.162 -16.487   5.577  1.00  0.00     0.165 HD
HETATM   20  C   UNL     1      44.115 -18.076   4.170  1.00  0.00     0.112 A 
HETATM   21  C   UNL     1      43.335 -18.265   3.058  1.00  0.00     0.051 A 
HETATM   22 CL   UNL     1      43.371 -19.578   1.988  1.00  0.00    -0.083 Cl
HETATM   23  C   UNL     1      42.470 -17.150   2.948  1.00  0.00     0.060 A 
ENDBRANCH  14  17
ENDBRANCH   4  13
TORSDOF 2
ENDMDL
MODEL 8
REMARK VINA RESULT:      -7.0      4.893      6.892
REMARK  2 active torsions:
REMARK  status: ('A' for Active; 'I' for Inactive)
REMARK    1  A    between atoms: N_4  and  N_5 
REMARK       I    between atoms: N_5  and  C_6 
REMARK    2  A    between atoms: C_6  and  C_7 
ROOT
HETATM    1  C   UNL     1      43.560 -17.927   2.661  1.00  0.00     0.158 C 
HETATM    2  N   UNL     1      43.136 -16.655   3.240  1.00  0.00    -0.329 N 
HETATM    3  C   UNL     1      42.572 -15.617   2.609  1.00  0.00     0.166 A 
HETATM    4  N   UNL     1      42.297 -15.566   1.303  1.00  0.00    -0.277 N 
HETATM    5  S   UNL     1      42.220 -14.299   3.683  1.00  0.00    -0.050 SA
HETATM    6  C   UNL     1      42.859 -15.177   5.018  1.00  0.00     0.035 A 
HETATM    7  C   UNL     1      43.308 -16.428   4.603  1.00  0.00     0.053 A 
HETATM    8  C   UNL     1      42.949 -14.766   6.359  1.00  0.00     0.021 A 
HETATM    9  C   UNL     1      43.508 -15.649   7.285  1.00  0.00     0.002 A 
HETATM   10  C   UNL     1      43.963 -16.902   6.890  1.00  0.00     0.002 A 
HETATM   11  C   UNL     1      43.870 -17.306   5.552  1.00  0.00     0.031 A 
HETATM   12  H   UNL     1      42.541 -16.388   0.752  1.00  0.00     0.189 HD
ENDROOT
BRANCH   4  13
HETATM   13  N   UNL     1      41.735 -14.546   0.655  1.00  0.00    -0.263 N 
HETATM   14  C   UNL     1      40.389 -14.663   0.350  1.00  0.00     0.286 C 
HETATM   15  O   UNL     1      39.772 -15.676   0.681  1.00  0.00    -0.264 OA
HETATM   16  H   UNL     1      42.284 -13.729   0.401  1.00  0.00     0.190 HD
BRANCH  14  17
HETATM   17  C   UNL     1      39.789 -13.555  -0.351  1.00  0.00     0.103 A 
HETATM   18  N   UNL     1      38.867 -12.725   0.261  1.00  0.00    -0.360 N 
HETATM   19  H   UNL     1      38.550 -12.826   1.219  1.00  0.00     0.165 HD
HETATM   20  C   UNL     1      38.449 -11.756  -0.611  1.00  0.00     0.112 A 
HETATM   21  C   UNL     1      39.102 -11.953  -1.802  1.00  0.00     0.051 A 
HETATM   22 CL   UNL     1      38.955 -11.037  -3.219  1.00  0.00    -0.083 Cl
HETATM   23  C   UNL     1      39.944 -13.080  -1.646  1.00  0.00     0.060 A 
ENDBRANCH  14  17
ENDBRANCH   4  13
TORSDOF 2
ENDMDL
MODEL 9
REMARK VINA RESULT:      -6.8      3.427      8.083
REMARK  2 active torsions:
REMARK  status: ('A' for Active; 'I' for Inactive)
REMARK    1  A    between atoms: N_4  and  N_5 
REMARK       I    between atoms: N_5  and  C_6 
REMARK    2  A    between atoms: C_6  and  C_7 
ROOT
HETATM    1  C   UNL     1      41.100  -9.915   6.875  1.00  0.00     0.158 C 
HETATM    2  N   UNL     1      42.415 -10.550   6.891  1.00  0.00    -0.329 N 
HETATM    3  C   UNL     1      42.859 -11.530   6.093  1.00  0.00     0.166 A 
HETATM    4  N   UNL     1      42.151 -12.113   5.121  1.00  0.00    -0.277 N 
HETATM    5  S   UNL     1      44.495 -11.988   6.451  1.00  0.00    -0.050 SA
HETATM    6  C   UNL     1      44.576 -10.824   7.716  1.00  0.00     0.035 A 
HETATM    7  C   UNL     1      43.370 -10.136   7.817  1.00  0.00     0.053 A 
HETATM    8  C   UNL     1      45.659 -10.546   8.567  1.00  0.00     0.021 A 
HETATM    9  C   UNL     1      45.503  -9.550   9.534  1.00  0.00     0.002 A 
HETATM   10  C   UNL     1      44.305  -8.852   9.649  1.00  0.00     0.002 A 
HETATM   11  C   UNL     1      43.230  -9.134   8.798  1.00  0.00     0.031 A 
HETATM   12  H   UNL     1      41.198 -11.778   4.986  1.00  0.00     0.189 HD
ENDROOT
BRANCH   4  13
HETATM   13  N   UNL     1      42.572 -13.087   4.316  1.00  0.00    -0.263 N 
HETATM   14  C   UNL     1      41.922 -14.307   4.416  1.00  0.00     0.286 C 
HETATM   15  O   UNL     1      41.002 -14.445   5.223  1.00  0.00    -0.264 OA
HETATM   16  H   UNL     1      43.336 -12.927   3.665  1.00  0.00     0.190 HD
BRANCH  14  17
HETATM   17  C   UNL     1      42.383 -15.355   3.540  1.00  0.00     0.103 A 
HETATM   18  N   UNL     1      43.039 -15.073   2.356  1.00  0.00    -0.360 N 
HETATM   19  H   UNL     1      43.243 -14.137   2.021  1.00  0.00     0.165 HD
HETATM   20  C   UNL     1      43.371 -16.233   1.709  1.00  0.00     0.112 A 
HETATM   21  C   UNL     1      42.929 -17.282   2.475  1.00  0.00     0.051 A 
HETATM   22 CL   UNL     1      43.080 -18.936   2.140  1.00  0.00    -0.083 Cl
HETATM   23  C   UNL     1      42.308 -16.739   3.625  1.00  0.00     0.060 A 
ENDBRANCH  14  17
ENDBRANCH   4  13
TORSDOF 2
ENDMDL
MODEL 10
REMARK VINA RESULT:      -6.7      3.234      3.935
REMARK  2 active torsions:
REMARK  status: ('A' for Active; 'I' for Inactive)
REMARK    1  A    between atoms: N_4  and  N_5 
REMARK       I    between atoms: N_5  and  C_6 
REMARK    2  A    between atoms: C_6  and  C_7 
ROOT
HETATM    1  C   UNL     1      43.648 -17.335   6.762  1.00  0.00     0.158 C 
HETATM    2  N   UNL     1      43.436 -17.397   5.319  1.00  0.00    -0.329 N 
HETATM    3  C   UNL     1      43.058 -16.403   4.504  1.00  0.00     0.166 A 
HETATM    4  N   UNL     1      42.800 -15.150   4.886  1.00  0.00    -0.277 N 
HETATM    5  S   UNL     1      42.931 -16.913   2.849  1.00  0.00    -0.050 SA
HETATM    6  C   UNL     1      43.398 -18.514   3.275  1.00  0.00     0.035 A 
HETATM    7  C   UNL     1      43.633 -18.600   4.644  1.00  0.00     0.053 A 
HETATM    8  C   UNL     1      43.544 -19.626   2.428  1.00  0.00     0.021 A 
HETATM    9  C   UNL     1      43.936 -20.841   2.993  1.00  0.00     0.002 A 
HETATM   10  C   UNL     1      44.176 -20.947   4.359  1.00  0.00     0.002 A 
HETATM   11  C   UNL     1      44.028 -19.835   5.198  1.00  0.00     0.031 A 
HETATM   12  H   UNL     1      42.900 -14.945   5.880  1.00  0.00     0.189 HD
ENDROOT
BRANCH   4  13
HETATM   13  N   UNL     1      42.424 -14.146   4.095  1.00  0.00    -0.263 N 
HETATM   14  C   UNL     1      42.639 -12.862   4.569  1.00  0.00     0.286 C 
HETATM   15  O   UNL     1      43.157 -12.696   5.673  1.00  0.00    -0.264 OA
HETATM   16  H   UNL     1      42.000 -14.331   3.190  1.00  0.00     0.190 HD
BRANCH  14  17
HETATM   17  C   UNL     1      42.230 -11.781   3.705  1.00  0.00     0.103 A 
HETATM   18  N   UNL     1      41.652 -10.630   4.211  1.00  0.00    -0.360 N 
HETATM   19  H   UNL     1      41.478 -10.460   5.195  1.00  0.00     0.165 HD
HETATM   20  C   UNL     1      41.355  -9.763   3.194  1.00  0.00     0.112 A 
HETATM   21  C   UNL     1      41.739 -10.351   2.015  1.00  0.00     0.051 A 
HETATM   22 CL   UNL     1      41.599  -9.710   0.453  1.00  0.00    -0.083 Cl
HETATM   23  C   UNL     1      42.289 -11.617   2.328  1.00  0.00     0.060 A 
ENDBRANCH  14  17
ENDBRANCH   4  13
TORSDOF 2
ENDMDL
