MODEL 1
REMARK VINA RESULT:     -10.5      0.000      0.000
REMARK  5 active torsions:
REMARK  status: ('A' for Active; 'I' for Inactive)
REMARK    1  A    between atoms: C_7  and  C_8 
REMARK    2  A    between atoms: C_16  and  C_17 
REMARK    3  A    between atoms: C_19  and  O_20 
REMARK    4  A    between atoms: C_24  and  C_25 
REMARK       I    between atoms: C_25  and  N_26 
REMARK    5  A    between atoms: N_26  and  C_27 
ROOT
HETATM    1  C   UNL     1      40.251 -13.568   6.543  1.00  0.00     0.070 C 
HETATM    2  C   UNL     1      40.805 -13.982   5.201  1.00  0.00     0.037 C 
HETATM    3  N   UNL     1      39.858 -14.153   4.187  1.00  0.00    -0.192 N 
HETATM    4  C   UNL     1      40.208 -14.218   2.886  1.00  0.00     0.726 A 
HETATM    5  N   UNL     1      41.516 -14.427   2.562  1.00  0.00    -0.083 N 
HETATM    6  N   UNL     1      41.726 -14.335   1.238  1.00  0.00    -0.135 NA
HETATM    7  C   UNL     1      40.476 -14.109   0.790  1.00  0.00     0.199 A 
HETATM    8  N   UNL     1      39.517 -14.044   1.790  1.00  0.00    -0.041 NA
HETATM    9  C   UNL     1      42.577 -14.623   3.551  1.00  0.00     0.202 C 
HETATM   10  C   UNL     1      42.126 -14.169   4.936  1.00  0.00     0.062 C 
HETATM   11  H   UNL     1      38.911 -13.846   4.400  1.00  0.00     0.184 HD
ENDROOT
BRANCH  10  12
HETATM   12  C   UNL     1      43.177 -13.713   5.901  1.00  0.00     0.256 C 
HETATM   13  N   UNL     1      43.524 -12.383   5.794  1.00  0.00    -0.323 N 
HETATM   14  H   UNL     1      43.149 -11.842   5.026  1.00  0.00     0.169 HD
HETATM   15  O   UNL     1      43.603 -14.503   6.736  1.00  0.00    -0.267 OA
BRANCH  13  16
HETATM   16  C   UNL     1      44.360 -11.647   6.664  1.00  0.00     0.035 A 
HETATM   17  C   UNL     1      45.716 -11.407   6.435  1.00  0.00     0.029 A 
HETATM   18  C   UNL     1      46.476 -10.688   7.364  1.00  0.00     0.002 A 
HETATM   19  C   UNL     1      45.889 -10.210   8.532  1.00  0.00     0.000 A 
HETATM   20  C   UNL     1      44.538 -10.442   8.770  1.00  0.00     0.002 A 
HETATM   21  C   UNL     1      43.776 -11.152   7.839  1.00  0.00     0.029 A 
ENDBRANCH  13  16
ENDBRANCH  10  12
BRANCH   9  22
HETATM   22  C   UNL     1      43.029 -16.085   3.505  1.00  0.00    -0.025 A 
HETATM   23  C   UNL     1      43.248 -16.837   4.676  1.00  0.00     0.046 A 
HETATM   24  C   UNL     1      43.683 -18.157   4.588  1.00  0.00     0.066 A 
HETATM   25  C   UNL     1      43.888 -18.759   3.356  1.00  0.00     0.036 A 
HETATM   26  C   UNL     1      43.649 -18.039   2.188  1.00  0.00     0.003 A 
HETATM   27  C   UNL     1      43.220 -16.711   2.260  1.00  0.00     0.010 A 
BRANCH  24  28
HETATM   28  O   UNL     1      43.922 -18.902   5.705  1.00  0.00    -0.361 OA
HETATM   29  H   UNL     1      43.709 -18.375   6.493  1.00  0.00     0.217 HD
ENDBRANCH  24  28
ENDBRANCH   9  22
BRANCH   7  30
HETATM   30  C   UNL     1      40.152 -13.897  -0.618  1.00  0.00     0.016 A 
HETATM   31  C   UNL     1      40.617 -12.762  -1.298  1.00  0.00     0.039 A 
HETATM   32  C   UNL     1      40.281 -12.559  -2.636  1.00  0.00     0.035 A 
HETATM   33 CL   UNL     1      40.853 -11.159  -3.457  1.00  0.00    -0.084 Cl
HETATM   34  C   UNL     1      39.482 -13.477  -3.313  1.00  0.00     0.024 A 
HETATM   35  C   UNL     1      39.016 -14.611  -2.648  1.00  0.00     0.003 A 
HETATM   36  C   UNL     1      39.352 -14.820  -1.309  1.00  0.00     0.015 A 
ENDBRANCH   7  30
TORSDOF 5
ENDMDL
MODEL 2
REMARK VINA RESULT:     -10.2      3.675      7.665
REMARK  5 active torsions:
REMARK  status: ('A' for Active; 'I' for Inactive)
REMARK    1  A    between atoms: C_7  and  C_8 
REMARK    2  A    between atoms: C_16  and  C_17 
REMARK    3  A    between atoms: C_19  and  O_20 
REMARK    4  A    between atoms: C_24  and  C_25 
REMARK       I    between atoms: C_25  and  N_26 
REMARK    5  A    between atoms: N_26  and  C_27 
ROOT
HETATM    1  C   UNL     1      38.488 -12.158  -0.013  1.00  0.00     0.070 C 
HETATM    2  C   UNL     1      39.577 -12.530   0.964  1.00  0.00     0.037 C 
HETATM    3  N   UNL     1      39.522 -13.837   1.456  1.00  0.00    -0.192 N 
HETATM    4  C   UNL     1      40.572 -14.410   2.082  1.00  0.00     0.726 A 
HETATM    5  N   UNL     1      41.593 -13.619   2.518  1.00  0.00    -0.083 N 
HETATM    6  N   UNL     1      42.618 -14.344   2.999  1.00  0.00    -0.135 NA
HETATM    7  C   UNL     1      42.137 -15.595   2.871  1.00  0.00     0.199 A 
HETATM    8  N   UNL     1      40.867 -15.661   2.316  1.00  0.00    -0.041 NA
HETATM    9  C   UNL     1      41.611 -12.162   2.379  1.00  0.00     0.202 C 
HETATM   10  C   UNL     1      40.578 -11.697   1.356  1.00  0.00     0.062 C 
HETATM   11  H   UNL     1      38.852 -14.458   1.008  1.00  0.00     0.184 HD
ENDROOT
BRANCH  10  12
HETATM   12  C   UNL     1      40.836 -10.410   0.635  1.00  0.00     0.256 C 
HETATM   13  N   UNL     1      41.579 -10.531  -0.519  1.00  0.00    -0.323 N 
HETATM   14  H   UNL     1      41.989 -11.429  -0.743  1.00  0.00     0.169 HD
HETATM   15  O   UNL     1      40.339  -9.375   1.065  1.00  0.00    -0.267 OA
BRANCH  13  16
HETATM   16  C   UNL     1      41.841  -9.524  -1.476  1.00  0.00     0.035 A 
HETATM   17  C   UNL     1      42.756  -8.486  -1.294  1.00  0.00     0.029 A 
HETATM   18  C   UNL     1      42.934  -7.515  -2.286  1.00  0.00     0.002 A 
HETATM   19  C   UNL     1      42.193  -7.569  -3.462  1.00  0.00     0.000 A 
HETATM   20  C   UNL     1      41.278  -8.600  -3.655  1.00  0.00     0.002 A 
HETATM   21  C   UNL     1      41.107  -9.575  -2.670  1.00  0.00     0.029 A 
ENDBRANCH  13  16
ENDBRANCH  10  12
BRANCH   9  22
HETATM   22  C   UNL     1      41.427 -11.534   3.763  1.00  0.00    -0.025 A 
HETATM   23  C   UNL     1      40.554 -12.083   4.723  1.00  0.00     0.046 A 
HETATM   24  C   UNL     1      40.399 -11.464   5.961  1.00  0.00     0.066 A 
HETATM   25  C   UNL     1      41.109 -10.316   6.278  1.00  0.00     0.036 A 
HETATM   26  C   UNL     1      41.997  -9.776   5.350  1.00  0.00     0.003 A 
HETATM   27  C   UNL     1      42.157 -10.381   4.101  1.00  0.00     0.010 A 
BRANCH  24  28
HETATM   28  O   UNL     1      39.547 -11.962   6.902  1.00  0.00    -0.361 OA
HETATM   29  H   UNL     1      38.810 -12.415   6.460  1.00  0.00     0.217 HD
ENDBRANCH  24  28
ENDBRANCH   9  22
BRANCH   7  30
HETATM   30  C   UNL     1      42.894 -16.790   3.232  1.00  0.00     0.016 A 
HETATM   31  C   UNL     1      42.923 -17.905   2.382  1.00  0.00     0.039 A 
HETATM   32  C   UNL     1      43.631 -19.049   2.749  1.00  0.00     0.035 A 
HETATM   33 CL   UNL     1      43.653 -20.413   1.699  1.00  0.00    -0.084 Cl
HETATM   34  C   UNL     1      44.316 -19.100   3.960  1.00  0.00     0.024 A 
HETATM   35  C   UNL     1      44.297 -17.996   4.813  1.00  0.00     0.003 A 
HETATM   36  C   UNL     1      43.592 -16.847   4.448  1.00  0.00     0.015 A 
ENDBRANCH   7  30
TORSDOF 5
ENDMDL
MODEL 3
REMARK VINA RESULT:     -10.0      4.053      6.829
REMARK  5 active torsions:
REMARK  status: ('A' for Active; 'I' for Inactive)
REMARK    1  A    between atoms: C_7  and  C_8 
REMARK    2  A    between atoms: C_16  and  C_17 
REMARK    3  A    between atoms: C_19  and  O_20 
REMARK    4  A    between atoms: C_24  and  C_25 
REMARK       I    between atoms: C_25  and  N_26 
REMARK    5  A    between atoms: N_26  and  C_27 
ROOT
HETATM    1  C   UNL     1      39.720 -12.384   3.684  1.00  0.00     0.070 C 
HETATM    2  C   UNL     1      40.041 -12.115   2.234  1.00  0.00     0.037 C 
HETATM    3  N   UNL     1      39.974 -10.775   1.842  1.00  0.00    -0.192 N 
HETATM    4  C   UNL     1      40.519 -10.340   0.687  1.00  0.00     0.726 A 
HETATM    5  N   UNL     1      40.875 -11.252  -0.261  1.00  0.00    -0.083 N 
HETATM    6  N   UNL     1      41.521 -10.679  -1.292  1.00  0.00    -0.135 NA
HETATM    7  C   UNL     1      41.490  -9.381  -0.930  1.00  0.00     0.199 A 
HETATM    8  N   UNL     1      40.864  -9.145   0.285  1.00  0.00    -0.041 NA
HETATM    9  C   UNL     1      40.669 -12.694  -0.121  1.00  0.00     0.202 C 
HETATM   10  C   UNL     1      40.398 -13.070   1.334  1.00  0.00     0.062 C 
HETATM   11  H   UNL     1      39.860 -10.093   2.589  1.00  0.00     0.184 HD
ENDROOT
BRANCH  10  12
HETATM   12  C   UNL     1      40.765 -14.452   1.780  1.00  0.00     0.256 C 
HETATM   13  N   UNL     1      42.093 -14.621   2.108  1.00  0.00    -0.323 N 
HETATM   14  H   UNL     1      42.740 -13.866   1.925  1.00  0.00     0.169 HD
HETATM   15  O   UNL     1      39.885 -15.298   1.883  1.00  0.00    -0.267 OA
BRANCH  13  16
HETATM   16  C   UNL     1      42.687 -15.757   2.703  1.00  0.00     0.035 A 
HETATM   17  C   UNL     1      43.017 -16.925   2.013  1.00  0.00     0.029 A 
HETATM   18  C   UNL     1      43.580 -18.013   2.688  1.00  0.00     0.002 A 
HETATM   19  C   UNL     1      43.810 -17.947   4.059  1.00  0.00     0.000 A 
HETATM   20  C   UNL     1      43.486 -16.788   4.757  1.00  0.00     0.002 A 
HETATM   21  C   UNL     1      42.933 -15.697   4.083  1.00  0.00     0.029 A 
ENDBRANCH  13  16
ENDBRANCH  10  12
BRANCH   9  22
HETATM   22  C   UNL     1      39.558 -13.129  -1.081  1.00  0.00    -0.025 A 
HETATM   23  C   UNL     1      39.454 -14.452  -1.554  1.00  0.00     0.046 A 
HETATM   24  C   UNL     1      38.442 -14.798  -2.445  1.00  0.00     0.066 A 
HETATM   25  C   UNL     1      37.511 -13.860  -2.866  1.00  0.00     0.036 A 
HETATM   26  C   UNL     1      37.583 -12.554  -2.387  1.00  0.00     0.003 A 
HETATM   27  C   UNL     1      38.598 -12.190  -1.498  1.00  0.00     0.010 A 
BRANCH  24  28
HETATM   28  O   UNL     1      38.329 -16.066  -2.934  1.00  0.00    -0.361 OA
HETATM   29  H   UNL     1      38.720 -16.103  -3.822  1.00  0.00     0.217 HD
ENDBRANCH  24  28
ENDBRANCH   9  22
BRANCH   7  30
HETATM   30  C   UNL     1      42.102  -8.313  -1.715  1.00  0.00     0.016 A 
HETATM   31  C   UNL     1      42.936  -7.364  -1.106  1.00  0.00     0.039 A 
HETATM   32  C   UNL     1      43.495  -6.334  -1.862  1.00  0.00     0.035 A 
HETATM   33 CL   UNL     1      44.512  -5.173  -1.102  1.00  0.00    -0.084 Cl
HETATM   34  C   UNL     1      43.234  -6.234  -3.227  1.00  0.00     0.024 A 
HETATM   35  C   UNL     1      42.409  -7.174  -3.843  1.00  0.00     0.003 A 
HETATM   36  C   UNL     1      41.848  -8.209  -3.091  1.00  0.00     0.015 A 
ENDBRANCH   7  30
TORSDOF 5
ENDMDL
MODEL 4
REMARK VINA RESULT:      -9.8      3.393      7.330
REMARK  5 active torsions:
REMARK  status: ('A' for Active; 'I' for Inactive)
REMARK    1  A    between atoms: C_7  and  C_8 
REMARK    2  A    between atoms: C_16  and  C_17 
REMARK    3  A    between atoms: C_19  and  O_20 
REMARK    4  A    between atoms: C_24  and  C_25 
REMARK       I    between atoms: C_25  and  N_26 
REMARK    5  A    between atoms: N_26  and  C_27 
ROOT
HETATM    1  C   UNL     1      38.503 -11.946   2.448  1.00  0.00     0.070 C 
HETATM    2  C   UNL     1      39.832 -12.535   2.855  1.00  0.00     0.037 C 
HETATM    3  N   UNL     1      39.774 -13.810   3.425  1.00  0.00    -0.192 N 
HETATM    4  C   UNL     1      40.871 -14.585   3.555  1.00  0.00     0.726 A 
HETATM    5  N   UNL     1      42.102 -14.017   3.416  1.00  0.00    -0.083 N 
HETATM    6  N   UNL     1      43.085 -14.935   3.440  1.00  0.00    -0.135 NA
HETATM    7  C   UNL     1      42.380 -16.065   3.647  1.00  0.00     0.199 A 
HETATM    8  N   UNL     1      41.009 -15.873   3.733  1.00  0.00    -0.041 NA
HETATM    9  C   UNL     1      42.317 -12.592   3.164  1.00  0.00     0.202 C 
HETATM   10  C   UNL     1      41.033 -11.921   2.684  1.00  0.00     0.062 C 
HETATM   11  H   UNL     1      38.873 -14.282   3.381  1.00  0.00     0.184 HD
ENDROOT
BRANCH  10  12
HETATM   12  C   UNL     1      41.159 -10.704   1.820  1.00  0.00     0.256 C 
HETATM   13  N   UNL     1      41.284 -10.960   0.472  1.00  0.00    -0.323 N 
HETATM   14  H   UNL     1      41.395 -11.918   0.166  1.00  0.00     0.169 HD
HETATM   15  O   UNL     1      41.085  -9.595   2.338  1.00  0.00    -0.267 OA
BRANCH  13  16
HETATM   16  C   UNL     1      41.262 -10.018  -0.582  1.00  0.00     0.035 A 
HETATM   17  C   UNL     1      42.329  -9.178  -0.908  1.00  0.00     0.029 A 
HETATM   18  C   UNL     1      42.211  -8.255  -1.953  1.00  0.00     0.002 A 
HETATM   19  C   UNL     1      41.025  -8.159  -2.675  1.00  0.00     0.000 A 
HETATM   20  C   UNL     1      39.955  -8.992  -2.359  1.00  0.00     0.002 A 
HETATM   21  C   UNL     1      40.075  -9.921  -1.323  1.00  0.00     0.029 A 
ENDBRANCH  13  16
ENDBRANCH  10  12
BRANCH   9  22
HETATM   22  C   UNL     1      42.905 -11.952   4.425  1.00  0.00    -0.025 A 
HETATM   23  C   UNL     1      44.287 -11.718   4.568  1.00  0.00     0.046 A 
HETATM   24  C   UNL     1      44.782 -11.155   5.742  1.00  0.00     0.066 A 
HETATM   25  C   UNL     1      43.930 -10.800   6.777  1.00  0.00     0.036 A 
HETATM   26  C   UNL     1      42.558 -11.000   6.640  1.00  0.00     0.003 A 
HETATM   27  C   UNL     1      42.047 -11.570   5.471  1.00  0.00     0.010 A 
BRANCH  24  28
HETATM   28  O   UNL     1      46.116 -10.936   5.917  1.00  0.00    -0.361 OA
HETATM   29  H   UNL     1      46.617 -11.505   5.309  1.00  0.00     0.217 HD
ENDBRANCH  24  28
ENDBRANCH   9  22
BRANCH   7  30
HETATM   30  C   UNL     1      42.990 -17.390   3.724  1.00  0.00     0.016 A 
HETATM   31  C   UNL     1      43.015 -18.234   2.604  1.00  0.00     0.039 A 
HETATM   32  C   UNL     1      43.578 -19.506   2.698  1.00  0.00     0.035 A 
HETATM   33 CL   UNL     1      43.597 -20.534   1.318  1.00  0.00    -0.084 Cl
HETATM   34  C   UNL     1      44.122 -19.954   3.899  1.00  0.00     0.024 A 
HETATM   35  C   UNL     1      44.105 -19.123   5.019  1.00  0.00     0.003 A 
HETATM   36  C   UNL     1      43.544 -17.846   4.930  1.00  0.00     0.015 A 
ENDBRANCH   7  30
TORSDOF 5
ENDMDL
MODEL 5
REMARK VINA RESULT:      -9.5      4.277      7.754
REMARK  5 active torsions:
REMARK  status: ('A' for Active; 'I' for Inactive)
REMARK    1  A    between atoms: C_7  and  C_8 
REMARK    2  A    between atoms: C_16  and  C_17 
REMARK    3  A    between atoms: C_19  and  O_20 
REMARK    4  A    between atoms: C_24  and  C_25 
REMARK       I    between atoms: C_25  and  N_26 
REMARK    5  A    between atoms: N_26  and  C_27 
ROOT
HETATM    1  C   UNL     1      41.740  -9.903   3.269  1.00  0.00     0.070 C 
HETATM    2  C   UNL     1      41.544 -11.319   2.785  1.00  0.00     0.037 C 
HETATM    3  N   UNL     1      42.668 -12.144   2.868  1.00  0.00    -0.192 N 
HETATM    4  C   UNL     1      42.579 -13.487   2.769  1.00  0.00     0.726 A 
HETATM    5  N   UNL     1      41.432 -14.039   2.279  1.00  0.00    -0.083 N 
HETATM    6  N   UNL     1      41.444 -15.381   2.366  1.00  0.00    -0.135 NA
HETATM    7  C   UNL     1      42.668 -15.598   2.886  1.00  0.00     0.199 A 
HETATM    8  N   UNL     1      43.394 -14.442   3.134  1.00  0.00    -0.041 NA
HETATM    9  C   UNL     1      40.287 -13.256   1.814  1.00  0.00     0.202 C 
HETATM   10  C   UNL     1      40.369 -11.815   2.311  1.00  0.00     0.062 C 
HETATM   11  H   UNL     1      43.466 -11.767   3.375  1.00  0.00     0.184 HD
ENDROOT
BRANCH  10  12
HETATM   12  C   UNL     1      39.088 -11.059   2.483  1.00  0.00     0.256 C 
HETATM   13  N   UNL     1      38.670 -10.366   1.368  1.00  0.00    -0.323 N 
HETATM   14  H   UNL     1      39.285 -10.316   0.567  1.00  0.00     0.169 HD
HETATM   15  O   UNL     1      38.481 -11.149   3.544  1.00  0.00    -0.267 OA
BRANCH  13  16
HETATM   16  C   UNL     1      37.435  -9.703   1.189  1.00  0.00     0.035 A 
HETATM   17  C   UNL     1      36.330 -10.258   0.541  1.00  0.00     0.029 A 
HETATM   18  C   UNL     1      35.152  -9.519   0.386  1.00  0.00     0.002 A 
HETATM   19  C   UNL     1      35.072  -8.216   0.870  1.00  0.00     0.000 A 
HETATM   20  C   UNL     1      36.166  -7.652   1.518  1.00  0.00     0.002 A 
HETATM   21  C   UNL     1      37.339  -8.393   1.682  1.00  0.00     0.029 A 
ENDBRANCH  13  16
ENDBRANCH  10  12
BRANCH   9  22
HETATM   22  C   UNL     1      40.199 -13.371   0.289  1.00  0.00    -0.025 A 
HETATM   23  C   UNL     1      39.446 -14.382  -0.341  1.00  0.00     0.046 A 
HETATM   24  C   UNL     1      39.413 -14.464  -1.731  1.00  0.00     0.066 A 
HETATM   25  C   UNL     1      40.098 -13.549  -2.516  1.00  0.00     0.036 A 
HETATM   26  C   UNL     1      40.824 -12.527  -1.908  1.00  0.00     0.003 A 
HETATM   27  C   UNL     1      40.873 -12.436  -0.515  1.00  0.00     0.010 A 
BRANCH  24  28
HETATM   28  O   UNL     1      38.709 -15.443  -2.367  1.00  0.00    -0.361 OA
HETATM   29  H   UNL     1      37.773 -15.380  -2.117  1.00  0.00     0.217 HD
ENDBRANCH  24  28
ENDBRANCH   9  22
BRANCH   7  30
HETATM   30  C   UNL     1      43.178 -16.926   3.214  1.00  0.00     0.016 A 
HETATM   31  C   UNL     1      43.095 -17.975   2.286  1.00  0.00     0.039 A 
HETATM   32  C   UNL     1      43.565 -19.245   2.620  1.00  0.00     0.035 A 
HETATM   33 CL   UNL     1      43.451 -20.524   1.474  1.00  0.00    -0.084 Cl
HETATM   34  C   UNL     1      44.120 -19.489   3.873  1.00  0.00     0.024 A 
HETATM   35  C   UNL     1      44.210 -18.453   4.803  1.00  0.00     0.003 A 
HETATM   36  C   UNL     1      43.744 -17.178   4.473  1.00  0.00     0.015 A 
ENDBRANCH   7  30
TORSDOF 5
ENDMDL
MODEL 6
REMARK VINA RESULT:      -9.4      4.607      7.579
REMARK  5 active torsions:
REMARK  status: ('A' for Active; 'I' for Inactive)
REMARK    1  A    between atoms: C_7  and  C_8 
REMARK    2  A    between atoms: C_16  and  C_17 
REMARK    3  A    between atoms: C_19  and  O_20 
REMARK    4  A    between atoms: C_24  and  C_25 
REMARK       I    between atoms: C_25  and  N_26 
REMARK    5  A    between atoms: N_26  and  C_27 
ROOT
HETATM    1  C   UNL     1      45.045  -8.846   8.523  1.00  0.00     0.070 C 
HETATM    2  C   UNL     1      44.041  -9.694   7.783  1.00  0.00     0.037 C 
HETATM    3  N   UNL     1      44.566 -10.501   6.769  1.00  0.00    -0.192 N 
HETATM    4  C   UNL     1      43.866 -11.523   6.233  1.00  0.00     0.726 A 
HETATM    5  N   UNL     1      42.523 -11.592   6.455  1.00  0.00    -0.083 N 
HETATM    6  N   UNL     1      41.993 -12.729   5.972  1.00  0.00    -0.135 NA
HETATM    7  C   UNL     1      43.075 -13.306   5.414  1.00  0.00     0.199 A 
HETATM    8  N   UNL     1      44.244 -12.572   5.552  1.00  0.00    -0.041 NA
HETATM    9  C   UNL     1      41.772 -10.596   7.220  1.00  0.00     0.202 C 
HETATM   10  C   UNL     1      42.709  -9.727   8.056  1.00  0.00     0.062 C 
HETATM   11  H   UNL     1      45.581 -10.554   6.718  1.00  0.00     0.184 HD
ENDROOT
BRANCH  10  12
HETATM   12  C   UNL     1      42.164  -9.113   9.309  1.00  0.00     0.256 C 
HETATM   13  N   UNL     1      42.347  -9.865  10.449  1.00  0.00    -0.323 N 
HETATM   14  H   UNL     1      42.719 -10.801  10.361  1.00  0.00     0.169 HD
HETATM   15  O   UNL     1      41.663  -7.996   9.256  1.00  0.00    -0.267 OA
BRANCH  13  16
HETATM   16  C   UNL     1      42.082  -9.473  11.781  1.00  0.00     0.035 A 
HETATM   17  C   UNL     1      40.944  -9.847  12.499  1.00  0.00     0.029 A 
HETATM   18  C   UNL     1      40.750  -9.392  13.808  1.00  0.00     0.002 A 
HETATM   19  C   UNL     1      41.685  -8.552  14.406  1.00  0.00     0.000 A 
HETATM   20  C   UNL     1      42.823  -8.173  13.699  1.00  0.00     0.002 A 
HETATM   21  C   UNL     1      43.023  -8.635  12.397  1.00  0.00     0.029 A 
ENDBRANCH  13  16
ENDBRANCH  10  12
BRANCH   9  22
HETATM   22  C   UNL     1      40.892  -9.796   6.257  1.00  0.00    -0.025 A 
HETATM   23  C   UNL     1      39.488  -9.908   6.259  1.00  0.00     0.046 A 
HETATM   24  C   UNL     1      38.727  -9.179   5.349  1.00  0.00     0.066 A 
HETATM   25  C   UNL     1      39.331  -8.319   4.443  1.00  0.00     0.036 A 
HETATM   26  C   UNL     1      40.716  -8.176   4.446  1.00  0.00     0.003 A 
HETATM   27  C   UNL     1      41.493  -8.906   5.349  1.00  0.00     0.010 A 
BRANCH  24  28
HETATM   28  O   UNL     1      37.368  -9.283   5.314  1.00  0.00    -0.361 OA
HETATM   29  H   UNL     1      37.043  -8.957   4.459  1.00  0.00     0.217 HD
ENDBRANCH  24  28
ENDBRANCH   9  22
BRANCH   7  30
HETATM   30  C   UNL     1      43.045 -14.612   4.762  1.00  0.00     0.016 A 
HETATM   31  C   UNL     1      43.290 -15.784   5.492  1.00  0.00     0.039 A 
HETATM   32  C   UNL     1      43.282 -17.023   4.853  1.00  0.00     0.035 A 
HETATM   33 CL   UNL     1      43.590 -18.453   5.761  1.00  0.00    -0.084 Cl
HETATM   34  C   UNL     1      43.031 -17.114   3.486  1.00  0.00     0.024 A 
HETATM   35  C   UNL     1      42.784 -15.956   2.750  1.00  0.00     0.003 A 
HETATM   36  C   UNL     1      42.788 -14.712   3.386  1.00  0.00     0.015 A 
ENDBRANCH   7  30
TORSDOF 5
ENDMDL
MODEL 7
REMARK VINA RESULT:      -9.4      4.243      6.495
REMARK  5 active torsions:
REMARK  status: ('A' for Active; 'I' for Inactive)
REMARK    1  A    between atoms: C_7  and  C_8 
REMARK    2  A    between atoms: C_16  and  C_17 
REMARK    3  A    between atoms: C_19  and  O_20 
REMARK    4  A    between atoms: C_24  and  C_25 
REMARK       I    between atoms: C_25  and  N_26 
REMARK    5  A    between atoms: N_26  and  C_27 
ROOT
HETATM    1  C   UNL     1      38.841 -11.153   6.713  1.00  0.00     0.070 C 
HETATM    2  C   UNL     1      40.134 -11.756   6.221  1.00  0.00     0.037 C 
HETATM    3  N   UNL     1      40.245 -13.142   6.367  1.00  0.00    -0.192 N 
HETATM    4  C   UNL     1      41.184 -13.857   5.712  1.00  0.00     0.726 A 
HETATM    5  N   UNL     1      42.232 -13.202   5.137  1.00  0.00    -0.083 N 
HETATM    6  N   UNL     1      43.006 -14.031   4.413  1.00  0.00    -0.135 NA
HETATM    7  C   UNL     1      42.392 -15.212   4.625  1.00  0.00     0.199 A 
HETATM    8  N   UNL     1      41.269 -15.132   5.435  1.00  0.00    -0.041 NA
HETATM    9  C   UNL     1      42.428 -11.754   5.214  1.00  0.00     0.202 C 
HETATM   10  C   UNL     1      41.145 -11.050   5.647  1.00  0.00     0.062 C 
HETATM   11  H   UNL     1      39.401 -13.633   6.652  1.00  0.00     0.184 HD
ENDROOT
BRANCH  10  12
HETATM   12  C   UNL     1      40.942  -9.632   5.209  1.00  0.00     0.256 C 
HETATM   13  N   UNL     1      41.406  -8.681   6.092  1.00  0.00    -0.323 N 
HETATM   14  H   UNL     1      41.738  -8.979   6.999  1.00  0.00     0.169 HD
HETATM   15  O   UNL     1      40.451  -9.413   4.107  1.00  0.00    -0.267 OA
BRANCH  13  16
HETATM   16  C   UNL     1      41.493  -7.286   5.876  1.00  0.00     0.035 A 
HETATM   17  C   UNL     1      41.740  -6.697   4.635  1.00  0.00     0.029 A 
HETATM   18  C   UNL     1      41.834  -5.306   4.517  1.00  0.00     0.002 A 
HETATM   19  C   UNL     1      41.691  -4.494   5.638  1.00  0.00     0.000 A 
HETATM   20  C   UNL     1      41.445  -5.071   6.880  1.00  0.00     0.002 A 
HETATM   21  C   UNL     1      41.339  -6.459   6.998  1.00  0.00     0.029 A 
ENDBRANCH  13  16
ENDBRANCH  10  12
BRANCH   9  22
HETATM   22  C   UNL     1      43.621 -11.467   6.130  1.00  0.00    -0.025 A 
HETATM   23  C   UNL     1      43.469 -11.280   7.519  1.00  0.00     0.046 A 
HETATM   24  C   UNL     1      44.579 -10.997   8.311  1.00  0.00     0.066 A 
HETATM   25  C   UNL     1      45.848 -10.913   7.757  1.00  0.00     0.036 A 
HETATM   26  C   UNL     1      46.019 -11.123   6.391  1.00  0.00     0.003 A 
HETATM   27  C   UNL     1      44.914 -11.401   5.582  1.00  0.00     0.010 A 
BRANCH  24  28
HETATM   28  O   UNL     1      44.459 -10.792   9.653  1.00  0.00    -0.361 OA
HETATM   29  H   UNL     1      43.531 -10.600   9.867  1.00  0.00     0.217 HD
ENDBRANCH  24  28
ENDBRANCH   9  22
BRANCH   7  30
HETATM   30  C   UNL     1      42.832 -16.466   4.020  1.00  0.00     0.016 A 
HETATM   31  C   UNL     1      43.328 -17.510   4.814  1.00  0.00     0.039 A 
HETATM   32  C   UNL     1      43.767 -18.693   4.221  1.00  0.00     0.035 A 
HETATM   33 CL   UNL     1      44.380 -19.964   5.207  1.00  0.00    -0.084 Cl
HETATM   34  C   UNL     1      43.718 -18.855   2.839  1.00  0.00     0.024 A 
HETATM   35  C   UNL     1      43.224 -17.825   2.040  1.00  0.00     0.003 A 
HETATM   36  C   UNL     1      42.781 -16.638   2.628  1.00  0.00     0.015 A 
ENDBRANCH   7  30
TORSDOF 5
ENDMDL
MODEL 8
REMARK VINA RESULT:      -9.3      3.747      9.127
REMARK  5 active torsions:
REMARK  status: ('A' for Active; 'I' for Inactive)
REMARK    1  A    between atoms: C_7  and  C_8 
REMARK    2  A    between atoms: C_16  and  C_17 
REMARK    3  A    between atoms: C_19  and  O_20 
REMARK    4  A    between atoms: C_24  and  C_25 
REMARK       I    between atoms: C_25  and  N_26 
REMARK    5  A    between atoms: N_26  and  C_27 
ROOT
HETATM    1  C   UNL     1      40.576 -15.914   3.710  1.00  0.00     0.070 C 
HETATM    2  C   UNL     1      41.017 -14.499   3.993  1.00  0.00     0.037 C 
HETATM    3  N   UNL     1      41.368 -14.233   5.320  1.00  0.00    -0.192 N 
HETATM    4  C   UNL     1      42.062 -13.129   5.668  1.00  0.00     0.726 A 
HETATM    5  N   UNL     1      42.163 -12.103   4.776  1.00  0.00    -0.083 N 
HETATM    6  N   UNL     1      42.990 -11.137   5.214  1.00  0.00    -0.135 NA
HETATM    7  C   UNL     1      43.335 -11.617   6.425  1.00  0.00     0.199 A 
HETATM    8  N   UNL     1      42.764 -12.843   6.733  1.00  0.00    -0.041 NA
HETATM    9  C   UNL     1      41.530 -12.106   3.457  1.00  0.00     0.202 C 
HETATM   10  C   UNL     1      41.105 -13.516   3.057  1.00  0.00     0.062 C 
HETATM   11  H   UNL     1      41.436 -15.039   5.937  1.00  0.00     0.184 HD
ENDROOT
BRANCH  10  12
HETATM   12  C   UNL     1      41.025 -13.836   1.595  1.00  0.00     0.256 C 
HETATM   13  N   UNL     1      39.801 -13.585   1.014  1.00  0.00    -0.323 N 
HETATM   14  H   UNL     1      39.025 -13.321   1.606  1.00  0.00     0.169 HD
HETATM   15  O   UNL     1      42.031 -14.227   1.015  1.00  0.00    -0.267 OA
BRANCH  13  16
HETATM   16  C   UNL     1      39.483 -13.640  -0.362  1.00  0.00     0.035 A 
HETATM   17  C   UNL     1      39.399 -14.821  -1.103  1.00  0.00     0.029 A 
HETATM   18  C   UNL     1      39.102 -14.781  -2.470  1.00  0.00     0.002 A 
HETATM   19  C   UNL     1      38.895 -13.562  -3.109  1.00  0.00     0.000 A 
HETATM   20  C   UNL     1      38.976 -12.379  -2.380  1.00  0.00     0.002 A 
HETATM   21  C   UNL     1      39.261 -12.418  -1.013  1.00  0.00     0.029 A 
ENDBRANCH  13  16
ENDBRANCH  10  12
BRANCH   9  22
HETATM   22  C   UNL     1      40.377 -11.099   3.462  1.00  0.00    -0.025 A 
HETATM   23  C   UNL     1      39.536 -10.931   4.580  1.00  0.00     0.046 A 
HETATM   24  C   UNL     1      38.484 -10.020   4.532  1.00  0.00     0.066 A 
HETATM   25  C   UNL     1      38.256  -9.253   3.399  1.00  0.00     0.036 A 
HETATM   26  C   UNL     1      39.096  -9.387   2.295  1.00  0.00     0.003 A 
HETATM   27  C   UNL     1      40.151 -10.301   2.326  1.00  0.00     0.010 A 
BRANCH  24  28
HETATM   28  O   UNL     1      37.642  -9.851   5.591  1.00  0.00    -0.361 OA
HETATM   29  H   UNL     1      36.813  -9.450   5.281  1.00  0.00     0.217 HD
ENDBRANCH  24  28
ENDBRANCH   9  22
BRANCH   7  30
HETATM   30  C   UNL     1      44.267 -10.942   7.322  1.00  0.00     0.016 A 
HETATM   31  C   UNL     1      43.842 -10.462   8.570  1.00  0.00     0.039 A 
HETATM   32  C   UNL     1      44.736  -9.797   9.408  1.00  0.00     0.035 A 
HETATM   33 CL   UNL     1      44.199  -9.209  10.933  1.00  0.00    -0.084 Cl
HETATM   34  C   UNL     1      46.059  -9.601   9.020  1.00  0.00     0.024 A 
HETATM   35  C   UNL     1      46.494 -10.075   7.783  1.00  0.00     0.003 A 
HETATM   36  C   UNL     1      45.603 -10.745   6.940  1.00  0.00     0.015 A 
ENDBRANCH   7  30
TORSDOF 5
ENDMDL
MODEL 9
REMARK VINA RESULT:      -9.3      3.466      8.241
REMARK  5 active torsions:
REMARK  status: ('A' for Active; 'I' for Inactive)
REMARK    1  A    between atoms: C_7  and  C_8 
REMARK    2  A    between atoms: C_16  and  C_17 
REMARK    3  A    between atoms: C_19  and  O_20 
REMARK    4  A    between atoms: C_24  and  C_25 
REMARK       I    between atoms: C_25  and  N_26 
REMARK    5  A    between atoms: N_26  and  C_27 
ROOT
HETATM    1  C   UNL     1      40.353 -16.470   6.099  1.00  0.00     0.070 C 
HETATM    2  C   UNL     1      41.160 -15.277   5.648  1.00  0.00     0.037 C 
HETATM    3  N   UNL     1      41.212 -14.210   6.549  1.00  0.00    -0.192 N 
HETATM    4  C   UNL     1      42.122 -13.220   6.434  1.00  0.00     0.726 A 
HETATM    5  N   UNL     1      42.805 -13.083   5.262  1.00  0.00    -0.083 N 
HETATM    6  N   UNL     1      43.763 -12.144   5.347  1.00  0.00    -0.135 NA
HETATM    7  C   UNL     1      43.584 -11.700   6.606  1.00  0.00     0.199 A 
HETATM    8  N   UNL     1      42.566 -12.343   7.295  1.00  0.00    -0.041 NA
HETATM    9  C   UNL     1      42.588 -13.932   4.090  1.00  0.00     0.202 C 
HETATM   10  C   UNL     1      41.829 -15.201   4.466  1.00  0.00     0.062 C 
HETATM   11  H   UNL     1      40.830 -14.385   7.476  1.00  0.00     0.184 HD
ENDROOT
BRANCH  10  12
HETATM   12  C   UNL     1      42.039 -16.420   3.620  1.00  0.00     0.256 C 
HETATM   13  N   UNL     1      43.073 -17.236   4.026  1.00  0.00    -0.323 N 
HETATM   14  H   UNL     1      43.679 -16.920   4.772  1.00  0.00     0.169 HD
HETATM   15  O   UNL     1      41.270 -16.641   2.692  1.00  0.00    -0.267 OA
BRANCH  13  16
HETATM   16  C   UNL     1      43.398 -18.516   3.523  1.00  0.00     0.035 A 
HETATM   17  C   UNL     1      43.255 -18.894   2.186  1.00  0.00     0.029 A 
HETATM   18  C   UNL     1      43.579 -20.193   1.778  1.00  0.00     0.002 A 
HETATM   19  C   UNL     1      44.039 -21.126   2.703  1.00  0.00     0.000 A 
HETATM   20  C   UNL     1      44.186 -20.759   4.038  1.00  0.00     0.002 A 
HETATM   21  C   UNL     1      43.874 -19.460   4.444  1.00  0.00     0.029 A 
ENDBRANCH  13  16
ENDBRANCH  10  12
BRANCH   9  22
HETATM   22  C   UNL     1      41.895 -13.104   3.004  1.00  0.00    -0.025 A 
HETATM   23  C   UNL     1      41.895 -13.498   1.651  1.00  0.00     0.046 A 
HETATM   24  C   UNL     1      41.272 -12.702   0.692  1.00  0.00     0.066 A 
HETATM   25  C   UNL     1      40.629 -11.526   1.050  1.00  0.00     0.036 A 
HETATM   26  C   UNL     1      40.597 -11.138   2.388  1.00  0.00     0.003 A 
HETATM   27  C   UNL     1      41.223 -11.921   3.360  1.00  0.00     0.010 A 
BRANCH  24  28
HETATM   28  O   UNL     1      41.273 -13.048  -0.626  1.00  0.00    -0.361 OA
HETATM   29  H   UNL     1      41.128 -14.005  -0.707  1.00  0.00     0.217 HD
ENDBRANCH  24  28
ENDBRANCH   9  22
BRANCH   7  30
HETATM   30  C   UNL     1      44.415 -10.669   7.222  1.00  0.00     0.016 A 
HETATM   31  C   UNL     1      43.832  -9.547   7.830  1.00  0.00     0.039 A 
HETATM   32  C   UNL     1      44.637  -8.558   8.393  1.00  0.00     0.035 A 
HETATM   33 CL   UNL     1      43.909  -7.184   9.130  1.00  0.00    -0.084 Cl
HETATM   34  C   UNL     1      46.025  -8.669   8.360  1.00  0.00     0.024 A 
HETATM   35  C   UNL     1      46.615  -9.781   7.761  1.00  0.00     0.003 A 
HETATM   36  C   UNL     1      45.814 -10.777   7.197  1.00  0.00     0.015 A 
ENDBRANCH   7  30
TORSDOF 5
ENDMDL
MODEL 10
REMARK VINA RESULT:      -9.2      4.159      7.258
REMARK  5 active torsions:
REMARK  status: ('A' for Active; 'I' for Inactive)
REMARK    1  A    between atoms: C_7  and  C_8 
REMARK    2  A    between atoms: C_16  and  C_17 
REMARK    3  A    between atoms: C_19  and  O_20 
REMARK    4  A    between atoms: C_24  and  C_25 
REMARK       I    between atoms: C_25  and  N_26 
REMARK    5  A    between atoms: N_26  and  C_27 
ROOT
HETATM    1  C   UNL     1      45.080  -9.287   8.472  1.00  0.00     0.070 C 
HETATM    2  C   UNL     1      43.983  -9.916   7.647  1.00  0.00     0.037 C 
HETATM    3  N   UNL     1      44.414 -10.739   6.602  1.00  0.00    -0.192 N 
HETATM    4  C   UNL     1      43.581 -11.600   5.981  1.00  0.00     0.726 A 
HETATM    5  N   UNL     1      42.236 -11.461   6.155  1.00  0.00    -0.083 N 
HETATM    6  N   UNL     1      41.550 -12.467   5.584  1.00  0.00    -0.135 NA
HETATM    7  C   UNL     1      42.548 -13.180   5.026  1.00  0.00     0.199 A 
HETATM    8  N   UNL     1      43.813 -12.657   5.248  1.00  0.00    -0.041 NA
HETATM    9  C   UNL     1      41.625 -10.401   6.956  1.00  0.00     0.202 C 
HETATM   10  C   UNL     1      42.653  -9.745   7.874  1.00  0.00     0.062 C 
HETATM   11  H   UNL     1      45.408 -10.955   6.581  1.00  0.00     0.184 HD
ENDROOT
BRANCH  10  12
HETATM   12  C   UNL     1      42.162  -9.122   9.145  1.00  0.00     0.256 C 
HETATM   13  N   UNL     1      42.254  -9.929  10.259  1.00  0.00    -0.323 N 
HETATM   14  H   UNL     1      42.528 -10.895  10.140  1.00  0.00     0.169 HD
HETATM   15  O   UNL     1      41.781  -7.958   9.129  1.00  0.00    -0.267 OA
BRANCH  13  16
HETATM   16  C   UNL     1      42.017  -9.559  11.602  1.00  0.00     0.035 A 
HETATM   17  C   UNL     1      42.911  -8.826  12.385  1.00  0.00     0.029 A 
HETATM   18  C   UNL     1      42.606  -8.524  13.717  1.00  0.00     0.002 A 
HETATM   19  C   UNL     1      41.410  -8.959  14.279  1.00  0.00     0.000 A 
HETATM   20  C   UNL     1      40.511  -9.690  13.508  1.00  0.00     0.002 A 
HETATM   21  C   UNL     1      40.809  -9.983  12.176  1.00  0.00     0.029 A 
ENDBRANCH  13  16
ENDBRANCH  10  12
BRANCH   9  22
HETATM   22  C   UNL     1      40.927  -9.413   6.017  1.00  0.00    -0.025 A 
HETATM   23  C   UNL     1      41.642  -8.639   5.082  1.00  0.00     0.046 A 
HETATM   24  C   UNL     1      40.970  -7.735   4.263  1.00  0.00     0.066 A 
HETATM   25  C   UNL     1      39.592  -7.594   4.338  1.00  0.00     0.036 A 
HETATM   26  C   UNL     1      38.867  -8.371   5.239  1.00  0.00     0.003 A 
HETATM   27  C   UNL     1      39.528  -9.277   6.072  1.00  0.00     0.010 A 
BRANCH  24  28
HETATM   28  O   UNL     1      41.638  -6.960   3.363  1.00  0.00    -0.361 OA
HETATM   29  H   UNL     1      42.318  -6.444   3.827  1.00  0.00     0.217 HD
ENDBRANCH  24  28
ENDBRANCH   9  22
BRANCH   7  30
HETATM   30  C   UNL     1      42.334 -14.424   4.293  1.00  0.00     0.016 A 
HETATM   31  C   UNL     1      41.301 -14.532   3.350  1.00  0.00     0.039 A 
HETATM   32  C   UNL     1      41.092 -15.734   2.673  1.00  0.00     0.035 A 
HETATM   33 CL   UNL     1      39.817 -15.854   1.523  1.00  0.00    -0.084 Cl
HETATM   34  C   UNL     1      41.902 -16.838   2.923  1.00  0.00     0.024 A 
HETATM   35  C   UNL     1      42.934 -16.742   3.857  1.00  0.00     0.003 A 
HETATM   36  C   UNL     1      43.149 -15.540   4.535  1.00  0.00     0.015 A 
ENDBRANCH   7  30
TORSDOF 5
ENDMDL
