MODEL 1
REMARK VINA RESULT:      -8.3      0.000      0.000
REMARK  7 active torsions:
REMARK  status: ('A' for Active; 'I' for Inactive)
REMARK    1  A    between atoms: C_2  and  N_3 
REMARK    2  A    between atoms: C_2  and  C_17 
REMARK       I    between atoms: N_3  and  C_4 
REMARK    3  A    between atoms: C_4  and  C_5 
REMARK    4  A    between atoms: C_6  and  N_7 
REMARK    5  A    between atoms: C_17  and  O_18 
REMARK    6  A    between atoms: C_17  and  C_19 
REMARK    7  A    between atoms: C_22  and  O_23 
ROOT
HETATM    1  N   UNL     1      42.600 -15.677   3.286  1.00  0.00    -0.350 N 
HETATM    2  C   UNL     1      43.102 -16.672   2.497  1.00  0.00     0.255 C 
HETATM    3  O   UNL     1      43.288 -16.462   1.296  1.00  0.00    -0.268 OA
HETATM    4  H   UNL     1      42.492 -15.834   4.287  1.00  0.00     0.163 HD
ENDROOT
BRANCH   1   5
HETATM    5  C   UNL     1      42.333 -14.327   2.784  1.00  0.00     0.114 C 
HETATM    6  C   UNL     1      42.915 -13.282   3.738  1.00  0.00     0.035 C 
BRANCH   5   7
HETATM    7  C   UNL     1      40.831 -14.091   2.447  1.00  0.00     0.173 C 
BRANCH   7   8
HETATM    8  O   UNL     1      40.036 -15.133   3.033  1.00  0.00    -0.389 OA
HETATM    9  H   UNL     1      40.253 -15.129   3.983  1.00  0.00     0.210 HD
ENDBRANCH   7   8
BRANCH   7  10
HETATM   10  C   UNL     1      40.517 -13.984   0.964  1.00  0.00    -0.028 A 
HETATM   11  C   UNL     1      39.851 -15.027   0.308  1.00  0.00     0.012 A 
HETATM   12  C   UNL     1      39.556 -14.935  -1.056  1.00  0.00     0.037 A 
HETATM   13  C   UNL     1      39.920 -13.805  -1.791  1.00  0.00     0.068 A 
HETATM   14  C   UNL     1      40.574 -12.757  -1.147  1.00  0.00     0.037 A 
HETATM   15  C   UNL     1      40.867 -12.846   0.218  1.00  0.00     0.012 A 
BRANCH  13  16
HETATM   16  O   UNL     1      39.578 -13.846  -3.116  1.00  0.00    -0.356 OA
HETATM   17  C   UNL     1      38.400 -14.567  -3.452  1.00  0.00     0.210 C 
ENDBRANCH  13  16
ENDBRANCH   7  10
ENDBRANCH   5   7
ENDBRANCH   1   5
BRANCH   2  18
HETATM   18  C   UNL     1      43.398 -18.044   3.048  1.00  0.00     0.079 A 
HETATM   19  C   UNL     1      43.765 -18.504   4.322  1.00  0.00     0.165 A 
HETATM   20  N   UNL     1      43.988 -19.844   4.576  1.00  0.00    -0.241 NA
HETATM   21  C   UNL     1      43.865 -20.745   3.586  1.00  0.00     0.119 A 
HETATM   22  C   UNL     1      43.516 -20.396   2.308  1.00  0.00     0.020 A 
HETATM   23  C   UNL     1      43.283 -19.049   2.050  1.00  0.00     0.022 A 
BRANCH  19  24
HETATM   24  N   UNL     1      43.969 -17.691   5.490  1.00  0.00    -0.226 N 
HETATM   25  N   UNL     1      44.811 -16.631   5.571  1.00  0.00    -0.179 NA
HETATM   26  C   UNL     1      44.691 -16.178   6.820  1.00  0.00     0.141 A 
HETATM   27  C   UNL     1      43.773 -16.911   7.574  1.00  0.00     0.040 A 
HETATM   28  C   UNL     1      43.321 -17.873   6.707  1.00  0.00     0.122 A 
ENDBRANCH  19  24
ENDBRANCH   2  18
TORSDOF 7
ENDMDL
MODEL 2
REMARK VINA RESULT:      -7.8      2.817      7.773
REMARK  7 active torsions:
REMARK  status: ('A' for Active; 'I' for Inactive)
REMARK    1  A    between atoms: C_2  and  N_3 
REMARK    2  A    between atoms: C_2  and  C_17 
REMARK       I    between atoms: N_3  and  C_4 
REMARK    3  A    between atoms: C_4  and  C_5 
REMARK    4  A    between atoms: C_6  and  N_7 
REMARK    5  A    between atoms: C_17  and  O_18 
REMARK    6  A    between atoms: C_17  and  C_19 
REMARK    7  A    between atoms: C_22  and  O_23 
ROOT
HETATM    1  N   UNL     1      41.068 -14.032   1.443  1.00  0.00    -0.350 N 
HETATM    2  C   UNL     1      40.225 -14.725   0.621  1.00  0.00     0.255 C 
HETATM    3  O   UNL     1      39.844 -15.850   0.950  1.00  0.00    -0.268 OA
HETATM    4  H   UNL     1      41.343 -13.083   1.196  1.00  0.00     0.163 HD
ENDROOT
BRANCH   1   5
HETATM    5  C   UNL     1      41.493 -14.538   2.751  1.00  0.00     0.114 C 
HETATM    6  C   UNL     1      41.094 -13.555   3.854  1.00  0.00     0.035 C 
BRANCH   5   7
HETATM    7  C   UNL     1      42.998 -14.934   2.788  1.00  0.00     0.173 C 
BRANCH   7   8
HETATM    8  O   UNL     1      43.610 -14.621   1.527  1.00  0.00    -0.389 OA
HETATM    9  H   UNL     1      43.145 -13.831   1.197  1.00  0.00     0.210 HD
ENDBRANCH   7   8
BRANCH   7  10
HETATM   10  C   UNL     1      43.268 -16.389   3.137  1.00  0.00    -0.028 A 
HETATM   11  C   UNL     1      43.071 -17.392   2.179  1.00  0.00     0.012 A 
HETATM   12  C   UNL     1      43.320 -18.732   2.492  1.00  0.00     0.037 A 
HETATM   13  C   UNL     1      43.766 -19.098   3.763  1.00  0.00     0.068 A 
HETATM   14  C   UNL     1      43.975 -18.108   4.721  1.00  0.00     0.037 A 
HETATM   15  C   UNL     1      43.730 -16.766   4.408  1.00  0.00     0.012 A 
BRANCH  13  16
HETATM   16  O   UNL     1      43.965 -20.440   3.939  1.00  0.00    -0.356 OA
HETATM   17  C   UNL     1      44.340 -20.868   5.242  1.00  0.00     0.210 C 
ENDBRANCH  13  16
ENDBRANCH   7  10
ENDBRANCH   5   7
ENDBRANCH   1   5
BRANCH   2  18
HETATM   18  C   UNL     1      39.779 -14.166  -0.705  1.00  0.00     0.079 A 
HETATM   19  C   UNL     1      39.820 -12.878  -1.263  1.00  0.00     0.165 A 
HETATM   20  N   UNL     1      39.330 -12.617  -2.529  1.00  0.00    -0.241 NA
HETATM   21  C   UNL     1      38.786 -13.609  -3.256  1.00  0.00     0.119 A 
HETATM   22  C   UNL     1      38.695 -14.897  -2.800  1.00  0.00     0.020 A 
HETATM   23  C   UNL     1      39.193 -15.166  -1.529  1.00  0.00     0.022 A 
BRANCH  19  24
HETATM   24  N   UNL     1      40.336 -11.696  -0.629  1.00  0.00    -0.226 N 
HETATM   25  N   UNL     1      39.991 -11.254   0.605  1.00  0.00    -0.179 NA
HETATM   26  C   UNL     1      40.696 -10.137   0.792  1.00  0.00     0.141 A 
HETATM   27  C   UNL     1      41.518  -9.830  -0.295  1.00  0.00     0.040 A 
HETATM   28  C   UNL     1      41.275 -10.839  -1.192  1.00  0.00     0.122 A 
ENDBRANCH  19  24
ENDBRANCH   2  18
TORSDOF 7
ENDMDL
MODEL 3
REMARK VINA RESULT:      -7.6      2.217      4.626
REMARK  7 active torsions:
REMARK  status: ('A' for Active; 'I' for Inactive)
REMARK    1  A    between atoms: C_2  and  N_3 
REMARK    2  A    between atoms: C_2  and  C_17 
REMARK       I    between atoms: N_3  and  C_4 
REMARK    3  A    between atoms: C_4  and  C_5 
REMARK    4  A    between atoms: C_6  and  N_7 
REMARK    5  A    between atoms: C_17  and  O_18 
REMARK    6  A    between atoms: C_17  and  C_19 
REMARK    7  A    between atoms: C_22  and  O_23 
ROOT
HETATM    1  N   UNL     1      41.516 -15.396   1.967  1.00  0.00    -0.350 N 
HETATM    2  C   UNL     1      41.408 -16.168   3.089  1.00  0.00     0.255 C 
HETATM    3  O   UNL     1      40.392 -16.093   3.783  1.00  0.00    -0.268 OA
HETATM    4  H   UNL     1      42.333 -15.494   1.366  1.00  0.00     0.163 HD
ENDROOT
BRANCH   1   5
HETATM    5  C   UNL     1      40.438 -14.520   1.501  1.00  0.00     0.114 C 
HETATM    6  C   UNL     1      39.854 -15.050   0.190  1.00  0.00     0.035 C 
BRANCH   5   7
HETATM    7  C   UNL     1      40.861 -13.023   1.431  1.00  0.00     0.173 C 
BRANCH   7   8
HETATM    8  O   UNL     1      41.702 -12.812   0.286  1.00  0.00    -0.389 OA
HETATM    9  H   UNL     1      41.236 -13.223  -0.463  1.00  0.00     0.210 HD
ENDBRANCH   7   8
BRANCH   7  10
HETATM   10  C   UNL     1      41.554 -12.495   2.676  1.00  0.00    -0.028 A 
HETATM   11  C   UNL     1      42.933 -12.248   2.663  1.00  0.00     0.012 A 
HETATM   12  C   UNL     1      43.578 -11.759   3.804  1.00  0.00     0.037 A 
HETATM   13  C   UNL     1      42.864 -11.511   4.978  1.00  0.00     0.068 A 
HETATM   14  C   UNL     1      41.490 -11.744   4.999  1.00  0.00     0.037 A 
HETATM   15  C   UNL     1      40.843 -12.229   3.858  1.00  0.00     0.012 A 
BRANCH  13  16
HETATM   16  O   UNL     1      43.615 -11.042   6.021  1.00  0.00    -0.356 OA
HETATM   17  C   UNL     1      45.003 -11.353   6.003  1.00  0.00     0.210 C 
ENDBRANCH  13  16
ENDBRANCH   7  10
ENDBRANCH   5   7
ENDBRANCH   1   5
BRANCH   2  18
HETATM   18  C   UNL     1      42.520 -17.085   3.527  1.00  0.00     0.079 A 
HETATM   19  C   UNL     1      43.282 -17.171   4.703  1.00  0.00     0.165 A 
HETATM   20  N   UNL     1      44.272 -18.122   4.862  1.00  0.00    -0.241 NA
HETATM   21  C   UNL     1      44.533 -18.992   3.870  1.00  0.00     0.119 A 
HETATM   22  C   UNL     1      43.849 -18.987   2.683  1.00  0.00     0.020 A 
HETATM   23  C   UNL     1      42.847 -18.035   2.522  1.00  0.00     0.022 A 
BRANCH  19  24
HETATM   24  N   UNL     1      43.165 -16.315   5.853  1.00  0.00    -0.226 N 
HETATM   25  N   UNL     1      42.840 -16.723   7.104  1.00  0.00    -0.179 NA
HETATM   26  C   UNL     1      42.843 -15.617   7.850  1.00  0.00     0.141 A 
HETATM   27  C   UNL     1      43.177 -14.475   7.118  1.00  0.00     0.040 A 
HETATM   28  C   UNL     1      43.382 -14.942   5.845  1.00  0.00     0.122 A 
ENDBRANCH  19  24
ENDBRANCH   2  18
TORSDOF 7
ENDMDL
MODEL 4
REMARK VINA RESULT:      -7.4      3.041      6.882
REMARK  7 active torsions:
REMARK  status: ('A' for Active; 'I' for Inactive)
REMARK    1  A    between atoms: C_2  and  N_3 
REMARK    2  A    between atoms: C_2  and  C_17 
REMARK       I    between atoms: N_3  and  C_4 
REMARK    3  A    between atoms: C_4  and  C_5 
REMARK    4  A    between atoms: C_6  and  N_7 
REMARK    5  A    between atoms: C_17  and  O_18 
REMARK    6  A    between atoms: C_17  and  C_19 
REMARK    7  A    between atoms: C_22  and  O_23 
ROOT
HETATM    1  N   UNL     1      40.674 -13.210   1.796  1.00  0.00    -0.350 N 
HETATM    2  C   UNL     1      41.764 -12.653   2.404  1.00  0.00     0.255 C 
HETATM    3  O   UNL     1      42.848 -13.238   2.363  1.00  0.00    -0.268 OA
HETATM    4  H   UNL     1      39.790 -12.703   1.787  1.00  0.00     0.163 HD
ENDROOT
BRANCH   1   5
HETATM    5  C   UNL     1      40.746 -14.454   1.026  1.00  0.00     0.114 C 
HETATM    6  C   UNL     1      40.040 -14.283  -0.321  1.00  0.00     0.035 C 
BRANCH   5   7
HETATM    7  C   UNL     1      40.258 -15.694   1.829  1.00  0.00     0.173 C 
BRANCH   7   8
HETATM    8  O   UNL     1      39.120 -15.334   2.628  1.00  0.00    -0.389 OA
HETATM    9  H   UNL     1      38.358 -15.781   2.219  1.00  0.00     0.210 HD
ENDBRANCH   7   8
BRANCH   7  10
HETATM   10  C   UNL     1      41.313 -16.342   2.711  1.00  0.00    -0.028 A 
HETATM   11  C   UNL     1      42.254 -17.218   2.155  1.00  0.00     0.012 A 
HETATM   12  C   UNL     1      43.230 -17.816   2.959  1.00  0.00     0.037 A 
HETATM   13  C   UNL     1      43.285 -17.555   4.329  1.00  0.00     0.068 A 
HETATM   14  C   UNL     1      42.361 -16.677   4.892  1.00  0.00     0.037 A 
HETATM   15  C   UNL     1      41.386 -16.075   4.088  1.00  0.00     0.012 A 
BRANCH  13  16
HETATM   16  O   UNL     1      44.283 -18.208   5.000  1.00  0.00    -0.356 OA
HETATM   17  C   UNL     1      44.357 -19.618   4.827  1.00  0.00     0.210 C 
ENDBRANCH  13  16
ENDBRANCH   7  10
ENDBRANCH   5   7
ENDBRANCH   1   5
BRANCH   2  18
HETATM   18  C   UNL     1      41.668 -11.355   3.164  1.00  0.00     0.079 A 
HETATM   19  C   UNL     1      42.144 -10.944   4.419  1.00  0.00     0.165 A 
HETATM   20  N   UNL     1      41.913  -9.670   4.903  1.00  0.00    -0.241 NA
HETATM   21  C   UNL     1      41.208  -8.790   4.171  1.00  0.00     0.119 A 
HETATM   22  C   UNL     1      40.698  -9.096   2.937  1.00  0.00     0.020 A 
HETATM   23  C   UNL     1      40.933 -10.376   2.443  1.00  0.00     0.022 A 
BRANCH  19  24
HETATM   24  N   UNL     1      42.888 -11.749   5.348  1.00  0.00    -0.226 N 
HETATM   25  N   UNL     1      42.409 -12.833   6.007  1.00  0.00    -0.179 NA
HETATM   26  C   UNL     1      43.422 -13.268   6.758  1.00  0.00     0.141 A 
HETATM   27  C   UNL     1      44.577 -12.499   6.603  1.00  0.00     0.040 A 
HETATM   28  C   UNL     1      44.217 -11.534   5.697  1.00  0.00     0.122 A 
ENDBRANCH  19  24
ENDBRANCH   2  18
TORSDOF 7
ENDMDL
MODEL 5
REMARK VINA RESULT:      -7.3      3.054      7.892
REMARK  7 active torsions:
REMARK  status: ('A' for Active; 'I' for Inactive)
REMARK    1  A    between atoms: C_2  and  N_3 
REMARK    2  A    between atoms: C_2  and  C_17 
REMARK       I    between atoms: N_3  and  C_4 
REMARK    3  A    between atoms: C_4  and  C_5 
REMARK    4  A    between atoms: C_6  and  N_7 
REMARK    5  A    between atoms: C_17  and  O_18 
REMARK    6  A    between atoms: C_17  and  C_19 
REMARK    7  A    between atoms: C_22  and  O_23 
ROOT
HETATM    1  N   UNL     1      40.863 -13.942   1.560  1.00  0.00    -0.350 N 
HETATM    2  C   UNL     1      40.076 -14.619   0.670  1.00  0.00     0.255 C 
HETATM    3  O   UNL     1      39.896 -15.829   0.815  1.00  0.00    -0.268 OA
HETATM    4  H   UNL     1      40.972 -12.934   1.469  1.00  0.00     0.163 HD
ENDROOT
BRANCH   1   5
HETATM    5  C   UNL     1      41.456 -14.581   2.737  1.00  0.00     0.114 C 
HETATM    6  C   UNL     1      41.307 -13.676   3.962  1.00  0.00     0.035 C 
BRANCH   5   7
HETATM    7  C   UNL     1      42.917 -15.062   2.495  1.00  0.00     0.173 C 
BRANCH   7   8
HETATM    8  O   UNL     1      43.142 -15.229   1.087  1.00  0.00    -0.389 OA
HETATM    9  H   UNL     1      42.285 -15.500   0.712  1.00  0.00     0.210 HD
ENDBRANCH   7   8
BRANCH   7  10
HETATM   10  C   UNL     1      43.301 -16.337   3.227  1.00  0.00    -0.028 A 
HETATM   11  C   UNL     1      43.315 -17.562   2.548  1.00  0.00     0.012 A 
HETATM   12  C   UNL     1      43.670 -18.739   3.214  1.00  0.00     0.037 A 
HETATM   13  C   UNL     1      44.014 -18.719   4.567  1.00  0.00     0.068 A 
HETATM   14  C   UNL     1      44.012 -17.505   5.251  1.00  0.00     0.037 A 
HETATM   15  C   UNL     1      43.661 -16.326   4.585  1.00  0.00     0.012 A 
BRANCH  13  16
HETATM   16  O   UNL     1      44.334 -19.939   5.098  1.00  0.00    -0.356 OA
HETATM   17  C   UNL     1      43.985 -21.084   4.331  1.00  0.00     0.210 C 
ENDBRANCH  13  16
ENDBRANCH   7  10
ENDBRANCH   5   7
ENDBRANCH   1   5
BRANCH   2  18
HETATM   18  C   UNL     1      39.452 -13.929  -0.515  1.00  0.00     0.079 A 
HETATM   19  C   UNL     1      38.897 -12.651  -0.696  1.00  0.00     0.165 A 
HETATM   20  N   UNL     1      38.373 -12.251  -1.911  1.00  0.00    -0.241 NA
HETATM   21  C   UNL     1      38.377 -13.097  -2.956  1.00  0.00     0.119 A 
HETATM   22  C   UNL     1      38.891 -14.364  -2.880  1.00  0.00     0.020 A 
HETATM   23  C   UNL     1      39.426 -14.769  -1.661  1.00  0.00     0.022 A 
BRANCH  19  24
HETATM   24  N   UNL     1      38.781 -11.628   0.307  1.00  0.00    -0.226 N 
HETATM   25  N   UNL     1      39.818 -10.958   0.867  1.00  0.00    -0.179 NA
HETATM   26  C   UNL     1      39.265 -10.113   1.738  1.00  0.00     0.141 A 
HETATM   27  C   UNL     1      37.871 -10.199   1.761  1.00  0.00     0.040 A 
HETATM   28  C   UNL     1      37.581 -11.171   0.838  1.00  0.00     0.122 A 
ENDBRANCH  19  24
ENDBRANCH   2  18
TORSDOF 7
ENDMDL
MODEL 6
REMARK VINA RESULT:      -7.3      4.742      7.928
REMARK  7 active torsions:
REMARK  status: ('A' for Active; 'I' for Inactive)
REMARK    1  A    between atoms: C_2  and  N_3 
REMARK    2  A    between atoms: C_2  and  C_17 
REMARK       I    between atoms: N_3  and  C_4 
REMARK    3  A    between atoms: C_4  and  C_5 
REMARK    4  A    between atoms: C_6  and  N_7 
REMARK    5  A    between atoms: C_17  and  O_18 
REMARK    6  A    between atoms: C_17  and  C_19 
REMARK    7  A    between atoms: C_22  and  O_23 
ROOT
HETATM    1  N   UNL     1      42.493 -13.205   6.884  1.00  0.00    -0.350 N 
HETATM    2  C   UNL     1      43.244 -12.257   6.248  1.00  0.00     0.255 C 
HETATM    3  O   UNL     1      43.308 -12.257   5.017  1.00  0.00    -0.268 OA
HETATM    4  H   UNL     1      42.399 -13.176   7.898  1.00  0.00     0.163 HD
ENDROOT
BRANCH   1   5
HETATM    5  C   UNL     1      41.690 -14.195   6.161  1.00  0.00     0.114 C 
HETATM    6  C   UNL     1      40.210 -13.805   6.198  1.00  0.00     0.035 C 
BRANCH   5   7
HETATM    7  C   UNL     1      41.958 -15.654   6.632  1.00  0.00     0.173 C 
BRANCH   7   8
HETATM    8  O   UNL     1      42.799 -15.638   7.796  1.00  0.00    -0.389 OA
HETATM    9  H   UNL     1      43.572 -15.096   7.556  1.00  0.00     0.210 HD
ENDBRANCH   7   8
BRANCH   7  10
HETATM   10  C   UNL     1      42.565 -16.565   5.578  1.00  0.00    -0.028 A 
HETATM   11  C   UNL     1      43.492 -17.549   5.946  1.00  0.00     0.012 A 
HETATM   12  C   UNL     1      44.053 -18.393   4.982  1.00  0.00     0.037 A 
HETATM   13  C   UNL     1      43.704 -18.271   3.635  1.00  0.00     0.068 A 
HETATM   14  C   UNL     1      42.776 -17.302   3.259  1.00  0.00     0.037 A 
HETATM   15  C   UNL     1      42.211 -16.460   4.222  1.00  0.00     0.012 A 
BRANCH  13  16
HETATM   16  O   UNL     1      44.330 -19.153   2.797  1.00  0.00    -0.356 OA
HETATM   17  C   UNL     1      43.507 -20.111   2.144  1.00  0.00     0.210 C 
ENDBRANCH  13  16
ENDBRANCH   7  10
ENDBRANCH   5   7
ENDBRANCH   1   5
BRANCH   2  18
HETATM   18  C   UNL     1      44.035 -11.231   7.017  1.00  0.00     0.079 A 
HETATM   19  C   UNL     1      43.663 -10.133   7.810  1.00  0.00     0.165 A 
HETATM   20  N   UNL     1      44.603  -9.323   8.419  1.00  0.00    -0.241 NA
HETATM   21  C   UNL     1      45.914  -9.571   8.251  1.00  0.00     0.119 A 
HETATM   22  C   UNL     1      46.378 -10.614   7.493  1.00  0.00     0.020 A 
HETATM   23  C   UNL     1      45.435 -11.436   6.884  1.00  0.00     0.022 A 
BRANCH  19  24
HETATM   24  N   UNL     1      42.320  -9.699   8.080  1.00  0.00    -0.226 N 
HETATM   25  N   UNL     1      41.841  -9.342   9.297  1.00  0.00    -0.179 NA
HETATM   26  C   UNL     1      40.563  -9.015   9.093  1.00  0.00     0.141 A 
HETATM   27  C   UNL     1      40.182  -9.139   7.755  1.00  0.00     0.040 A 
HETATM   28  C   UNL     1      41.319  -9.575   7.123  1.00  0.00     0.122 A 
ENDBRANCH  19  24
ENDBRANCH   2  18
TORSDOF 7
ENDMDL
MODEL 7
REMARK VINA RESULT:      -7.3      2.941      5.379
REMARK  7 active torsions:
REMARK  status: ('A' for Active; 'I' for Inactive)
REMARK    1  A    between atoms: C_2  and  N_3 
REMARK    2  A    between atoms: C_2  and  C_17 
REMARK       I    between atoms: N_3  and  C_4 
REMARK    3  A    between atoms: C_4  and  C_5 
REMARK    4  A    between atoms: C_6  and  N_7 
REMARK    5  A    between atoms: C_17  and  O_18 
REMARK    6  A    between atoms: C_17  and  C_19 
REMARK    7  A    between atoms: C_22  and  O_23 
ROOT
HETATM    1  N   UNL     1      42.787 -15.382   3.528  1.00  0.00    -0.350 N 
HETATM    2  C   UNL     1      42.399 -16.531   2.897  1.00  0.00     0.255 C 
HETATM    3  O   UNL     1      41.493 -16.490   2.062  1.00  0.00    -0.268 OA
HETATM    4  H   UNL     1      43.568 -15.407   4.181  1.00  0.00     0.163 HD
ENDROOT
BRANCH   1   5
HETATM    5  C   UNL     1      42.219 -14.071   3.205  1.00  0.00     0.114 C 
HETATM    6  C   UNL     1      43.313 -13.131   2.696  1.00  0.00     0.035 C 
BRANCH   5   7
HETATM    7  C   UNL     1      41.378 -13.471   4.370  1.00  0.00     0.173 C 
BRANCH   7   8
HETATM    8  O   UNL     1      40.267 -12.737   3.833  1.00  0.00    -0.389 OA
HETATM    9  H   UNL     1      40.635 -12.177   3.127  1.00  0.00     0.210 HD
ENDBRANCH   7   8
BRANCH   7  10
HETATM   10  C   UNL     1      42.156 -12.587   5.331  1.00  0.00    -0.028 A 
HETATM   11  C   UNL     1      43.080 -13.153   6.218  1.00  0.00     0.012 A 
HETATM   12  C   UNL     1      43.802 -12.346   7.103  1.00  0.00     0.037 A 
HETATM   13  C   UNL     1      43.614 -10.962   7.124  1.00  0.00     0.068 A 
HETATM   14  C   UNL     1      42.704 -10.387   6.240  1.00  0.00     0.037 A 
HETATM   15  C   UNL     1      41.984 -11.193   5.350  1.00  0.00     0.012 A 
BRANCH  13  16
HETATM   16  O   UNL     1      44.376 -10.292   8.041  1.00  0.00    -0.356 OA
HETATM   17  C   UNL     1      44.096 -10.540   9.413  1.00  0.00     0.210 C 
ENDBRANCH  13  16
ENDBRANCH   7  10
ENDBRANCH   5   7
ENDBRANCH   1   5
BRANCH   2  18
HETATM   18  C   UNL     1      43.023 -17.862   3.226  1.00  0.00     0.079 A 
HETATM   19  C   UNL     1      43.690 -18.352   4.361  1.00  0.00     0.165 A 
HETATM   20  N   UNL     1      44.185 -19.641   4.415  1.00  0.00    -0.241 NA
HETATM   21  C   UNL     1      44.043 -20.460   3.358  1.00  0.00     0.119 A 
HETATM   22  C   UNL     1      43.413 -20.075   2.204  1.00  0.00     0.020 A 
HETATM   23  C   UNL     1      42.907 -18.780   2.148  1.00  0.00     0.022 A 
BRANCH  19  24
HETATM   24  N   UNL     1      43.958 -17.619   5.569  1.00  0.00    -0.226 N 
HETATM   25  N   UNL     1      44.861 -16.616   5.693  1.00  0.00    -0.179 NA
HETATM   26  C   UNL     1      44.786 -16.226   6.967  1.00  0.00     0.141 A 
HETATM   27  C   UNL     1      43.837 -16.947   7.695  1.00  0.00     0.040 A 
HETATM   28  C   UNL     1      43.317 -17.831   6.784  1.00  0.00     0.122 A 
ENDBRANCH  19  24
ENDBRANCH   2  18
TORSDOF 7
ENDMDL
MODEL 8
REMARK VINA RESULT:      -7.3      3.145      8.621
REMARK  7 active torsions:
REMARK  status: ('A' for Active; 'I' for Inactive)
REMARK    1  A    between atoms: C_2  and  N_3 
REMARK    2  A    between atoms: C_2  and  C_17 
REMARK       I    between atoms: N_3  and  C_4 
REMARK    3  A    between atoms: C_4  and  C_5 
REMARK    4  A    between atoms: C_6  and  N_7 
REMARK    5  A    between atoms: C_17  and  O_18 
REMARK    6  A    between atoms: C_17  and  C_19 
REMARK    7  A    between atoms: C_22  and  O_23 
ROOT
HETATM    1  N   UNL     1      41.185 -14.239   0.336  1.00  0.00    -0.350 N 
HETATM    2  C   UNL     1      41.102 -12.937   0.743  1.00  0.00     0.255 C 
HETATM    3  O   UNL     1      41.158 -12.670   1.945  1.00  0.00    -0.268 OA
HETATM    4  H   UNL     1      41.188 -14.456  -0.659  1.00  0.00     0.163 HD
ENDROOT
BRANCH   1   5
HETATM    5  C   UNL     1      41.411 -15.346   1.268  1.00  0.00     0.114 C 
HETATM    6  C   UNL     1      40.140 -15.628   2.073  1.00  0.00     0.035 C 
BRANCH   5   7
HETATM    7  C   UNL     1      42.674 -15.145   2.155  1.00  0.00     0.173 C 
BRANCH   7   8
HETATM    8  O   UNL     1      43.749 -14.632   1.353  1.00  0.00    -0.389 OA
HETATM    9  H   UNL     1      44.206 -15.413   0.992  1.00  0.00     0.210 HD
ENDBRANCH   7   8
BRANCH   7  10
HETATM   10  C   UNL     1      43.140 -16.387   2.897  1.00  0.00    -0.028 A 
HETATM   11  C   UNL     1      43.467 -16.313   4.257  1.00  0.00     0.012 A 
HETATM   12  C   UNL     1      43.894 -17.452   4.947  1.00  0.00     0.037 A 
HETATM   13  C   UNL     1      44.006 -18.682   4.297  1.00  0.00     0.068 A 
HETATM   14  C   UNL     1      43.675 -18.769   2.946  1.00  0.00     0.037 A 
HETATM   15  C   UNL     1      43.244 -17.632   2.255  1.00  0.00     0.012 A 
BRANCH  13  16
HETATM   16  O   UNL     1      44.441 -19.713   5.085  1.00  0.00    -0.356 OA
HETATM   17  C   UNL     1      43.960 -21.013   4.764  1.00  0.00     0.210 C 
ENDBRANCH  13  16
ENDBRANCH   7  10
ENDBRANCH   5   7
ENDBRANCH   1   5
BRANCH   2  18
HETATM   18  C   UNL     1      40.901 -11.814  -0.242  1.00  0.00     0.079 A 
HETATM   19  C   UNL     1      40.189 -11.715  -1.448  1.00  0.00     0.165 A 
HETATM   20  N   UNL     1      40.164 -10.545  -2.185  1.00  0.00    -0.241 NA
HETATM   21  C   UNL     1      40.841  -9.466  -1.755  1.00  0.00     0.119 A 
HETATM   22  C   UNL     1      41.569  -9.463  -0.594  1.00  0.00     0.020 A 
HETATM   23  C   UNL     1      41.591 -10.636   0.154  1.00  0.00     0.022 A 
BRANCH  19  24
HETATM   24  N   UNL     1      39.434 -12.765  -2.075  1.00  0.00    -0.226 N 
HETATM   25  N   UNL     1      39.937 -13.953  -2.489  1.00  0.00    -0.179 NA
HETATM   26  C   UNL     1      38.901 -14.615  -3.009  1.00  0.00     0.141 A 
HETATM   27  C   UNL     1      37.709 -13.891  -2.939  1.00  0.00     0.040 A 
HETATM   28  C   UNL     1      38.069 -12.712  -2.337  1.00  0.00     0.122 A 
ENDBRANCH  19  24
ENDBRANCH   2  18
TORSDOF 7
ENDMDL
MODEL 9
REMARK VINA RESULT:      -7.1      3.045      6.572
REMARK  7 active torsions:
REMARK  status: ('A' for Active; 'I' for Inactive)
REMARK    1  A    between atoms: C_2  and  N_3 
REMARK    2  A    between atoms: C_2  and  C_17 
REMARK       I    between atoms: N_3  and  C_4 
REMARK    3  A    between atoms: C_4  and  C_5 
REMARK    4  A    between atoms: C_6  and  N_7 
REMARK    5  A    between atoms: C_17  and  O_18 
REMARK    6  A    between atoms: C_17  and  C_19 
REMARK    7  A    between atoms: C_22  and  O_23 
ROOT
HETATM    1  N   UNL     1      42.531 -14.320   4.121  1.00  0.00    -0.350 N 
HETATM    2  C   UNL     1      42.429 -12.992   4.427  1.00  0.00     0.255 C 
HETATM    3  O   UNL     1      41.906 -12.221   3.620  1.00  0.00    -0.268 OA
HETATM    4  H   UNL     1      42.918 -14.966   4.808  1.00  0.00     0.163 HD
ENDROOT
BRANCH   1   5
HETATM    5  C   UNL     1      41.979 -14.894   2.892  1.00  0.00     0.114 C 
HETATM    6  C   UNL     1      40.731 -15.721   3.208  1.00  0.00     0.035 C 
BRANCH   5   7
HETATM    7  C   UNL     1      43.040 -15.668   2.054  1.00  0.00     0.173 C 
BRANCH   7   8
HETATM    8  O   UNL     1      42.658 -15.662   0.670  1.00  0.00    -0.389 OA
HETATM    9  H   UNL     1      42.657 -16.595   0.392  1.00  0.00     0.210 HD
ENDBRANCH   7   8
BRANCH   7  10
HETATM   10  C   UNL     1      43.294 -17.097   2.506  1.00  0.00    -0.028 A 
HETATM   11  C   UNL     1      44.003 -17.346   3.688  1.00  0.00     0.012 A 
HETATM   12  C   UNL     1      44.238 -18.658   4.112  1.00  0.00     0.037 A 
HETATM   13  C   UNL     1      43.777 -19.744   3.366  1.00  0.00     0.068 A 
HETATM   14  C   UNL     1      43.062 -19.508   2.193  1.00  0.00     0.037 A 
HETATM   15  C   UNL     1      42.822 -18.196   1.770  1.00  0.00     0.012 A 
BRANCH  13  16
HETATM   16  O   UNL     1      44.080 -20.972   3.888  1.00  0.00    -0.356 OA
HETATM   17  C   UNL     1      43.878 -21.143   5.285  1.00  0.00     0.210 C 
ENDBRANCH  13  16
ENDBRANCH   7  10
ENDBRANCH   5   7
ENDBRANCH   1   5
BRANCH   2  18
HETATM   18  C   UNL     1      42.978 -12.434   5.714  1.00  0.00     0.079 A 
HETATM   19  C   UNL     1      43.538 -13.032   6.855  1.00  0.00     0.165 A 
HETATM   20  N   UNL     1      43.973 -12.281   7.931  1.00  0.00    -0.241 NA
HETATM   21  C   UNL     1      43.856 -10.942   7.907  1.00  0.00     0.119 A 
HETATM   22  C   UNL     1      43.320 -10.265   6.844  1.00  0.00     0.020 A 
HETATM   23  C   UNL     1      42.887 -11.016   5.755  1.00  0.00     0.022 A 
BRANCH  19  24
HETATM   24  N   UNL     1      43.717 -14.441   7.071  1.00  0.00    -0.226 N 
HETATM   25  N   UNL     1      44.665 -15.210   6.482  1.00  0.00    -0.179 NA
HETATM   26  C   UNL     1      44.471 -16.441   6.960  1.00  0.00     0.141 A 
HETATM   27  C   UNL     1      43.413 -16.505   7.870  1.00  0.00     0.040 A 
HETATM   28  C   UNL     1      42.946 -15.217   7.929  1.00  0.00     0.122 A 
ENDBRANCH  19  24
ENDBRANCH   2  18
TORSDOF 7
ENDMDL
MODEL 10
REMARK VINA RESULT:      -7.1      4.575      7.758
REMARK  7 active torsions:
REMARK  status: ('A' for Active; 'I' for Inactive)
REMARK    1  A    between atoms: C_2  and  N_3 
REMARK    2  A    between atoms: C_2  and  C_17 
REMARK       I    between atoms: N_3  and  C_4 
REMARK    3  A    between atoms: C_4  and  C_5 
REMARK    4  A    between atoms: C_6  and  N_7 
REMARK    5  A    between atoms: C_17  and  O_18 
REMARK    6  A    between atoms: C_17  and  C_19 
REMARK    7  A    between atoms: C_22  and  O_23 
ROOT
HETATM    1  N   UNL     1      41.465 -13.850   6.458  1.00  0.00    -0.350 N 
HETATM    2  C   UNL     1      41.117 -12.834   5.614  1.00  0.00     0.255 C 
HETATM    3  O   UNL     1      40.885 -13.080   4.428  1.00  0.00    -0.268 OA
HETATM    4  H   UNL     1      41.608 -13.655   7.447  1.00  0.00     0.163 HD
ENDROOT
BRANCH   1   5
HETATM    5  C   UNL     1      41.510 -15.252   6.033  1.00  0.00     0.114 C 
HETATM    6  C   UNL     1      40.272 -15.997   6.538  1.00  0.00     0.035 C 
BRANCH   5   7
HETATM    7  C   UNL     1      42.850 -15.954   6.400  1.00  0.00     0.173 C 
BRANCH   7   8
HETATM    8  O   UNL     1      43.920 -14.998   6.366  1.00  0.00    -0.389 OA
HETATM    9  H   UNL     1      43.545 -14.168   6.710  1.00  0.00     0.210 HD
ENDBRANCH   7   8
BRANCH   7  10
HETATM   10  C   UNL     1      43.206 -17.148   5.529  1.00  0.00    -0.028 A 
HETATM   11  C   UNL     1      43.168 -17.038   4.133  1.00  0.00     0.012 A 
HETATM   12  C   UNL     1      43.497 -18.131   3.326  1.00  0.00     0.037 A 
HETATM   13  C   UNL     1      43.865 -19.353   3.892  1.00  0.00     0.068 A 
HETATM   14  C   UNL     1      43.915 -19.472   5.279  1.00  0.00     0.037 A 
HETATM   15  C   UNL     1      43.590 -18.378   6.089  1.00  0.00     0.012 A 
BRANCH  13  16
HETATM   16  O   UNL     1      44.155 -20.341   2.990  1.00  0.00    -0.356 OA
HETATM   17  C   UNL     1      43.408 -20.345   1.780  1.00  0.00     0.210 C 
ENDBRANCH  13  16
ENDBRANCH   7  10
ENDBRANCH   5   7
ENDBRANCH   1   5
BRANCH   2  18
HETATM   18  C   UNL     1      41.048 -11.404   6.085  1.00  0.00     0.079 A 
HETATM   19  C   UNL     1      42.009 -10.519   6.599  1.00  0.00     0.165 A 
HETATM   20  N   UNL     1      41.685  -9.228   6.972  1.00  0.00    -0.241 NA
HETATM   21  C   UNL     1      40.417  -8.794   6.855  1.00  0.00     0.119 A 
HETATM   22  C   UNL     1      39.407  -9.581   6.370  1.00  0.00     0.020 A 
HETATM   23  C   UNL     1      39.731 -10.879   5.987  1.00  0.00     0.022 A 
BRANCH  19  24
HETATM   24  N   UNL     1      43.399 -10.812   6.820  1.00  0.00    -0.226 N 
HETATM   25  N   UNL     1      44.052 -10.674   8.000  1.00  0.00    -0.179 NA
HETATM   26  C   UNL     1      45.308 -11.050   7.756  1.00  0.00     0.141 A 
HETATM   27  C   UNL     1      45.505 -11.447   6.432  1.00  0.00     0.040 A 
HETATM   28  C   UNL     1      44.272 -11.290   5.850  1.00  0.00     0.122 A 
ENDBRANCH  19  24
ENDBRANCH   2  18
TORSDOF 7
ENDMDL
