MODEL 1
REMARK VINA RESULT:      -9.4      0.000      0.000
REMARK  7 active torsions:
REMARK  status: ('A' for Active; 'I' for Inactive)
REMARK    1  A    between atoms: N_7  and  C_8 
REMARK    2  A    between atoms: C_8  and  C_9 
REMARK       I    between atoms: C_9  and  N_10 
REMARK    3  A    between atoms: N_10  and  C_11 
REMARK    4  A    between atoms: C_11  and  C_12 
REMARK    5  A    between atoms: C_12  and  C_13 
REMARK    6  A    between atoms: C_12  and  C_23 
REMARK    7  A    between atoms: C_26  and  O_27 
ROOT
HETATM    1  C   UNL     1      41.124 -14.186   6.409  1.00  0.00     0.136 C 
ENDROOT
BRANCH   1   2
HETATM    2  N   UNL     1      41.225 -12.744   6.261  1.00  0.00    -0.359 N 
HETATM    3  C   UNL     1      40.088 -11.960   6.205  1.00  0.00     0.236 C 
HETATM    4  O   UNL     1      38.952 -12.428   6.206  1.00  0.00    -0.272 OA
HETATM    5  H   UNL     1      42.106 -12.294   6.494  1.00  0.00     0.162 HD
BRANCH   3   6
HETATM    6  C   UNL     1      40.347 -10.462   6.063  1.00  0.00     0.239 C 
BRANCH   6   7
HETATM    7  N   UNL     1      40.965  -9.931   7.259  1.00  0.00    -0.259 N 
HETATM    8  C   UNL     1      40.279  -9.436   8.315  1.00  0.00     0.326 A 
HETATM    9  N   UNL     1      41.171  -9.034   9.272  1.00  0.00    -0.324 N 
HETATM   10  O   UNL     1      39.069  -9.322   8.408  1.00  0.00    -0.247 OA
HETATM   11  C   UNL     1      42.555  -9.277   8.903  1.00  0.00     0.119 A 
HETATM   12  H   UNL     1      40.854  -8.610  10.134  1.00  0.00     0.165 HD
HETATM   13  C   UNL     1      43.215 -10.330   9.828  1.00  0.00     0.019 C 
HETATM   14  C   UNL     1      42.310  -9.869   7.489  1.00  0.00     0.257 A 
HETATM   15  C   UNL     1      43.322  -7.951   8.818  1.00  0.00     0.041 C 
HETATM   16  C   UNL     1      42.985 -10.031  11.318  1.00  0.00     0.013 C 
HETATM   17  C   UNL     1      44.723 -10.460   9.546  1.00  0.00     0.007 C 
HETATM   18  C   UNL     1      45.448  -9.117   9.552  1.00  0.00     0.001 C 
HETATM   19  C   UNL     1      44.819  -8.134   8.573  1.00  0.00     0.003 C 
HETATM   20  O   UNL     1      43.181 -10.247   6.717  1.00  0.00    -0.270 OA
ENDBRANCH   6   7
ENDBRANCH   3   6
ENDBRANCH   1   2
BRANCH   1  21
HETATM   21  C   UNL     1      41.349 -15.063   5.155  1.00  0.00     0.071 C 
BRANCH  21  22
HETATM   22  C   UNL     1      42.543 -15.991   5.198  1.00  0.00    -0.020 A 
HETATM   23  C   UNL     1      42.849 -17.005   4.218  1.00  0.00    -0.001 A 
HETATM   24  C   UNL     1      44.024 -17.644   4.615  1.00  0.00     0.042 A 
HETATM   25  C   UNL     1      42.235 -17.432   3.020  1.00  0.00     0.014 A 
HETATM   26  C   UNL     1      44.610 -18.684   3.886  1.00  0.00     0.030 A 
HETATM   27  N   UNL     1      44.430 -17.047   5.782  1.00  0.00    -0.365 N 
HETATM   28  C   UNL     1      43.981 -19.085   2.705  1.00  0.00     0.002 A 
HETATM   29  C   UNL     1      42.810 -18.468   2.275  1.00  0.00     0.001 A 
HETATM   30  H   UNL     1      45.266 -17.294   6.291  1.00  0.00     0.165 HD
HETATM   31  C   UNL     1      43.558 -16.055   6.138  1.00  0.00     0.097 A 
ENDBRANCH  21  22
BRANCH  21  32
HETATM   32  C   UNL     1      41.381 -14.369   3.801  1.00  0.00    -0.048 A 
HETATM   33  C   UNL     1      40.221 -14.366   3.007  1.00  0.00     0.011 A 
HETATM   34  C   UNL     1      40.204 -13.741   1.756  1.00  0.00     0.037 A 
HETATM   35  C   UNL     1      41.343 -13.107   1.263  1.00  0.00     0.068 A 
HETATM   36  C   UNL     1      42.504 -13.109   2.032  1.00  0.00     0.037 A 
HETATM   37  C   UNL     1      42.521 -13.734   3.286  1.00  0.00     0.011 A 
BRANCH  35  38
HETATM   38  O   UNL     1      41.193 -12.535   0.030  1.00  0.00    -0.356 OA
HETATM   39  C   UNL     1      40.306 -13.183  -0.873  1.00  0.00     0.210 C 
ENDBRANCH  35  38
ENDBRANCH  21  32
ENDBRANCH   1  21
TORSDOF 7
ENDMDL
MODEL 2
REMARK VINA RESULT:      -9.4      2.434      4.998
REMARK  7 active torsions:
REMARK  status: ('A' for Active; 'I' for Inactive)
REMARK    1  A    between atoms: N_7  and  C_8 
REMARK    2  A    between atoms: C_8  and  C_9 
REMARK       I    between atoms: C_9  and  N_10 
REMARK    3  A    between atoms: N_10  and  C_11 
REMARK    4  A    between atoms: C_11  and  C_12 
REMARK    5  A    between atoms: C_12  and  C_13 
REMARK    6  A    between atoms: C_12  and  C_23 
REMARK    7  A    between atoms: C_26  and  O_27 
ROOT
HETATM    1  C   UNL     1      43.557 -13.225   7.053  1.00  0.00     0.136 C 
ENDROOT
BRANCH   1   2
HETATM    2  N   UNL     1      43.262 -11.805   7.150  1.00  0.00    -0.359 N 
HETATM    3  C   UNL     1      44.099 -10.957   7.851  1.00  0.00     0.236 C 
HETATM    4  O   UNL     1      45.080 -11.352   8.476  1.00  0.00    -0.272 OA
HETATM    5  H   UNL     1      42.623 -11.396   6.473  1.00  0.00     0.162 HD
BRANCH   3   6
HETATM    6  C   UNL     1      43.671  -9.491   7.855  1.00  0.00     0.239 C 
BRANCH   6   7
HETATM    7  N   UNL     1      42.730  -9.233   8.924  1.00  0.00    -0.259 N 
HETATM    8  C   UNL     1      41.386  -9.286   8.785  1.00  0.00     0.326 A 
HETATM    9  N   UNL     1      40.804  -9.003   9.991  1.00  0.00    -0.324 N 
HETATM   10  O   UNL     1      40.769  -9.511   7.758  1.00  0.00    -0.247 OA
HETATM   11  C   UNL     1      41.770  -8.766  11.051  1.00  0.00     0.119 A 
HETATM   12  H   UNL     1      39.799  -8.967  10.090  1.00  0.00     0.165 HD
HETATM   13  C   UNL     1      41.698  -9.860  12.143  1.00  0.00     0.019 C 
HETATM   14  C   UNL     1      43.067  -8.918  10.210  1.00  0.00     0.257 A 
HETATM   15  C   UNL     1      41.629  -7.335  11.587  1.00  0.00     0.041 C 
HETATM   16  C   UNL     1      40.261 -10.118  12.624  1.00  0.00     0.013 C 
HETATM   17  C   UNL     1      42.599  -9.516  13.345  1.00  0.00     0.007 C 
HETATM   18  C   UNL     1      42.358  -8.111  13.887  1.00  0.00     0.001 C 
HETATM   19  C   UNL     1      42.515  -7.054  12.800  1.00  0.00     0.003 C 
HETATM   20  O   UNL     1      44.208  -8.802  10.638  1.00  0.00    -0.270 OA
ENDBRANCH   6   7
ENDBRANCH   3   6
ENDBRANCH   1   2
BRANCH   1  21
HETATM   21  C   UNL     1      43.095 -13.979   5.785  1.00  0.00     0.071 C 
BRANCH  21  22
HETATM   22  C   UNL     1      41.686 -13.689   5.315  1.00  0.00    -0.020 A 
HETATM   23  C   UNL     1      41.305 -13.380   3.958  1.00  0.00    -0.001 A 
HETATM   24  C   UNL     1      39.926 -13.174   3.937  1.00  0.00     0.042 A 
HETATM   25  C   UNL     1      42.011 -13.265   2.740  1.00  0.00     0.014 A 
HETATM   26  C   UNL     1      39.220 -12.857   2.771  1.00  0.00     0.030 A 
HETATM   27  N   UNL     1      39.473 -13.356   5.220  1.00  0.00    -0.365 N 
HETATM   28  C   UNL     1      39.944 -12.751   1.581  1.00  0.00     0.002 A 
HETATM   29  C   UNL     1      41.321 -12.953   1.563  1.00  0.00     0.001 A 
HETATM   30  H   UNL     1      38.506 -13.287   5.501  1.00  0.00     0.165 HD
HETATM   31  C   UNL     1      40.514 -13.668   6.051  1.00  0.00     0.097 A 
ENDBRANCH  21  22
BRANCH  21  32
HETATM   32  C   UNL     1      43.263 -15.491   5.759  1.00  0.00    -0.048 A 
HETATM   33  C   UNL     1      43.168 -16.211   6.963  1.00  0.00     0.011 A 
HETATM   34  C   UNL     1      43.316 -17.601   6.986  1.00  0.00     0.037 A 
HETATM   35  C   UNL     1      43.566 -18.310   5.813  1.00  0.00     0.068 A 
HETATM   36  C   UNL     1      43.674 -17.612   4.612  1.00  0.00     0.037 A 
HETATM   37  C   UNL     1      43.524 -16.218   4.588  1.00  0.00     0.011 A 
BRANCH  35  38
HETATM   38  O   UNL     1      43.690 -19.662   5.974  1.00  0.00    -0.356 OA
HETATM   39  C   UNL     1      44.271 -20.386   4.897  1.00  0.00     0.210 C 
ENDBRANCH  35  38
ENDBRANCH  21  32
ENDBRANCH   1  21
TORSDOF 7
ENDMDL
MODEL 3
REMARK VINA RESULT:      -9.2      2.336      4.771
REMARK  7 active torsions:
REMARK  status: ('A' for Active; 'I' for Inactive)
REMARK    1  A    between atoms: N_7  and  C_8 
REMARK    2  A    between atoms: C_8  and  C_9 
REMARK       I    between atoms: C_9  and  N_10 
REMARK    3  A    between atoms: N_10  and  C_11 
REMARK    4  A    between atoms: C_11  and  C_12 
REMARK    5  A    between atoms: C_12  and  C_13 
REMARK    6  A    between atoms: C_12  and  C_23 
REMARK    7  A    between atoms: C_26  and  O_27 
ROOT
HETATM    1  C   UNL     1      40.184 -14.334   3.935  1.00  0.00     0.136 C 
ENDROOT
BRANCH   1   2
HETATM    2  N   UNL     1      39.675 -12.993   4.173  1.00  0.00    -0.359 N 
HETATM    3  C   UNL     1      39.388 -12.565   5.456  1.00  0.00     0.236 C 
HETATM    4  O   UNL     1      39.477 -13.295   6.440  1.00  0.00    -0.272 OA
HETATM    5  H   UNL     1      39.809 -12.290   3.451  1.00  0.00     0.162 HD
BRANCH   3   6
HETATM    6  C   UNL     1      38.874 -11.131   5.554  1.00  0.00     0.239 C 
BRANCH   6   7
HETATM    7  N   UNL     1      39.895 -10.254   6.086  1.00  0.00    -0.259 N 
HETATM    8  C   UNL     1      40.990  -9.855   5.399  1.00  0.00     0.326 A 
HETATM    9  N   UNL     1      41.734  -9.025   6.193  1.00  0.00    -0.324 N 
HETATM   10  O   UNL     1      41.305 -10.195   4.271  1.00  0.00    -0.247 OA
HETATM   11  C   UNL     1      41.134  -8.790   7.496  1.00  0.00     0.119 A 
HETATM   12  H   UNL     1      42.610  -8.639   5.867  1.00  0.00     0.165 HD
HETATM   13  C   UNL     1      40.708  -7.312   7.669  1.00  0.00     0.019 C 
HETATM   14  C   UNL     1      39.887  -9.703   7.336  1.00  0.00     0.257 A 
HETATM   15  C   UNL     1      42.056  -9.311   8.605  1.00  0.00     0.041 C 
HETATM   16  C   UNL     1      41.825  -6.328   7.285  1.00  0.00     0.013 C 
HETATM   17  C   UNL     1      40.232  -7.028   9.106  1.00  0.00     0.007 C 
HETATM   18  C   UNL     1      41.225  -7.495  10.166  1.00  0.00     0.001 C 
HETATM   19  C   UNL     1      41.559  -8.974  10.011  1.00  0.00     0.003 C 
HETATM   20  O   UNL     1      39.022  -9.876   8.184  1.00  0.00    -0.270 OA
ENDBRANCH   6   7
ENDBRANCH   3   6
ENDBRANCH   1   2
BRANCH   1  21
HETATM   21  C   UNL     1      41.617 -14.662   4.412  1.00  0.00     0.071 C 
BRANCH  21  22
HETATM   22  C   UNL     1      42.635 -13.550   4.276  1.00  0.00    -0.020 A 
HETATM   23  C   UNL     1      43.310 -12.897   5.372  1.00  0.00    -0.001 A 
HETATM   24  C   UNL     1      44.161 -11.931   4.835  1.00  0.00     0.042 A 
HETATM   25  C   UNL     1      43.279 -13.048   6.776  1.00  0.00     0.014 A 
HETATM   26  C   UNL     1      44.975 -11.109   5.624  1.00  0.00     0.030 A 
HETATM   27  N   UNL     1      44.025 -11.990   3.471  1.00  0.00    -0.365 N 
HETATM   28  C   UNL     1      44.924 -11.281   7.009  1.00  0.00     0.002 A 
HETATM   29  C   UNL     1      44.090 -12.238   7.580  1.00  0.00     0.001 A 
HETATM   30  H   UNL     1      44.538 -11.414   2.819  1.00  0.00     0.165 HD
HETATM   31  C   UNL     1      43.121 -12.956   3.125  1.00  0.00     0.097 A 
ENDBRANCH  21  22
BRANCH  21  32
HETATM   32  C   UNL     1      42.273 -15.924   3.871  1.00  0.00    -0.048 A 
HETATM   33  C   UNL     1      43.246 -16.576   4.648  1.00  0.00     0.011 A 
HETATM   34  C   UNL     1      43.874 -17.739   4.192  1.00  0.00     0.037 A 
HETATM   35  C   UNL     1      43.553 -18.280   2.948  1.00  0.00     0.068 A 
HETATM   36  C   UNL     1      42.598 -17.641   2.160  1.00  0.00     0.037 A 
HETATM   37  C   UNL     1      41.967 -16.476   2.618  1.00  0.00     0.011 A 
BRANCH  35  38
HETATM   38  O   UNL     1      44.239 -19.417   2.622  1.00  0.00    -0.356 OA
HETATM   39  C   UNL     1      43.527 -20.409   1.893  1.00  0.00     0.210 C 
ENDBRANCH  35  38
ENDBRANCH  21  32
ENDBRANCH   1  21
TORSDOF 7
ENDMDL
MODEL 4
REMARK VINA RESULT:      -9.2      2.575      7.811
REMARK  7 active torsions:
REMARK  status: ('A' for Active; 'I' for Inactive)
REMARK    1  A    between atoms: N_7  and  C_8 
REMARK    2  A    between atoms: C_8  and  C_9 
REMARK       I    between atoms: C_9  and  N_10 
REMARK    3  A    between atoms: N_10  and  C_11 
REMARK    4  A    between atoms: C_11  and  C_12 
REMARK    5  A    between atoms: C_12  and  C_13 
REMARK    6  A    between atoms: C_12  and  C_23 
REMARK    7  A    between atoms: C_26  and  O_27 
ROOT
HETATM    1  C   UNL     1      42.429 -11.074   3.555  1.00  0.00     0.136 C 
ENDROOT
BRANCH   1   2
HETATM    2  N   UNL     1      41.240 -11.740   3.050  1.00  0.00    -0.359 N 
HETATM    3  C   UNL     1      40.102 -11.840   3.829  1.00  0.00     0.236 C 
HETATM    4  O   UNL     1      40.051 -11.443   4.991  1.00  0.00    -0.272 OA
HETATM    5  H   UNL     1      41.145 -11.865   2.045  1.00  0.00     0.162 HD
BRANCH   3   6
HETATM    6  C   UNL     1      38.927 -12.552   3.164  1.00  0.00     0.239 C 
BRANCH   6   7
HETATM    7  N   UNL     1      39.277 -12.985   1.828  1.00  0.00    -0.259 N 
HETATM    8  C   UNL     1      39.648 -14.246   1.508  1.00  0.00     0.326 A 
HETATM    9  N   UNL     1      39.893 -14.308   0.163  1.00  0.00    -0.324 N 
HETATM   10  O   UNL     1      39.784 -15.182   2.278  1.00  0.00    -0.247 OA
HETATM   11  C   UNL     1      39.661 -13.046  -0.520  1.00  0.00     0.119 A 
HETATM   12  H   UNL     1      40.209 -15.165  -0.270  1.00  0.00     0.165 HD
HETATM   13  C   UNL     1      38.477 -13.145  -1.512  1.00  0.00     0.019 C 
HETATM   14  C   UNL     1      39.269 -12.191   0.716  1.00  0.00     0.257 A 
HETATM   15  C   UNL     1      40.964 -12.536  -1.149  1.00  0.00     0.041 C 
HETATM   16  C   UNL     1      38.582 -14.371  -2.434  1.00  0.00     0.013 C 
HETATM   17  C   UNL     1      38.341 -11.864  -2.356  1.00  0.00     0.007 C 
HETATM   18  C   UNL     1      39.650 -11.449  -3.023  1.00  0.00     0.001 C 
HETATM   19  C   UNL     1      40.772 -11.285  -2.005  1.00  0.00     0.003 C 
HETATM   20  O   UNL     1      38.971 -11.005   0.691  1.00  0.00    -0.270 OA
ENDBRANCH   6   7
ENDBRANCH   3   6
ENDBRANCH   1   2
BRANCH   1  21
HETATM   21  C   UNL     1      43.492 -11.934   4.277  1.00  0.00     0.071 C 
BRANCH  21  22
HETATM   22  C   UNL     1      43.120 -13.379   4.529  1.00  0.00    -0.020 A 
HETATM   23  C   UNL     1      43.116 -14.426   3.535  1.00  0.00    -0.001 A 
HETATM   24  C   UNL     1      42.714 -15.607   4.160  1.00  0.00     0.042 A 
HETATM   25  C   UNL     1      43.427 -14.476   2.159  1.00  0.00     0.014 A 
HETATM   26  C   UNL     1      42.603 -16.827   3.484  1.00  0.00     0.030 A 
HETATM   27  N   UNL     1      42.489 -15.305   5.480  1.00  0.00    -0.365 N 
HETATM   28  C   UNL     1      42.917 -16.847   2.124  1.00  0.00     0.002 A 
HETATM   29  C   UNL     1      43.325 -15.690   1.468  1.00  0.00     0.001 A 
HETATM   30  H   UNL     1      42.204 -15.976   6.179  1.00  0.00     0.165 HD
HETATM   31  C   UNL     1      42.733 -13.980   5.714  1.00  0.00     0.097 A 
ENDBRANCH  21  22
BRANCH  21  32
HETATM   32  C   UNL     1      44.074 -11.397   5.576  1.00  0.00    -0.048 A 
HETATM   33  C   UNL     1      43.222 -10.759   6.495  1.00  0.00     0.011 A 
HETATM   34  C   UNL     1      43.713 -10.251   7.702  1.00  0.00     0.037 A 
HETATM   35  C   UNL     1      45.065 -10.361   8.023  1.00  0.00     0.068 A 
HETATM   36  C   UNL     1      45.925 -10.981   7.120  1.00  0.00     0.037 A 
HETATM   37  C   UNL     1      45.433 -11.493   5.911  1.00  0.00     0.011 A 
BRANCH  35  38
HETATM   38  O   UNL     1      45.413  -9.824   9.231  1.00  0.00    -0.356 OA
HETATM   39  C   UNL     1      44.444  -9.895  10.268  1.00  0.00     0.210 C 
ENDBRANCH  35  38
ENDBRANCH  21  32
ENDBRANCH   1  21
TORSDOF 7
ENDMDL
MODEL 5
REMARK VINA RESULT:      -9.1     17.309     19.367
REMARK  7 active torsions:
REMARK  status: ('A' for Active; 'I' for Inactive)
REMARK    1  A    between atoms: N_7  and  C_8 
REMARK    2  A    between atoms: C_8  and  C_9 
REMARK       I    between atoms: C_9  and  N_10 
REMARK    3  A    between atoms: N_10  and  C_11 
REMARK    4  A    between atoms: C_11  and  C_12 
REMARK    5  A    between atoms: C_12  and  C_13 
REMARK    6  A    between atoms: C_12  and  C_23 
REMARK    7  A    between atoms: C_26  and  O_27 
ROOT
HETATM    1  C   UNL     1      43.937 -29.361  -1.211  1.00  0.00     0.136 C 
ENDROOT
BRANCH   1   2
HETATM    2  N   UNL     1      44.173 -29.128   0.203  1.00  0.00    -0.359 N 
HETATM    3  C   UNL     1      43.230 -29.493   1.145  1.00  0.00     0.236 C 
HETATM    4  O   UNL     1      42.134 -29.962   0.847  1.00  0.00    -0.272 OA
HETATM    5  H   UNL     1      45.129 -28.975   0.516  1.00  0.00     0.162 HD
BRANCH   3   6
HETATM    6  C   UNL     1      43.619 -29.200   2.592  1.00  0.00     0.239 C 
BRANCH   6   7
HETATM    7  N   UNL     1      44.830 -29.906   2.952  1.00  0.00    -0.259 N 
HETATM    8  C   UNL     1      44.858 -31.139   3.506  1.00  0.00     0.326 A 
HETATM    9  N   UNL     1      46.161 -31.508   3.703  1.00  0.00    -0.324 N 
HETATM   10  O   UNL     1      43.894 -31.817   3.822  1.00  0.00    -0.247 OA
HETATM   11  C   UNL     1      47.113 -30.511   3.244  1.00  0.00     0.119 A 
HETATM   12  H   UNL     1      46.393 -32.392   4.134  1.00  0.00     0.165 HD
HETATM   13  C   UNL     1      47.952 -31.031   2.051  1.00  0.00     0.019 C 
HETATM   14  C   UNL     1      46.100 -29.434   2.771  1.00  0.00     0.257 A 
HETATM   15  C   UNL     1      47.951 -29.996   4.421  1.00  0.00     0.041 C 
HETATM   16  C   UNL     1      48.549 -32.423   2.314  1.00  0.00     0.013 C 
HETATM   17  C   UNL     1      49.073 -30.043   1.677  1.00  0.00     0.007 C 
HETATM   18  C   UNL     1      49.924 -29.627   2.874  1.00  0.00     0.001 C 
HETATM   19  C   UNL     1      49.072 -29.047   3.996  1.00  0.00     0.003 C 
HETATM   20  O   UNL     1      46.392 -28.349   2.286  1.00  0.00    -0.270 OA
ENDBRANCH   6   7
ENDBRANCH   3   6
ENDBRANCH   1   2
BRANCH   1  21
HETATM   21  C   UNL     1      44.940 -30.255  -1.978  1.00  0.00     0.071 C 
BRANCH  21  22
HETATM   22  C   UNL     1      46.367 -29.755  -2.037  1.00  0.00    -0.020 A 
HETATM   23  C   UNL     1      47.545 -30.571  -1.868  1.00  0.00    -0.001 A 
HETATM   24  C   UNL     1      48.661 -29.741  -1.988  1.00  0.00     0.042 A 
HETATM   25  C   UNL     1      47.764 -31.945  -1.632  1.00  0.00     0.014 A 
HETATM   26  C   UNL     1      49.975 -30.210  -1.880  1.00  0.00     0.030 A 
HETATM   27  N   UNL     1      48.193 -28.473  -2.229  1.00  0.00    -0.365 N 
HETATM   28  C   UNL     1      50.161 -31.574  -1.648  1.00  0.00     0.002 A 
HETATM   29  C   UNL     1      49.072 -32.433  -1.526  1.00  0.00     0.001 A 
HETATM   30  H   UNL     1      48.780 -27.665  -2.377  1.00  0.00     0.165 HD
HETATM   31  C   UNL     1      46.826 -28.469  -2.265  1.00  0.00     0.097 A 
ENDBRANCH  21  22
BRANCH  21  32
HETATM   32  C   UNL     1      44.568 -30.688  -3.388  1.00  0.00    -0.048 A 
HETATM   33  C   UNL     1      44.520 -32.060  -3.692  1.00  0.00     0.011 A 
HETATM   34  C   UNL     1      44.183 -32.504  -4.974  1.00  0.00     0.037 A 
HETATM   35  C   UNL     1      43.891 -31.594  -5.989  1.00  0.00     0.068 A 
HETATM   36  C   UNL     1      43.945 -30.230  -5.708  1.00  0.00     0.037 A 
HETATM   37  C   UNL     1      44.280 -29.784  -4.423  1.00  0.00     0.011 A 
BRANCH  35  38
HETATM   38  O   UNL     1      43.577 -32.158  -7.194  1.00  0.00    -0.356 OA
HETATM   39  C   UNL     1      44.089 -31.517  -8.355  1.00  0.00     0.210 C 
ENDBRANCH  35  38
ENDBRANCH  21  32
ENDBRANCH   1  21
TORSDOF 7
ENDMDL
MODEL 6
REMARK VINA RESULT:      -8.9      2.671      5.478
REMARK  7 active torsions:
REMARK  status: ('A' for Active; 'I' for Inactive)
REMARK    1  A    between atoms: N_7  and  C_8 
REMARK    2  A    between atoms: C_8  and  C_9 
REMARK       I    between atoms: C_9  and  N_10 
REMARK    3  A    between atoms: N_10  and  C_11 
REMARK    4  A    between atoms: C_11  and  C_12 
REMARK    5  A    between atoms: C_12  and  C_13 
REMARK    6  A    between atoms: C_12  and  C_23 
REMARK    7  A    between atoms: C_26  and  O_27 
ROOT
HETATM    1  C   UNL     1      40.199 -14.738   4.208  1.00  0.00     0.136 C 
ENDROOT
BRANCH   1   2
HETATM    2  N   UNL     1      39.815 -13.378   3.869  1.00  0.00    -0.359 N 
HETATM    3  C   UNL     1      39.621 -13.008   2.551  1.00  0.00     0.236 C 
HETATM    4  O   UNL     1      39.824 -13.768   1.607  1.00  0.00    -0.272 OA
HETATM    5  H   UNL     1      39.408 -12.795   4.595  1.00  0.00     0.162 HD
BRANCH   3   6
HETATM    6  C   UNL     1      39.207 -11.553   2.346  1.00  0.00     0.239 C 
BRANCH   6   7
HETATM    7  N   UNL     1      40.017 -10.669   3.155  1.00  0.00    -0.259 N 
HETATM    8  C   UNL     1      41.217 -10.174   2.774  1.00  0.00     0.326 A 
HETATM    9  N   UNL     1      41.699  -9.365   3.767  1.00  0.00    -0.324 N 
HETATM   10  O   UNL     1      41.810 -10.421   1.737  1.00  0.00    -0.247 OA
HETATM   11  C   UNL     1      40.795  -9.249   4.899  1.00  0.00     0.119 A 
HETATM   12  H   UNL     1      42.602  -8.918   3.684  1.00  0.00     0.165 HD
HETATM   13  C   UNL     1      40.250  -7.807   5.047  1.00  0.00     0.019 C 
HETATM   14  C   UNL     1      39.680 -10.205   4.395  1.00  0.00     0.257 A 
HETATM   15  C   UNL     1      41.458  -9.801   6.167  1.00  0.00     0.041 C 
HETATM   16  C   UNL     1      41.364  -6.749   4.997  1.00  0.00     0.013 C 
HETATM   17  C   UNL     1      39.431  -7.645   6.342  1.00  0.00     0.007 C 
HETATM   18  C   UNL     1      40.172  -8.137   7.581  1.00  0.00     0.001 C 
HETATM   19  C   UNL     1      40.624  -9.584   7.429  1.00  0.00     0.003 C 
HETATM   20  O   UNL     1      38.651 -10.476   4.999  1.00  0.00    -0.270 OA
ENDBRANCH   6   7
ENDBRANCH   3   6
ENDBRANCH   1   2
BRANCH   1  21
HETATM   21  C   UNL     1      41.677 -15.006   4.574  1.00  0.00     0.071 C 
BRANCH  21  22
HETATM   22  C   UNL     1      42.638 -13.860   4.343  1.00  0.00    -0.020 A 
HETATM   23  C   UNL     1      43.280 -13.087   5.379  1.00  0.00    -0.001 A 
HETATM   24  C   UNL     1      44.083 -12.127   4.761  1.00  0.00     0.042 A 
HETATM   25  C   UNL     1      43.258 -13.124   6.790  1.00  0.00     0.014 A 
HETATM   26  C   UNL     1      44.855 -11.205   5.476  1.00  0.00     0.030 A 
HETATM   27  N   UNL     1      43.949 -12.305   3.407  1.00  0.00    -0.365 N 
HETATM   28  C   UNL     1      44.814 -11.265   6.870  1.00  0.00     0.002 A 
HETATM   29  C   UNL     1      44.028 -12.211   7.521  1.00  0.00     0.001 A 
HETATM   30  H   UNL     1      44.432 -11.759   2.708  1.00  0.00     0.165 HD
HETATM   31  C   UNL     1      43.094 -13.339   3.144  1.00  0.00     0.097 A 
ENDBRANCH  21  22
BRANCH  21  32
HETATM   32  C   UNL     1      42.335 -16.252   4.000  1.00  0.00    -0.048 A 
HETATM   33  C   UNL     1      43.358 -16.883   4.728  1.00  0.00     0.011 A 
HETATM   34  C   UNL     1      43.991 -18.030   4.240  1.00  0.00     0.037 A 
HETATM   35  C   UNL     1      43.624 -18.576   3.011  1.00  0.00     0.068 A 
HETATM   36  C   UNL     1      42.619 -17.959   2.271  1.00  0.00     0.037 A 
HETATM   37  C   UNL     1      41.983 -16.810   2.761  1.00  0.00     0.011 A 
BRANCH  35  38
HETATM   38  O   UNL     1      44.319 -19.697   2.650  1.00  0.00    -0.356 OA
HETATM   39  C   UNL     1      43.683 -20.580   1.736  1.00  0.00     0.210 C 
ENDBRANCH  35  38
ENDBRANCH  21  32
ENDBRANCH   1  21
TORSDOF 7
ENDMDL
MODEL 7
REMARK VINA RESULT:      -8.9      1.995      4.016
REMARK  7 active torsions:
REMARK  status: ('A' for Active; 'I' for Inactive)
REMARK    1  A    between atoms: N_7  and  C_8 
REMARK    2  A    between atoms: C_8  and  C_9 
REMARK       I    between atoms: C_9  and  N_10 
REMARK    3  A    between atoms: N_10  and  C_11 
REMARK    4  A    between atoms: C_11  and  C_12 
REMARK    5  A    between atoms: C_12  and  C_13 
REMARK    6  A    between atoms: C_12  and  C_23 
REMARK    7  A    between atoms: C_26  and  O_27 
ROOT
HETATM    1  C   UNL     1      41.028 -14.276   4.379  1.00  0.00     0.136 C 
ENDROOT
BRANCH   1   2
HETATM    2  N   UNL     1      40.362 -12.993   4.529  1.00  0.00    -0.359 N 
HETATM    3  C   UNL     1      39.701 -12.675   5.701  1.00  0.00     0.236 C 
HETATM    4  O   UNL     1      39.580 -13.463   6.635  1.00  0.00    -0.272 OA
HETATM    5  H   UNL     1      40.628 -12.234   3.907  1.00  0.00     0.162 HD
BRANCH   3   6
HETATM    6  C   UNL     1      39.060 -11.289   5.721  1.00  0.00     0.239 C 
BRANCH   6   7
HETATM    7  N   UNL     1      39.935 -10.327   6.357  1.00  0.00    -0.259 N 
HETATM    8  C   UNL     1      41.011  -9.766   5.761  1.00  0.00     0.326 A 
HETATM    9  N   UNL     1      41.600  -8.896   6.638  1.00  0.00    -0.324 N 
HETATM   10  O   UNL     1      41.430 -10.005   4.641  1.00  0.00    -0.247 OA
HETATM   11  C   UNL     1      40.902  -8.805   7.909  1.00  0.00     0.119 A 
HETATM   12  H   UNL     1      42.440  -8.392   6.388  1.00  0.00     0.165 HD
HETATM   13  C   UNL     1      40.290  -7.399   8.123  1.00  0.00     0.019 C 
HETATM   14  C   UNL     1      39.787  -9.849   7.628  1.00  0.00     0.257 A 
HETATM   15  C   UNL     1      41.814  -9.271   9.051  1.00  0.00     0.041 C 
HETATM   16  C   UNL     1      41.300  -6.271   7.857  1.00  0.00     0.013 C 
HETATM   17  C   UNL     1      39.700  -7.251   9.538  1.00  0.00     0.007 C 
HETATM   18  C   UNL     1      40.680  -7.653  10.637  1.00  0.00     0.001 C 
HETATM   19  C   UNL     1      41.199  -9.071  10.436  1.00  0.00     0.003 C 
HETATM   20  O   UNL     1      38.901 -10.169   8.409  1.00  0.00    -0.270 OA
ENDBRANCH   6   7
ENDBRANCH   3   6
ENDBRANCH   1   2
BRANCH   1  21
HETATM   21  C   UNL     1      42.573 -14.305   4.446  1.00  0.00     0.071 C 
BRANCH  21  22
HETATM   22  C   UNL     1      43.198 -15.635   4.804  1.00  0.00    -0.020 A 
HETATM   23  C   UNL     1      43.249 -16.793   3.944  1.00  0.00    -0.001 A 
HETATM   24  C   UNL     1      43.901 -17.813   4.638  1.00  0.00     0.042 A 
HETATM   25  C   UNL     1      42.806 -17.062   2.631  1.00  0.00     0.014 A 
HETATM   26  C   UNL     1      44.126 -19.082   4.093  1.00  0.00     0.030 A 
HETATM   27  N   UNL     1      44.244 -17.307   5.866  1.00  0.00    -0.365 N 
HETATM   28  C   UNL     1      43.677 -19.320   2.792  1.00  0.00     0.002 A 
HETATM   29  C   UNL     1      43.027 -18.325   2.068  1.00  0.00     0.001 A 
HETATM   30  H   UNL     1      44.746 -17.820   6.577  1.00  0.00     0.165 HD
HETATM   31  C   UNL     1      43.835 -16.006   5.976  1.00  0.00     0.097 A 
ENDBRANCH  21  22
BRANCH  21  32
HETATM   32  C   UNL     1      43.265 -13.251   5.298  1.00  0.00    -0.048 A 
HETATM   33  C   UNL     1      44.067 -12.283   4.671  1.00  0.00     0.011 A 
HETATM   34  C   UNL     1      44.723 -11.296   5.413  1.00  0.00     0.037 A 
HETATM   35  C   UNL     1      44.599 -11.251   6.801  1.00  0.00     0.068 A 
HETATM   36  C   UNL     1      43.816 -12.209   7.441  1.00  0.00     0.037 A 
HETATM   37  C   UNL     1      43.158 -13.197   6.697  1.00  0.00     0.011 A 
BRANCH  35  38
HETATM   38  O   UNL     1      45.289 -10.237   7.406  1.00  0.00    -0.356 OA
HETATM   39  C   UNL     1      45.423 -10.307   8.820  1.00  0.00     0.210 C 
ENDBRANCH  35  38
ENDBRANCH  21  32
ENDBRANCH   1  21
TORSDOF 7
ENDMDL
MODEL 8
REMARK VINA RESULT:      -8.8      3.830      7.811
REMARK  7 active torsions:
REMARK  status: ('A' for Active; 'I' for Inactive)
REMARK    1  A    between atoms: N_7  and  C_8 
REMARK    2  A    between atoms: C_8  and  C_9 
REMARK       I    between atoms: C_9  and  N_10 
REMARK    3  A    between atoms: N_10  and  C_11 
REMARK    4  A    between atoms: C_11  and  C_12 
REMARK    5  A    between atoms: C_12  and  C_13 
REMARK    6  A    between atoms: C_12  and  C_23 
REMARK    7  A    between atoms: C_26  and  O_27 
ROOT
HETATM    1  C   UNL     1      40.825 -15.490   1.189  1.00  0.00     0.136 C 
ENDROOT
BRANCH   1   2
HETATM    2  N   UNL     1      41.038 -14.359   0.301  1.00  0.00    -0.359 N 
HETATM    3  C   UNL     1      40.194 -14.136  -0.771  1.00  0.00     0.236 C 
HETATM    4  O   UNL     1      39.279 -14.898  -1.071  1.00  0.00    -0.272 OA
HETATM    5  H   UNL     1      41.608 -13.585   0.631  1.00  0.00     0.162 HD
BRANCH   3   6
HETATM    6  C   UNL     1      40.531 -12.904  -1.608  1.00  0.00     0.239 C 
BRANCH   6   7
HETATM    7  N   UNL     1      39.720 -11.774  -1.209  1.00  0.00    -0.259 N 
HETATM    8  C   UNL     1      38.747 -11.227  -1.972  1.00  0.00     0.326 A 
HETATM    9  N   UNL     1      38.176 -10.189  -1.286  1.00  0.00    -0.324 N 
HETATM   10  O   UNL     1      38.435 -11.560  -3.103  1.00  0.00    -0.247 OA
HETATM   11  C   UNL     1      38.741 -10.000   0.039  1.00  0.00     0.119 A 
HETATM   12  H   UNL     1      37.440  -9.632  -1.700  1.00  0.00     0.165 HD
HETATM   13  C   UNL     1      37.702 -10.294   1.149  1.00  0.00     0.019 C 
HETATM   14  C   UNL     1      39.815 -11.119  -0.013  1.00  0.00     0.257 A 
HETATM   15  C   UNL     1      39.395  -8.616   0.145  1.00  0.00     0.041 C 
HETATM   16  C   UNL     1      36.363  -9.576   0.907  1.00  0.00     0.013 C 
HETATM   17  C   UNL     1      38.247  -9.929   2.542  1.00  0.00     0.007 C 
HETATM   18  C   UNL     1      38.813  -8.513   2.609  1.00  0.00     0.001 C 
HETATM   19  C   UNL     1      39.888  -8.287   1.553  1.00  0.00     0.003 C 
HETATM   20  O   UNL     1      40.601 -11.391   0.885  1.00  0.00    -0.270 OA
ENDBRANCH   6   7
ENDBRANCH   3   6
ENDBRANCH   1   2
BRANCH   1  21
HETATM   21  C   UNL     1      41.263 -15.347   2.665  1.00  0.00     0.071 C 
BRANCH  21  22
HETATM   22  C   UNL     1      41.873 -14.018   3.053  1.00  0.00    -0.020 A 
HETATM   23  C   UNL     1      41.238 -13.016   3.875  1.00  0.00    -0.001 A 
HETATM   24  C   UNL     1      42.120 -11.942   3.997  1.00  0.00     0.042 A 
HETATM   25  C   UNL     1      39.993 -12.930   4.536  1.00  0.00     0.014 A 
HETATM   26  C   UNL     1      41.822 -10.791   4.735  1.00  0.00     0.030 A 
HETATM   27  N   UNL     1      43.250 -12.268   3.290  1.00  0.00    -0.365 N 
HETATM   28  C   UNL     1      40.584 -10.734   5.378  1.00  0.00     0.002 A 
HETATM   29  C   UNL     1      39.680 -11.788   5.283  1.00  0.00     0.001 A 
HETATM   30  H   UNL     1      44.069 -11.682   3.216  1.00  0.00     0.165 HD
HETATM   31  C   UNL     1      43.117 -13.507   2.726  1.00  0.00     0.097 A 
ENDBRANCH  21  22
BRANCH  21  32
HETATM   32  C   UNL     1      42.163 -16.429   3.245  1.00  0.00    -0.048 A 
HETATM   33  C   UNL     1      42.768 -17.353   2.376  1.00  0.00     0.011 A 
HETATM   34  C   UNL     1      43.603 -18.363   2.865  1.00  0.00     0.037 A 
HETATM   35  C   UNL     1      43.851 -18.483   4.231  1.00  0.00     0.068 A 
HETATM   36  C   UNL     1      43.251 -17.582   5.107  1.00  0.00     0.037 A 
HETATM   37  C   UNL     1      42.416 -16.568   4.619  1.00  0.00     0.011 A 
BRANCH  35  38
HETATM   38  O   UNL     1      44.683 -19.511   4.575  1.00  0.00    -0.356 OA
HETATM   39  C   UNL     1      44.116 -20.565   5.344  1.00  0.00     0.210 C 
ENDBRANCH  35  38
ENDBRANCH  21  32
ENDBRANCH   1  21
TORSDOF 7
ENDMDL
MODEL 9
REMARK VINA RESULT:      -8.8      3.766      7.587
REMARK  7 active torsions:
REMARK  status: ('A' for Active; 'I' for Inactive)
REMARK    1  A    between atoms: N_7  and  C_8 
REMARK    2  A    between atoms: C_8  and  C_9 
REMARK       I    between atoms: C_9  and  N_10 
REMARK    3  A    between atoms: N_10  and  C_11 
REMARK    4  A    between atoms: C_11  and  C_12 
REMARK    5  A    between atoms: C_12  and  C_13 
REMARK    6  A    between atoms: C_12  and  C_23 
REMARK    7  A    between atoms: C_26  and  O_27 
ROOT
HETATM    1  C   UNL     1      39.228  -9.737   1.032  1.00  0.00     0.136 C 
ENDROOT
BRANCH   1   2
HETATM    2  N   UNL     1      39.016 -10.877   1.908  1.00  0.00    -0.359 N 
HETATM    3  C   UNL     1      39.652 -10.952   3.133  1.00  0.00     0.236 C 
HETATM    4  O   UNL     1      40.466 -10.116   3.516  1.00  0.00    -0.272 OA
HETATM    5  H   UNL     1      38.195 -11.456   1.757  1.00  0.00     0.162 HD
BRANCH   3   6
HETATM    6  C   UNL     1      39.324 -12.199   3.951  1.00  0.00     0.239 C 
BRANCH   6   7
HETATM    7  N   UNL     1      40.489 -13.046   4.088  1.00  0.00    -0.259 N 
HETATM    8  C   UNL     1      41.335 -13.013   5.143  1.00  0.00     0.326 A 
HETATM    9  N   UNL     1      42.314 -13.951   4.955  1.00  0.00    -0.324 N 
HETATM   10  O   UNL     1      41.279 -12.257   6.098  1.00  0.00    -0.247 OA
HETATM   11  C   UNL     1      42.149 -14.712   3.728  1.00  0.00     0.119 A 
HETATM   12  H   UNL     1      43.062 -14.065   5.625  1.00  0.00     0.165 HD
HETATM   13  C   UNL     1      41.849 -16.203   4.018  1.00  0.00     0.019 C 
HETATM   14  C   UNL     1      40.882 -13.995   3.187  1.00  0.00     0.257 A 
HETATM   15  C   UNL     1      43.347 -14.485   2.797  1.00  0.00     0.041 C 
HETATM   16  C   UNL     1      42.830 -16.814   5.032  1.00  0.00     0.013 C 
HETATM   17  C   UNL     1      41.845 -17.039   2.725  1.00  0.00     0.007 C 
HETATM   18  C   UNL     1      43.097 -16.833   1.878  1.00  0.00     0.001 C 
HETATM   19  C   UNL     1      43.315 -15.361   1.546  1.00  0.00     0.003 C 
HETATM   20  O   UNL     1      40.311 -14.259   2.138  1.00  0.00    -0.270 OA
ENDBRANCH   6   7
ENDBRANCH   3   6
ENDBRANCH   1   2
BRANCH   1  21
HETATM   21  C   UNL     1      39.518 -10.012  -0.462  1.00  0.00     0.071 C 
BRANCH  21  22
HETATM   22  C   UNL     1      39.895 -11.433  -0.816  1.00  0.00    -0.020 A 
HETATM   23  C   UNL     1      39.087 -12.344  -1.591  1.00  0.00    -0.001 A 
HETATM   24  C   UNL     1      39.780 -13.550  -1.693  1.00  0.00     0.042 A 
HETATM   25  C   UNL     1      37.829 -12.246  -2.225  1.00  0.00     0.014 A 
HETATM   26  C   UNL     1      39.281 -14.659  -2.386  1.00  0.00     0.030 A 
HETATM   27  N   UNL     1      40.964 -13.391  -1.019  1.00  0.00    -0.365 N 
HETATM   28  C   UNL     1      38.035 -14.533  -3.003  1.00  0.00     0.002 A 
HETATM   29  C   UNL     1      37.317 -13.344  -2.927  1.00  0.00     0.001 A 
HETATM   30  H   UNL     1      41.679 -14.100  -0.941  1.00  0.00     0.165 HD
HETATM   31  C   UNL     1      41.048 -12.130  -0.495  1.00  0.00     0.097 A 
ENDBRANCH  21  22
BRANCH  21  32
HETATM   32  C   UNL     1      40.514  -9.104  -1.169  1.00  0.00    -0.048 A 
HETATM   33  C   UNL     1      40.289  -8.758  -2.513  1.00  0.00     0.011 A 
HETATM   34  C   UNL     1      41.178  -7.927  -3.203  1.00  0.00     0.037 A 
HETATM   35  C   UNL     1      42.315  -7.424  -2.574  1.00  0.00     0.068 A 
HETATM   36  C   UNL     1      42.559  -7.766  -1.246  1.00  0.00     0.037 A 
HETATM   37  C   UNL     1      41.668  -8.597  -0.553  1.00  0.00     0.011 A 
BRANCH  35  38
HETATM   38  O   UNL     1      43.099  -6.625  -3.359  1.00  0.00    -0.356 OA
HETATM   39  C   UNL     1      43.086  -6.888  -4.756  1.00  0.00     0.210 C 
ENDBRANCH  35  38
ENDBRANCH  21  32
ENDBRANCH   1  21
TORSDOF 7
ENDMDL
MODEL 10
REMARK VINA RESULT:      -8.7     17.141     20.122
REMARK  7 active torsions:
REMARK  status: ('A' for Active; 'I' for Inactive)
REMARK    1  A    between atoms: N_7  and  C_8 
REMARK    2  A    between atoms: C_8  and  C_9 
REMARK       I    between atoms: C_9  and  N_10 
REMARK    3  A    between atoms: N_10  and  C_11 
REMARK    4  A    between atoms: C_11  and  C_12 
REMARK    5  A    between atoms: C_12  and  C_13 
REMARK    6  A    between atoms: C_12  and  C_23 
REMARK    7  A    between atoms: C_26  and  O_27 
ROOT
HETATM    1  C   UNL     1      50.608 -30.217   1.023  1.00  0.00     0.136 C 
ENDROOT
BRANCH   1   2
HETATM    2  N   UNL     1      49.540 -29.713   1.870  1.00  0.00    -0.359 N 
HETATM    3  C   UNL     1      48.936 -30.532   2.806  1.00  0.00     0.236 C 
HETATM    4  O   UNL     1      49.210 -31.724   2.926  1.00  0.00    -0.272 OA
HETATM    5  H   UNL     1      49.444 -28.707   1.981  1.00  0.00     0.162 HD
BRANCH   3   6
HETATM    6  C   UNL     1      47.841 -29.864   3.634  1.00  0.00     0.239 C 
BRANCH   6   7
HETATM    7  N   UNL     1      46.660 -29.629   2.832  1.00  0.00    -0.259 N 
HETATM    8  C   UNL     1      46.493 -28.564   2.016  1.00  0.00     0.326 A 
HETATM    9  N   UNL     1      45.274 -28.663   1.402  1.00  0.00    -0.324 N 
HETATM   10  O   UNL     1      47.269 -27.635   1.862  1.00  0.00    -0.247 OA
HETATM   11  C   UNL     1      44.545 -29.866   1.768  1.00  0.00     0.119 A 
HETATM   12  H   UNL     1      44.949 -27.945   0.768  1.00  0.00     0.165 HD
HETATM   13  C   UNL     1      44.371 -30.817   0.558  1.00  0.00     0.019 C 
HETATM   14  C   UNL     1      45.569 -30.450   2.778  1.00  0.00     0.257 A 
HETATM   15  C   UNL     1      43.231 -29.498   2.469  1.00  0.00     0.041 C 
HETATM   16  C   UNL     1      43.838 -30.091  -0.689  1.00  0.00     0.013 C 
HETATM   17  C   UNL     1      43.454 -32.005   0.904  1.00  0.00     0.007 C 
HETATM   18  C   UNL     1      42.129 -31.575   1.525  1.00  0.00     0.001 C 
HETATM   19  C   UNL     1      42.342 -30.706   2.759  1.00  0.00     0.003 C 
HETATM   20  O   UNL     1      45.433 -31.493   3.403  1.00  0.00    -0.270 OA
ENDBRANCH   6   7
ENDBRANCH   3   6
ENDBRANCH   1   2
BRANCH   1  21
HETATM   21  C   UNL     1      50.216 -30.943  -0.285  1.00  0.00     0.071 C 
BRANCH  21  22
HETATM   22  C   UNL     1      51.339 -31.198  -1.266  1.00  0.00    -0.020 A 
HETATM   23  C   UNL     1      52.254 -32.313  -1.217  1.00  0.00    -0.001 A 
HETATM   24  C   UNL     1      53.138 -32.188  -2.290  1.00  0.00     0.042 A 
HETATM   25  C   UNL     1      52.404 -33.425  -0.360  1.00  0.00     0.014 A 
HETATM   26  C   UNL     1      54.162 -33.107  -2.545  1.00  0.00     0.030 A 
HETATM   27  N   UNL     1      52.780 -31.053  -2.974  1.00  0.00    -0.365 N 
HETATM   28  C   UNL     1      54.286 -34.198  -1.681  1.00  0.00     0.002 A 
HETATM   29  C   UNL     1      53.420 -34.357  -0.603  1.00  0.00     0.001 A 
HETATM   30  H   UNL     1      53.237 -30.722  -3.811  1.00  0.00     0.165 HD
HETATM   31  C   UNL     1      51.704 -30.456  -2.376  1.00  0.00     0.097 A 
ENDBRANCH  21  22
BRANCH  21  32
HETATM   32  C   UNL     1      49.051 -30.381  -1.087  1.00  0.00    -0.048 A 
HETATM   33  C   UNL     1      48.274 -31.253  -1.868  1.00  0.00     0.011 A 
HETATM   34  C   UNL     1      47.195 -30.781  -2.621  1.00  0.00     0.037 A 
HETATM   35  C   UNL     1      46.865 -29.426  -2.619  1.00  0.00     0.068 A 
HETATM   36  C   UNL     1      47.630 -28.546  -1.858  1.00  0.00     0.037 A 
HETATM   37  C   UNL     1      48.711 -29.019  -1.102  1.00  0.00     0.011 A 
BRANCH  35  38
HETATM   38  O   UNL     1      45.789 -29.097  -3.396  1.00  0.00    -0.356 OA
HETATM   39  C   UNL     1      45.234 -27.801  -3.208  1.00  0.00     0.210 C 
ENDBRANCH  35  38
ENDBRANCH  21  32
ENDBRANCH   1  21
TORSDOF 7
ENDMDL
