MODEL 1
REMARK VINA RESULT:      -8.8      0.000      0.000
REMARK  8 active torsions:
REMARK  status: ('A' for Active; 'I' for Inactive)
REMARK    1  A    between atoms: C_2  and  C_3 
REMARK    2  A    between atoms: C_3  and  C_4 
REMARK    3  A    between atoms: C_7  and  C_8 
REMARK    4  A    between atoms: C_8  and  N_9 
REMARK    5  A    between atoms: C_8  and  C_26 
REMARK    6  A    between atoms: N_9  and  C_12 
REMARK    7  A    between atoms: C_12  and  C_13 
REMARK       I    between atoms: C_13  and  N_14 
REMARK    8  A    between atoms: N_14  and  C_15 
ROOT
HETATM    1  N   UNL     1      39.187 -13.479   1.824  1.00  0.00    -0.054 N 
HETATM    2  H   UNL     1      38.404 -13.364   1.169  1.00  0.00     0.278 HD
HETATM    3  H   UNL     1      39.002 -14.383   2.285  1.00  0.00     0.278 HD
ENDROOT
BRANCH   1   4
HETATM    4  C   UNL     1      40.448 -13.554   1.035  1.00  0.00     0.259 C 
BRANCH   4   5
HETATM    5  C   UNL     1      41.310 -14.747   1.428  1.00  0.00    -0.023 A 
HETATM    6  C   UNL     1      42.715 -14.719   1.377  1.00  0.00     0.010 A 
HETATM    7  C   UNL     1      43.467 -15.825   1.778  1.00  0.00     0.007 A 
HETATM    8  C   UNL     1      42.841 -16.979   2.260  1.00  0.00    -0.058 A 
HETATM    9  C   UNL     1      41.446 -17.013   2.321  1.00  0.00     0.007 A 
HETATM   10  C   UNL     1      40.688 -15.913   1.909  1.00  0.00     0.010 A 
BRANCH   8  11
HETATM   11  C   UNL     1      43.665 -18.152   2.736  1.00  0.00     0.038 C 
BRANCH  11  12
HETATM   12  C   UNL     1      43.104 -19.483   2.230  1.00  0.00     0.000 C 
HETATM   13  C   UNL     1      43.788 -20.665   2.897  1.00  0.00     0.005 C 
ENDBRANCH  11  12
ENDBRANCH   8  11
ENDBRANCH   4   5
BRANCH   4  14
HETATM   14  C   UNL     1      40.179 -13.509  -0.449  1.00  0.00     0.017 A 
HETATM   15  S   UNL     1      40.731 -12.186  -1.404  1.00  0.00    -0.104 SA
HETATM   16  C   UNL     1      40.070 -12.851  -2.830  1.00  0.00     0.050 A 
HETATM   17  C   UNL     1      39.446 -14.056  -2.598  1.00  0.00     0.008 A 
HETATM   18  C   UNL     1      39.509 -14.437  -1.226  1.00  0.00     0.017 A 
ENDBRANCH   4  14
ENDBRANCH   1   4
BRANCH   1  19
HETATM   19  C   UNL     1      39.076 -12.407   2.873  1.00  0.00     0.336 C 
BRANCH  19  20
HETATM   20  C   UNL     1      40.199 -12.610   3.893  1.00  0.00     0.248 C 
HETATM   21  N   UNL     1      41.131 -11.596   3.944  1.00  0.00    -0.326 N 
HETATM   22  H   UNL     1      41.047 -10.820   3.295  1.00  0.00     0.169 HD
HETATM   23  O   UNL     1      40.149 -13.620   4.596  1.00  0.00    -0.271 OA
BRANCH  21  24
HETATM   24  C   UNL     1      42.206 -11.484   4.859  1.00  0.00     0.037 A 
HETATM   25  C   UNL     1      42.041 -11.200   6.222  1.00  0.00     0.061 A 
HETATM   26  C   UNL     1      43.183 -11.094   6.986  1.00  0.00     0.065 A 
HETATM   27  C   UNL     1      44.457 -11.261   6.454  1.00  0.00     0.063 A 
HETATM   28  N   UNL     1      43.317 -10.816   8.341  1.00  0.00    -0.306 N 
HETATM   29  N   UNL     1      45.377 -11.083   7.480  1.00  0.00    -0.307 N 
HETATM   30  C   UNL     1      44.659 -11.547   5.129  1.00  0.00     0.034 A 
HETATM   31  C   UNL     1      44.682 -10.805   8.666  1.00  0.00     0.325 A 
HETATM   32  H   UNL     1      46.381 -11.136   7.425  1.00  0.00     0.170 HD
HETATM   33  O   UNL     1      45.165 -10.593   9.762  1.00  0.00    -0.247 OA
HETATM   34  C   UNL     1      43.513 -11.660   4.328  1.00  0.00     0.032 A 
HETATM   35  H   UNL     1      42.587 -10.646   9.014  1.00  0.00     0.170 HD
ENDBRANCH  21  24
ENDBRANCH  19  20
ENDBRANCH   1  19
TORSDOF 8
ENDMDL
MODEL 2
REMARK VINA RESULT:      -8.5      3.089      7.694
REMARK  8 active torsions:
REMARK  status: ('A' for Active; 'I' for Inactive)
REMARK    1  A    between atoms: C_2  and  C_3 
REMARK    2  A    between atoms: C_3  and  C_4 
REMARK    3  A    between atoms: C_7  and  C_8 
REMARK    4  A    between atoms: C_8  and  N_9 
REMARK    5  A    between atoms: C_8  and  C_26 
REMARK    6  A    between atoms: N_9  and  C_12 
REMARK    7  A    between atoms: C_12  and  C_13 
REMARK       I    between atoms: C_13  and  N_14 
REMARK    8  A    between atoms: N_14  and  C_15 
ROOT
HETATM    1  N   UNL     1      42.354 -11.012   3.311  1.00  0.00    -0.054 N 
HETATM    2  H   UNL     1      43.128 -10.402   3.602  1.00  0.00     0.278 HD
HETATM    3  H   UNL     1      42.722 -11.513   2.487  1.00  0.00     0.278 HD
ENDROOT
BRANCH   1   4
HETATM    4  C   UNL     1      42.078 -11.975   4.414  1.00  0.00     0.259 C 
BRANCH   4   5
HETATM    5  C   UNL     1      42.165 -13.425   3.957  1.00  0.00    -0.023 A 
HETATM    6  C   UNL     1      41.284 -14.420   4.414  1.00  0.00     0.010 A 
HETATM    7  C   UNL     1      41.379 -15.732   3.943  1.00  0.00     0.007 A 
HETATM    8  C   UNL     1      42.340 -16.081   2.988  1.00  0.00    -0.058 A 
HETATM    9  C   UNL     1      43.215 -15.096   2.521  1.00  0.00     0.007 A 
HETATM   10  C   UNL     1      43.131 -13.785   2.999  1.00  0.00     0.010 A 
BRANCH   8  11
HETATM   11  C   UNL     1      42.403 -17.490   2.450  1.00  0.00     0.038 C 
BRANCH  11  12
HETATM   12  C   UNL     1      43.747 -18.154   2.755  1.00  0.00     0.000 C 
HETATM   13  C   UNL     1      43.919 -18.407   4.244  1.00  0.00     0.005 C 
ENDBRANCH  11  12
ENDBRANCH   8  11
ENDBRANCH   4   5
BRANCH   4  14
HETATM   14  C   UNL     1      42.946 -11.704   5.618  1.00  0.00     0.017 A 
HETATM   15  S   UNL     1      42.691 -10.305   6.590  1.00  0.00    -0.104 SA
HETATM   16  C   UNL     1      43.975 -10.715   7.637  1.00  0.00     0.050 A 
HETATM   17  C   UNL     1      44.588 -11.891   7.268  1.00  0.00     0.008 A 
HETATM   18  C   UNL     1      43.996 -12.463   6.104  1.00  0.00     0.017 A 
ENDBRANCH   4  14
ENDBRANCH   1   4
BRANCH   1  19
HETATM   19  C   UNL     1      41.224 -10.139   2.840  1.00  0.00     0.336 C 
BRANCH  19  20
HETATM   20  C   UNL     1      40.330 -10.963   1.910  1.00  0.00     0.248 C 
HETATM   21  N   UNL     1      41.004 -11.757   1.007  1.00  0.00    -0.326 N 
HETATM   22  H   UNL     1      42.018 -11.718   0.981  1.00  0.00     0.169 HD
HETATM   23  O   UNL     1      39.114 -10.881   2.076  1.00  0.00    -0.271 OA
BRANCH  21  24
HETATM   24  C   UNL     1      40.427 -12.686   0.106  1.00  0.00     0.037 A 
HETATM   25  C   UNL     1      39.986 -12.349  -1.180  1.00  0.00     0.061 A 
HETATM   26  C   UNL     1      39.419 -13.353  -1.935  1.00  0.00     0.065 A 
HETATM   27  C   UNL     1      39.281 -14.655  -1.464  1.00  0.00     0.063 A 
HETATM   28  N   UNL     1      38.896 -13.304  -3.221  1.00  0.00    -0.306 N 
HETATM   29  N   UNL     1      38.670 -15.408  -2.459  1.00  0.00    -0.307 N 
HETATM   30  C   UNL     1      39.706 -15.025  -0.215  1.00  0.00     0.034 A 
HETATM   31  C   UNL     1      38.422 -14.580  -3.564  1.00  0.00     0.325 A 
HETATM   32  H   UNL     1      38.427 -16.385  -2.433  1.00  0.00     0.170 HD
HETATM   33  O   UNL     1      37.898 -14.902  -4.614  1.00  0.00    -0.247 OA
HETATM   34  C   UNL     1      40.287 -14.021   0.574  1.00  0.00     0.032 A 
HETATM   35  H   UNL     1      38.844 -12.511  -3.840  1.00  0.00     0.170 HD
ENDBRANCH  21  24
ENDBRANCH  19  20
ENDBRANCH   1  19
TORSDOF 8
ENDMDL
MODEL 3
REMARK VINA RESULT:      -8.2      3.783      5.952
REMARK  8 active torsions:
REMARK  status: ('A' for Active; 'I' for Inactive)
REMARK    1  A    between atoms: C_2  and  C_3 
REMARK    2  A    between atoms: C_3  and  C_4 
REMARK    3  A    between atoms: C_7  and  C_8 
REMARK    4  A    between atoms: C_8  and  N_9 
REMARK    5  A    between atoms: C_8  and  C_26 
REMARK    6  A    between atoms: N_9  and  C_12 
REMARK    7  A    between atoms: C_12  and  C_13 
REMARK       I    between atoms: C_13  and  N_14 
REMARK    8  A    between atoms: N_14  and  C_15 
ROOT
HETATM    1  N   UNL     1      43.302 -12.721   7.223  1.00  0.00    -0.054 N 
HETATM    2  H   UNL     1      42.436 -12.526   7.740  1.00  0.00     0.278 HD
HETATM    3  H   UNL     1      43.652 -13.600   7.637  1.00  0.00     0.278 HD
ENDROOT
BRANCH   1   4
HETATM    4  C   UNL     1      42.953 -12.933   5.791  1.00  0.00     0.259 C 
BRANCH   4   5
HETATM    5  C   UNL     1      43.236 -14.355   5.326  1.00  0.00    -0.023 A 
HETATM    6  C   UNL     1      43.795 -15.333   6.167  1.00  0.00     0.010 A 
HETATM    7  C   UNL     1      44.006 -16.635   5.707  1.00  0.00     0.007 A 
HETATM    8  C   UNL     1      43.647 -17.002   4.406  1.00  0.00    -0.058 A 
HETATM    9  C   UNL     1      43.084 -16.038   3.566  1.00  0.00     0.007 A 
HETATM   10  C   UNL     1      42.881 -14.731   4.017  1.00  0.00     0.010 A 
BRANCH   8  11
HETATM   11  C   UNL     1      43.836 -18.424   3.936  1.00  0.00     0.038 C 
BRANCH  11  12
HETATM   12  C   UNL     1      43.338 -18.618   2.502  1.00  0.00     0.000 C 
HETATM   13  C   UNL     1      43.410 -20.077   2.080  1.00  0.00     0.005 C 
ENDBRANCH  11  12
ENDBRANCH   8  11
ENDBRANCH   4   5
BRANCH   4  14
HETATM   14  C   UNL     1      41.536 -12.507   5.496  1.00  0.00     0.017 A 
HETATM   15  S   UNL     1      41.211 -11.257   4.357  1.00  0.00    -0.104 SA
HETATM   16  C   UNL     1      39.526 -11.382   4.598  1.00  0.00     0.050 A 
HETATM   17  C   UNL     1      39.206 -12.353   5.518  1.00  0.00     0.008 A 
HETATM   18  C   UNL     1      40.364 -13.004   6.036  1.00  0.00     0.017 A 
ENDBRANCH   4  14
ENDBRANCH   1   4
BRANCH   1  19
HETATM   19  C   UNL     1      44.295 -11.642   7.554  1.00  0.00     0.336 C 
BRANCH  19  20
HETATM   20  C   UNL     1      43.571 -10.540   8.333  1.00  0.00     0.248 C 
HETATM   21  N   UNL     1      43.449 -10.767   9.686  1.00  0.00    -0.326 N 
HETATM   22  H   UNL     1      43.793 -11.641  10.070  1.00  0.00     0.169 HD
HETATM   23  O   UNL     1      43.210  -9.547   7.702  1.00  0.00    -0.271 OA
BRANCH  21  24
HETATM   24  C   UNL     1      42.916  -9.872  10.647  1.00  0.00     0.037 A 
HETATM   25  C   UNL     1      41.543  -9.666  10.838  1.00  0.00     0.061 A 
HETATM   26  C   UNL     1      41.172  -8.742  11.791  1.00  0.00     0.065 A 
HETATM   27  C   UNL     1      42.100  -8.033  12.547  1.00  0.00     0.063 A 
HETATM   28  N   UNL     1      39.902  -8.336  12.181  1.00  0.00    -0.306 N 
HETATM   29  N   UNL     1      41.403  -7.187  13.400  1.00  0.00    -0.307 N 
HETATM   30  C   UNL     1      43.451  -8.212  12.393  1.00  0.00     0.034 A 
HETATM   31  C   UNL     1      40.028  -7.364  13.186  1.00  0.00     0.325 A 
HETATM   32  H   UNL     1      41.780  -6.541  14.074  1.00  0.00     0.170 HD
HETATM   33  O   UNL     1      39.121  -6.787  13.755  1.00  0.00    -0.247 OA
HETATM   34  C   UNL     1      43.856  -9.147  11.429  1.00  0.00     0.032 A 
HETATM   35  H   UNL     1      39.013  -8.657  11.831  1.00  0.00     0.170 HD
ENDBRANCH  21  24
ENDBRANCH  19  20
ENDBRANCH   1  19
TORSDOF 8
ENDMDL
MODEL 4
REMARK VINA RESULT:      -7.9      3.129      5.871
REMARK  8 active torsions:
REMARK  status: ('A' for Active; 'I' for Inactive)
REMARK    1  A    between atoms: C_2  and  C_3 
REMARK    2  A    between atoms: C_3  and  C_4 
REMARK    3  A    between atoms: C_7  and  C_8 
REMARK    4  A    between atoms: C_8  and  N_9 
REMARK    5  A    between atoms: C_8  and  C_26 
REMARK    6  A    between atoms: N_9  and  C_12 
REMARK    7  A    between atoms: C_12  and  C_13 
REMARK       I    between atoms: C_13  and  N_14 
REMARK    8  A    between atoms: N_14  and  C_15 
ROOT
HETATM    1  N   UNL     1      43.504 -15.599   4.666  1.00  0.00    -0.054 N 
HETATM    2  H   UNL     1      44.391 -16.115   4.707  1.00  0.00     0.278 HD
HETATM    3  H   UNL     1      43.719 -14.770   4.091  1.00  0.00     0.278 HD
ENDROOT
BRANCH   1   4
HETATM    4  C   UNL     1      42.498 -16.454   3.976  1.00  0.00     0.259 C 
BRANCH   4   5
HETATM    5  C   UNL     1      41.847 -15.749   2.793  1.00  0.00    -0.023 A 
HETATM    6  C   UNL     1      42.549 -14.866   1.955  1.00  0.00     0.010 A 
HETATM    7  C   UNL     1      41.921 -14.267   0.861  1.00  0.00     0.007 A 
HETATM    8  C   UNL     1      40.585 -14.549   0.561  1.00  0.00    -0.058 A 
HETATM    9  C   UNL     1      39.881 -15.432   1.384  1.00  0.00     0.007 A 
HETATM   10  C   UNL     1      40.502 -16.024   2.487  1.00  0.00     0.010 A 
BRANCH   8  11
HETATM   11  C   UNL     1      39.929 -13.933  -0.653  1.00  0.00     0.038 C 
BRANCH  11  12
HETATM   12  C   UNL     1      39.244 -14.988  -1.525  1.00  0.00     0.000 C 
HETATM   13  C   UNL     1      38.930 -14.446  -2.910  1.00  0.00     0.005 C 
ENDBRANCH  11  12
ENDBRANCH   8  11
ENDBRANCH   4   5
BRANCH   4  14
HETATM   14  C   UNL     1      43.076 -17.795   3.594  1.00  0.00     0.017 A 
HETATM   15  S   UNL     1      43.954 -18.734   4.740  1.00  0.00    -0.104 SA
HETATM   16  C   UNL     1      44.234 -19.978   3.606  1.00  0.00     0.050 A 
HETATM   17  C   UNL     1      43.672 -19.699   2.382  1.00  0.00     0.008 A 
HETATM   18  C   UNL     1      43.003 -18.440   2.373  1.00  0.00     0.017 A 
ENDBRANCH   4  14
ENDBRANCH   1   4
BRANCH   1  19
HETATM   19  C   UNL     1      43.183 -15.115   6.053  1.00  0.00     0.336 C 
BRANCH  19  20
HETATM   20  C   UNL     1      41.925 -14.246   5.984  1.00  0.00     0.248 C 
HETATM   21  N   UNL     1      42.042 -13.111   5.210  1.00  0.00    -0.326 N 
HETATM   22  H   UNL     1      42.938 -12.900   4.782  1.00  0.00     0.169 HD
HETATM   23  O   UNL     1      40.925 -14.651   6.576  1.00  0.00    -0.271 OA
BRANCH  21  24
HETATM   24  C   UNL     1      41.009 -12.194   4.897  1.00  0.00     0.037 A 
HETATM   25  C   UNL     1      40.581 -11.181   5.766  1.00  0.00     0.061 A 
HETATM   26  C   UNL     1      39.545 -10.379   5.338  1.00  0.00     0.065 A 
HETATM   27  C   UNL     1      38.934 -10.546   4.099  1.00  0.00     0.063 A 
HETATM   28  N   UNL     1      38.921  -9.319   5.984  1.00  0.00    -0.306 N 
HETATM   29  N   UNL     1      37.932  -9.590   3.983  1.00  0.00    -0.307 N 
HETATM   30  C   UNL     1      39.329 -11.520   3.219  1.00  0.00     0.034 A 
HETATM   31  C   UNL     1      37.910  -8.815   5.151  1.00  0.00     0.325 A 
HETATM   32  H   UNL     1      37.305  -9.444   3.209  1.00  0.00     0.170 HD
HETATM   33  O   UNL     1      37.162  -7.889   5.399  1.00  0.00    -0.247 OA
HETATM   34  C   UNL     1      40.382 -12.350   3.631  1.00  0.00     0.032 A 
HETATM   35  H   UNL     1      39.126  -8.941   6.896  1.00  0.00     0.170 HD
ENDBRANCH  21  24
ENDBRANCH  19  20
ENDBRANCH   1  19
TORSDOF 8
ENDMDL
MODEL 5
REMARK VINA RESULT:      -7.9      3.408      6.262
REMARK  8 active torsions:
REMARK  status: ('A' for Active; 'I' for Inactive)
REMARK    1  A    between atoms: C_2  and  C_3 
REMARK    2  A    between atoms: C_3  and  C_4 
REMARK    3  A    between atoms: C_7  and  C_8 
REMARK    4  A    between atoms: C_8  and  N_9 
REMARK    5  A    between atoms: C_8  and  C_26 
REMARK    6  A    between atoms: N_9  and  C_12 
REMARK    7  A    between atoms: C_12  and  C_13 
REMARK       I    between atoms: C_13  and  N_14 
REMARK    8  A    between atoms: N_14  and  C_15 
ROOT
HETATM    1  N   UNL     1      41.235 -12.914   0.109  1.00  0.00    -0.054 N 
HETATM    2  H   UNL     1      41.372 -12.379  -0.757  1.00  0.00     0.278 HD
HETATM    3  H   UNL     1      42.192 -13.154   0.413  1.00  0.00     0.278 HD
ENDROOT
BRANCH   1   4
HETATM    4  C   UNL     1      40.588 -12.023   1.112  1.00  0.00     0.259 C 
BRANCH   4   5
HETATM    5  C   UNL     1      41.288 -12.061   2.464  1.00  0.00    -0.023 A 
HETATM    6  C   UNL     1      40.614 -12.362   3.660  1.00  0.00     0.010 A 
HETATM    7  C   UNL     1      41.303 -12.418   4.874  1.00  0.00     0.007 A 
HETATM    8  C   UNL     1      42.683 -12.198   4.924  1.00  0.00    -0.058 A 
HETATM    9  C   UNL     1      43.362 -11.906   3.739  1.00  0.00     0.007 A 
HETATM   10  C   UNL     1      42.675 -11.836   2.523  1.00  0.00     0.010 A 
BRANCH   8  11
HETATM   11  C   UNL     1      43.426 -12.308   6.235  1.00  0.00     0.038 C 
BRANCH  11  12
HETATM   12  C   UNL     1      44.265 -11.060   6.519  1.00  0.00     0.000 C 
HETATM   13  C   UNL     1      45.749 -11.386   6.568  1.00  0.00     0.005 C 
ENDBRANCH  11  12
ENDBRANCH   8  11
ENDBRANCH   4   5
BRANCH   4  14
HETATM   14  C   UNL     1      40.435 -10.616   0.588  1.00  0.00     0.017 A 
HETATM   15  S   UNL     1      40.393 -10.306  -1.106  1.00  0.00    -0.104 SA
HETATM   16  C   UNL     1      40.220  -8.626  -0.863  1.00  0.00     0.050 A 
HETATM   17  C   UNL     1      40.188  -8.297   0.473  1.00  0.00     0.008 A 
HETATM   18  C   UNL     1      40.312  -9.443   1.311  1.00  0.00     0.017 A 
ENDBRANCH   4  14
ENDBRANCH   1   4
BRANCH   1  19
HETATM   19  C   UNL     1      40.539 -14.200  -0.243  1.00  0.00     0.336 C 
BRANCH  19  20
HETATM   20  C   UNL     1      40.828 -15.224   0.857  1.00  0.00     0.248 C 
HETATM   21  N   UNL     1      42.157 -15.355   1.197  1.00  0.00    -0.326 N 
HETATM   22  H   UNL     1      42.849 -14.817   0.686  1.00  0.00     0.169 HD
HETATM   23  O   UNL     1      39.864 -15.798   1.363  1.00  0.00    -0.271 OA
BRANCH  21  24
HETATM   24  C   UNL     1      42.685 -16.151   2.243  1.00  0.00     0.037 A 
HETATM   25  C   UNL     1      43.004 -17.509   2.100  1.00  0.00     0.061 A 
HETATM   26  C   UNL     1      43.483 -18.163   3.214  1.00  0.00     0.065 A 
HETATM   27  C   UNL     1      43.657 -17.527   4.439  1.00  0.00     0.063 A 
HETATM   28  N   UNL     1      43.866 -19.491   3.363  1.00  0.00    -0.306 N 
HETATM   29  N   UNL     1      44.144 -18.462   5.344  1.00  0.00    -0.307 N 
HETATM   30  C   UNL     1      43.364 -16.199   4.616  1.00  0.00     0.034 A 
HETATM   31  C   UNL     1      44.281 -19.695   4.688  1.00  0.00     0.325 A 
HETATM   32  H   UNL     1      44.373 -18.322   6.314  1.00  0.00     0.170 HD
HETATM   33  O   UNL     1      44.678 -20.738   5.172  1.00  0.00    -0.247 OA
HETATM   34  C   UNL     1      42.873 -15.509   3.498  1.00  0.00     0.032 A 
HETATM   35  H   UNL     1      43.864 -20.219   2.666  1.00  0.00     0.170 HD
ENDBRANCH  21  24
ENDBRANCH  19  20
ENDBRANCH   1  19
TORSDOF 8
ENDMDL
MODEL 6
REMARK VINA RESULT:      -7.9      3.143      7.607
REMARK  8 active torsions:
REMARK  status: ('A' for Active; 'I' for Inactive)
REMARK    1  A    between atoms: C_2  and  C_3 
REMARK    2  A    between atoms: C_3  and  C_4 
REMARK    3  A    between atoms: C_7  and  C_8 
REMARK    4  A    between atoms: C_8  and  N_9 
REMARK    5  A    between atoms: C_8  and  C_26 
REMARK    6  A    between atoms: N_9  and  C_12 
REMARK    7  A    between atoms: C_12  and  C_13 
REMARK       I    between atoms: C_13  and  N_14 
REMARK    8  A    between atoms: N_14  and  C_15 
ROOT
HETATM    1  N   UNL     1      42.141 -11.563   5.064  1.00  0.00    -0.054 N 
HETATM    2  H   UNL     1      42.644 -10.669   5.016  1.00  0.00     0.278 HD
HETATM    3  H   UNL     1      42.297 -11.992   4.139  1.00  0.00     0.278 HD
ENDROOT
BRANCH   1   4
HETATM    4  C   UNL     1      42.769 -12.396   6.127  1.00  0.00     0.259 C 
BRANCH   4   5
HETATM    5  C   UNL     1      43.077 -13.810   5.654  1.00  0.00    -0.023 A 
HETATM    6  C   UNL     1      43.538 -14.818   6.519  1.00  0.00     0.010 A 
HETATM    7  C   UNL     1      43.776 -16.111   6.048  1.00  0.00     0.007 A 
HETATM    8  C   UNL     1      43.541 -16.439   4.709  1.00  0.00    -0.058 A 
HETATM    9  C   UNL     1      43.075 -15.446   3.844  1.00  0.00     0.007 A 
HETATM   10  C   UNL     1      42.846 -14.147   4.308  1.00  0.00     0.010 A 
BRANCH   8  11
HETATM   11  C   UNL     1      43.756 -17.852   4.221  1.00  0.00     0.038 C 
BRANCH  11  12
HETATM   12  C   UNL     1      43.415 -17.998   2.737  1.00  0.00     0.000 C 
HETATM   13  C   UNL     1      43.468 -19.451   2.293  1.00  0.00     0.005 C 
ENDBRANCH  11  12
ENDBRANCH   8  11
ENDBRANCH   4   5
BRANCH   4  14
HETATM   14  C   UNL     1      43.979 -11.718   6.723  1.00  0.00     0.017 A 
HETATM   15  S   UNL     1      43.885 -10.937   8.255  1.00  0.00    -0.104 SA
HETATM   16  C   UNL     1      45.526 -10.471   8.194  1.00  0.00     0.050 A 
HETATM   17  C   UNL     1      46.142 -10.899   7.040  1.00  0.00     0.008 A 
HETATM   18  C   UNL     1      45.252 -11.619   6.191  1.00  0.00     0.017 A 
ENDBRANCH   4  14
ENDBRANCH   1   4
BRANCH   1  19
HETATM   19  C   UNL     1      40.672 -11.264   5.180  1.00  0.00     0.336 C 
BRANCH  19  20
HETATM   20  C   UNL     1      39.945 -11.955   4.023  1.00  0.00     0.248 C 
HETATM   21  N   UNL     1      39.957 -11.263   2.831  1.00  0.00    -0.326 N 
HETATM   22  H   UNL     1      40.392 -10.347   2.800  1.00  0.00     0.169 HD
HETATM   23  O   UNL     1      39.462 -13.065   4.242  1.00  0.00    -0.271 OA
BRANCH  21  24
HETATM   24  C   UNL     1      39.450 -11.716   1.588  1.00  0.00     0.037 A 
HETATM   25  C   UNL     1      40.058 -12.718   0.820  1.00  0.00     0.061 A 
HETATM   26  C   UNL     1      39.466 -13.036  -0.383  1.00  0.00     0.065 A 
HETATM   27  C   UNL     1      38.311 -12.407  -0.837  1.00  0.00     0.063 A 
HETATM   28  N   UNL     1      39.850 -13.970  -1.338  1.00  0.00    -0.306 N 
HETATM   29  N   UNL     1      37.985 -12.951  -2.074  1.00  0.00    -0.307 N 
HETATM   30  C   UNL     1      37.683 -11.429  -0.112  1.00  0.00     0.034 A 
HETATM   31  C   UNL     1      38.936 -13.929  -2.402  1.00  0.00     0.325 A 
HETATM   32  H   UNL     1      37.208 -12.713  -2.668  1.00  0.00     0.170 HD
HETATM   33  O   UNL     1      38.966 -14.607  -3.411  1.00  0.00    -0.247 OA
HETATM   34  C   UNL     1      38.266 -11.085   1.117  1.00  0.00     0.032 A 
HETATM   35  H   UNL     1      40.643 -14.592  -1.313  1.00  0.00     0.170 HD
ENDBRANCH  21  24
ENDBRANCH  19  20
ENDBRANCH   1  19
TORSDOF 8
ENDMDL
MODEL 7
REMARK VINA RESULT:      -7.9      2.792      4.441
REMARK  8 active torsions:
REMARK  status: ('A' for Active; 'I' for Inactive)
REMARK    1  A    between atoms: C_2  and  C_3 
REMARK    2  A    between atoms: C_3  and  C_4 
REMARK    3  A    between atoms: C_7  and  C_8 
REMARK    4  A    between atoms: C_8  and  N_9 
REMARK    5  A    between atoms: C_8  and  C_26 
REMARK    6  A    between atoms: N_9  and  C_12 
REMARK    7  A    between atoms: C_12  and  C_13 
REMARK       I    between atoms: C_13  and  N_14 
REMARK    8  A    between atoms: N_14  and  C_15 
ROOT
HETATM    1  N   UNL     1      43.235 -12.718   5.093  1.00  0.00    -0.054 N 
HETATM    2  H   UNL     1      42.334 -12.635   5.578  1.00  0.00     0.278 HD
HETATM    3  H   UNL     1      43.657 -13.575   5.485  1.00  0.00     0.278 HD
ENDROOT
BRANCH   1   4
HETATM    4  C   UNL     1      42.970 -12.897   3.639  1.00  0.00     0.259 C 
BRANCH   4   5
HETATM    5  C   UNL     1      42.994 -14.360   3.217  1.00  0.00    -0.023 A 
HETATM    6  C   UNL     1      43.240 -14.766   1.894  1.00  0.00     0.010 A 
HETATM    7  C   UNL     1      43.286 -16.121   1.559  1.00  0.00     0.007 A 
HETATM    8  C   UNL     1      43.111 -17.106   2.536  1.00  0.00    -0.058 A 
HETATM    9  C   UNL     1      42.875 -16.712   3.855  1.00  0.00     0.007 A 
HETATM   10  C   UNL     1      42.815 -15.357   4.193  1.00  0.00     0.010 A 
BRANCH   8  11
HETATM   11  C   UNL     1      43.211 -18.569   2.170  1.00  0.00     0.038 C 
BRANCH  11  12
HETATM   12  C   UNL     1      43.877 -19.386   3.279  1.00  0.00     0.000 C 
HETATM   13  C   UNL     1      43.811 -20.877   2.988  1.00  0.00     0.005 C 
ENDBRANCH  11  12
ENDBRANCH   8  11
ENDBRANCH   4   5
BRANCH   4  14
HETATM   14  C   UNL     1      41.697 -12.203   3.217  1.00  0.00     0.017 A 
HETATM   15  S   UNL     1      41.748 -10.801   2.219  1.00  0.00    -0.104 SA
HETATM   16  C   UNL     1      40.047 -10.658   2.217  1.00  0.00     0.050 A 
HETATM   17  C   UNL     1      39.443 -11.653   2.951  1.00  0.00     0.008 A 
HETATM   18  C   UNL     1      40.393 -12.546   3.528  1.00  0.00     0.017 A 
ENDBRANCH   4  14
ENDBRANCH   1   4
BRANCH   1  19
HETATM   19  C   UNL     1      44.097 -11.560   5.514  1.00  0.00     0.336 C 
BRANCH  19  20
HETATM   20  C   UNL     1      43.990 -11.403   7.033  1.00  0.00     0.248 C 
HETATM   21  N   UNL     1      43.696 -10.128   7.468  1.00  0.00    -0.326 N 
HETATM   22  H   UNL     1      43.616  -9.383   6.784  1.00  0.00     0.169 HD
HETATM   23  O   UNL     1      44.127 -12.417   7.717  1.00  0.00    -0.271 OA
BRANCH  21  24
HETATM   24  C   UNL     1      43.444  -9.731   8.804  1.00  0.00     0.037 A 
HETATM   25  C   UNL     1      42.183  -9.339   9.273  1.00  0.00     0.061 A 
HETATM   26  C   UNL     1      42.094  -8.950  10.592  1.00  0.00     0.065 A 
HETATM   27  C   UNL     1      43.194  -8.942  11.445  1.00  0.00     0.063 A 
HETATM   28  N   UNL     1      40.990  -8.512  11.313  1.00  0.00    -0.306 N 
HETATM   29  N   UNL     1      42.767  -8.496  12.690  1.00  0.00    -0.307 N 
HETATM   30  C   UNL     1      44.441  -9.325  11.026  1.00  0.00     0.034 A 
HETATM   31  C   UNL     1      41.393  -8.223  12.625  1.00  0.00     0.325 A 
HETATM   32  H   UNL     1      43.318  -8.374  13.524  1.00  0.00     0.170 HD
HETATM   33  O   UNL     1      40.687  -7.814  13.527  1.00  0.00    -0.247 OA
HETATM   34  C   UNL     1      44.559  -9.725   9.686  1.00  0.00     0.032 A 
HETATM   35  H   UNL     1      40.041  -8.405  10.989  1.00  0.00     0.170 HD
ENDBRANCH  21  24
ENDBRANCH  19  20
ENDBRANCH   1  19
TORSDOF 8
ENDMDL
MODEL 8
REMARK VINA RESULT:      -7.8      4.829      7.393
REMARK  8 active torsions:
REMARK  status: ('A' for Active; 'I' for Inactive)
REMARK    1  A    between atoms: C_2  and  C_3 
REMARK    2  A    between atoms: C_3  and  C_4 
REMARK    3  A    between atoms: C_7  and  C_8 
REMARK    4  A    between atoms: C_8  and  N_9 
REMARK    5  A    between atoms: C_8  and  C_26 
REMARK    6  A    between atoms: N_9  and  C_12 
REMARK    7  A    between atoms: C_12  and  C_13 
REMARK       I    between atoms: C_13  and  N_14 
REMARK    8  A    between atoms: N_14  and  C_15 
ROOT
HETATM    1  N   UNL     1      41.011 -13.588  -0.066  1.00  0.00    -0.054 N 
HETATM    2  H   UNL     1      41.781 -12.937   0.126  1.00  0.00     0.278 HD
HETATM    3  H   UNL     1      41.440 -14.326  -0.645  1.00  0.00     0.278 HD
ENDROOT
BRANCH   1   4
HETATM    4  C   UNL     1      40.548 -14.159   1.230  1.00  0.00     0.259 C 
BRANCH   4   5
HETATM    5  C   UNL     1      41.461 -15.266   1.739  1.00  0.00    -0.023 A 
HETATM    6  C   UNL     1      42.734 -15.511   1.195  1.00  0.00     0.010 A 
HETATM    7  C   UNL     1      43.553 -16.517   1.716  1.00  0.00     0.007 A 
HETATM    8  C   UNL     1      43.133 -17.289   2.804  1.00  0.00    -0.058 A 
HETATM    9  C   UNL     1      41.872 -17.047   3.355  1.00  0.00     0.007 A 
HETATM   10  C   UNL     1      41.045 -16.050   2.830  1.00  0.00     0.010 A 
BRANCH   8  11
HETATM   11  C   UNL     1      44.045 -18.341   3.388  1.00  0.00     0.038 C 
BRANCH  11  12
HETATM   12  C   UNL     1      43.463 -19.747   3.231  1.00  0.00     0.000 C 
HETATM   13  C   UNL     1      43.613 -20.256   1.807  1.00  0.00     0.005 C 
ENDBRANCH  11  12
ENDBRANCH   8  11
ENDBRANCH   4   5
BRANCH   4  14
HETATM   14  C   UNL     1      40.326 -13.082   2.264  1.00  0.00     0.017 A 
HETATM   15  S   UNL     1      41.583 -11.977   2.669  1.00  0.00    -0.104 SA
HETATM   16  C   UNL     1      40.602 -11.172   3.808  1.00  0.00     0.050 A 
HETATM   17  C   UNL     1      39.341 -11.719   3.884  1.00  0.00     0.008 A 
HETATM   18  C   UNL     1      39.180 -12.820   2.993  1.00  0.00     0.017 A 
ENDBRANCH   4  14
ENDBRANCH   1   4
BRANCH   1  19
HETATM   19  C   UNL     1      40.001 -12.875  -0.921  1.00  0.00     0.336 C 
BRANCH  19  20
HETATM   20  C   UNL     1      40.746 -11.908  -1.846  1.00  0.00     0.248 C 
HETATM   21  N   UNL     1      40.651 -10.578  -1.496  1.00  0.00    -0.326 N 
HETATM   22  H   UNL     1      40.077 -10.320  -0.701  1.00  0.00     0.169 HD
HETATM   23  O   UNL     1      41.389 -12.396  -2.774  1.00  0.00    -0.271 OA
BRANCH  21  24
HETATM   24  C   UNL     1      41.321  -9.494  -2.116  1.00  0.00     0.037 A 
HETATM   25  C   UNL     1      41.077  -9.082  -3.433  1.00  0.00     0.061 A 
HETATM   26  C   UNL     1      41.826  -8.028  -3.912  1.00  0.00     0.065 A 
HETATM   27  C   UNL     1      42.786  -7.381  -3.140  1.00  0.00     0.063 A 
HETATM   28  N   UNL     1      41.802  -7.424  -5.163  1.00  0.00    -0.306 N 
HETATM   29  N   UNL     1      43.356  -6.380  -3.917  1.00  0.00    -0.307 N 
HETATM   30  C   UNL     1      43.047  -7.750  -1.846  1.00  0.00     0.034 A 
HETATM   31  C   UNL     1      42.754  -6.392  -5.183  1.00  0.00     0.325 A 
HETATM   32  H   UNL     1      44.082  -5.733  -3.655  1.00  0.00     0.170 HD
HETATM   33  O   UNL     1      43.006  -5.657  -6.118  1.00  0.00    -0.247 OA
HETATM   34  C   UNL     1      42.299  -8.821  -1.334  1.00  0.00     0.032 A 
HETATM   35  H   UNL     1      41.219  -7.653  -5.952  1.00  0.00     0.170 HD
ENDBRANCH  21  24
ENDBRANCH  19  20
ENDBRANCH   1  19
TORSDOF 8
ENDMDL
MODEL 9
REMARK VINA RESULT:      -7.8     16.983     18.707
REMARK  8 active torsions:
REMARK  status: ('A' for Active; 'I' for Inactive)
REMARK    1  A    between atoms: C_2  and  C_3 
REMARK    2  A    between atoms: C_3  and  C_4 
REMARK    3  A    between atoms: C_7  and  C_8 
REMARK    4  A    between atoms: C_8  and  N_9 
REMARK    5  A    between atoms: C_8  and  C_26 
REMARK    6  A    between atoms: N_9  and  C_12 
REMARK    7  A    between atoms: C_12  and  C_13 
REMARK       I    between atoms: C_13  and  N_14 
REMARK    8  A    between atoms: N_14  and  C_15 
ROOT
HETATM    1  N   UNL     1      50.008 -29.705   0.901  1.00  0.00    -0.054 N 
HETATM    2  H   UNL     1      51.015 -29.510   0.840  1.00  0.00     0.278 HD
HETATM    3  H   UNL     1      49.562 -28.786   0.760  1.00  0.00     0.278 HD
ENDROOT
BRANCH   1   4
HETATM    4  C   UNL     1      49.643 -30.627  -0.210  1.00  0.00     0.259 C 
BRANCH   4   5
HETATM    5  C   UNL     1      48.547 -30.060  -1.102  1.00  0.00    -0.023 A 
HETATM    6  C   UNL     1      47.710 -30.871  -1.887  1.00  0.00     0.010 A 
HETATM    7  C   UNL     1      46.695 -30.310  -2.666  1.00  0.00     0.007 A 
HETATM    8  C   UNL     1      46.475 -28.929  -2.667  1.00  0.00    -0.058 A 
HETATM    9  C   UNL     1      47.298 -28.115  -1.883  1.00  0.00     0.007 A 
HETATM   10  C   UNL     1      48.323 -28.671  -1.112  1.00  0.00     0.010 A 
BRANCH   8  11
HETATM   11  C   UNL     1      45.346 -28.337  -3.475  1.00  0.00     0.038 C 
BRANCH  11  12
HETATM   12  C   UNL     1      44.099 -29.224  -3.444  1.00  0.00     0.000 C 
HETATM   13  C   UNL     1      43.874 -29.915  -4.779  1.00  0.00     0.005 C 
ENDBRANCH  11  12
ENDBRANCH   8  11
ENDBRANCH   4   5
BRANCH   4  14
HETATM   14  C   UNL     1      50.857 -31.055  -0.999  1.00  0.00     0.017 A 
HETATM   15  S   UNL     1      51.935 -32.246  -0.378  1.00  0.00    -0.104 SA
HETATM   16  C   UNL     1      52.940 -32.151  -1.755  1.00  0.00     0.050 A 
HETATM   17  C   UNL     1      52.472 -31.241  -2.675  1.00  0.00     0.008 A 
HETATM   18  C   UNL     1      51.271 -30.608  -2.241  1.00  0.00     0.017 A 
ENDBRANCH   4  14
ENDBRANCH   1   4
BRANCH   1  19
HETATM   19  C   UNL     1      49.704 -30.142   2.307  1.00  0.00     0.336 C 
BRANCH  19  20
HETATM   20  C   UNL     1      48.249 -30.615   2.363  1.00  0.00     0.248 C 
HETATM   21  N   UNL     1      47.307 -29.625   2.183  1.00  0.00    -0.326 N 
HETATM   22  H   UNL     1      47.619 -28.666   2.074  1.00  0.00     0.169 HD
HETATM   23  O   UNL     1      48.051 -31.820   2.515  1.00  0.00    -0.271 OA
BRANCH  21  24
HETATM   24  C   UNL     1      45.904 -29.802   2.090  1.00  0.00     0.037 A 
HETATM   25  C   UNL     1      45.112 -30.288   3.138  1.00  0.00     0.061 A 
HETATM   26  C   UNL     1      43.763 -30.435   2.892  1.00  0.00     0.065 A 
HETATM   27  C   UNL     1      43.188 -30.119   1.666  1.00  0.00     0.063 A 
HETATM   28  N   UNL     1      42.756 -30.895   3.732  1.00  0.00    -0.306 N 
HETATM   29  N   UNL     1      41.827 -30.387   1.748  1.00  0.00    -0.307 N 
HETATM   30  C   UNL     1      43.929 -29.635   0.619  1.00  0.00     0.034 A 
HETATM   31  C   UNL     1      41.540 -30.872   3.033  1.00  0.00     0.325 A 
HETATM   32  H   UNL     1      41.129 -30.268   1.032  1.00  0.00     0.170 HD
HETATM   33  O   UNL     1      40.452 -31.211   3.458  1.00  0.00    -0.247 OA
HETATM   34  C   UNL     1      45.305 -29.476   0.843  1.00  0.00     0.032 A 
HETATM   35  H   UNL     1      42.839 -31.203   4.688  1.00  0.00     0.170 HD
ENDBRANCH  21  24
ENDBRANCH  19  20
ENDBRANCH   1  19
TORSDOF 8
ENDMDL
MODEL 10
REMARK VINA RESULT:      -7.5      3.615      8.981
REMARK  8 active torsions:
REMARK  status: ('A' for Active; 'I' for Inactive)
REMARK    1  A    between atoms: C_2  and  C_3 
REMARK    2  A    between atoms: C_3  and  C_4 
REMARK    3  A    between atoms: C_7  and  C_8 
REMARK    4  A    between atoms: C_8  and  N_9 
REMARK    5  A    between atoms: C_8  and  C_26 
REMARK    6  A    between atoms: N_9  and  C_12 
REMARK    7  A    between atoms: C_12  and  C_13 
REMARK       I    between atoms: C_13  and  N_14 
REMARK    8  A    between atoms: N_14  and  C_15 
ROOT
HETATM    1  N   UNL     1      41.821 -11.619   4.068  1.00  0.00    -0.054 N 
HETATM    2  H   UNL     1      41.229 -12.283   3.554  1.00  0.00     0.278 HD
HETATM    3  H   UNL     1      41.177 -11.176   4.742  1.00  0.00     0.278 HD
ENDROOT
BRANCH   1   4
HETATM    4  C   UNL     1      42.870 -12.389   4.791  1.00  0.00     0.259 C 
BRANCH   4   5
HETATM    5  C   UNL     1      43.508 -11.589   5.919  1.00  0.00    -0.023 A 
HETATM    6  C   UNL     1      42.763 -10.772   6.787  1.00  0.00     0.010 A 
HETATM    7  C   UNL     1      43.386 -10.082   7.829  1.00  0.00     0.007 A 
HETATM    8  C   UNL     1      44.762 -10.203   8.047  1.00  0.00    -0.058 A 
HETATM    9  C   UNL     1      45.509 -11.019   7.193  1.00  0.00     0.007 A 
HETATM   10  C   UNL     1      44.892 -11.703   6.141  1.00  0.00     0.010 A 
BRANCH   8  11
HETATM   11  C   UNL     1      45.417  -9.490   9.205  1.00  0.00     0.038 C 
BRANCH  11  12
HETATM   12  C   UNL     1      44.801  -9.899  10.545  1.00  0.00     0.000 C 
HETATM   13  C   UNL     1      44.003  -8.762  11.162  1.00  0.00     0.005 C 
ENDBRANCH  11  12
ENDBRANCH   8  11
ENDBRANCH   4   5
BRANCH   4  14
HETATM   14  C   UNL     1      42.351 -13.726   5.263  1.00  0.00     0.017 A 
HETATM   15  S   UNL     1      41.283 -14.652   4.280  1.00  0.00    -0.104 SA
HETATM   16  C   UNL     1      41.186 -15.899   5.442  1.00  0.00     0.050 A 
HETATM   17  C   UNL     1      41.950 -15.629   6.555  1.00  0.00     0.008 A 
HETATM   18  C   UNL     1      42.623 -14.377   6.452  1.00  0.00     0.017 A 
ENDBRANCH   4  14
ENDBRANCH   1   4
BRANCH   1  19
HETATM   19  C   UNL     1      42.268 -10.553   3.105  1.00  0.00     0.336 C 
BRANCH  19  20
HETATM   20  C   UNL     1      41.666 -10.858   1.731  1.00  0.00     0.248 C 
HETATM   21  N   UNL     1      40.655 -11.795   1.733  1.00  0.00    -0.326 N 
HETATM   22  H   UNL     1      40.407 -12.247   2.607  1.00  0.00     0.169 HD
HETATM   23  O   UNL     1      42.096 -10.219   0.771  1.00  0.00    -0.271 OA
BRANCH  21  24
HETATM   24  C   UNL     1      39.865 -12.185   0.623  1.00  0.00     0.037 A 
HETATM   25  C   UNL     1      40.245 -13.179  -0.289  1.00  0.00     0.061 A 
HETATM   26  C   UNL     1      39.387 -13.432  -1.337  1.00  0.00     0.065 A 
HETATM   27  C   UNL     1      38.188 -12.747  -1.505  1.00  0.00     0.063 A 
HETATM   28  N   UNL     1      39.509 -14.343  -2.380  1.00  0.00    -0.306 N 
HETATM   29  N   UNL     1      37.572 -13.234  -2.651  1.00  0.00    -0.307 N 
HETATM   30  C   UNL     1      37.778 -11.774  -0.630  1.00  0.00     0.034 A 
HETATM   31  C   UNL     1      38.384 -14.232  -3.210  1.00  0.00     0.325 A 
HETATM   32  H   UNL     1      36.693 -12.947  -3.050  1.00  0.00     0.170 HD
HETATM   33  O   UNL     1      38.161 -14.874  -4.219  1.00  0.00    -0.247 OA
HETATM   34  C   UNL     1      38.634 -11.496   0.446  1.00  0.00     0.032 A 
HETATM   35  H   UNL     1      40.261 -14.993  -2.550  1.00  0.00     0.170 HD
ENDBRANCH  21  24
ENDBRANCH  19  20
ENDBRANCH   1  19
TORSDOF 8
ENDMDL
