MODEL 1
REMARK VINA RESULT:      -8.1      0.000      0.000
REMARK  9 active torsions:
REMARK  status: ('A' for Active; 'I' for Inactive)
REMARK    1  A    between atoms: O_2  and  C_3 
REMARK    2  A    between atoms: C_5  and  C_15 
REMARK    3  A    between atoms: C_8  and  C_9 
REMARK       I    between atoms: C_15  and  N_17 
REMARK    4  A    between atoms: N_17  and  C_18 
REMARK    5  A    between atoms: C_18  and  C_19 
REMARK    6  A    between atoms: C_18  and  C_27 
REMARK    7  A    between atoms: C_19  and  N_20 
REMARK    8  A    between atoms: N_20  and  S_21 
REMARK    9  A    between atoms: S_21  and  C_24 
ROOT
HETATM    1  C   UNL     1      40.896 -15.737   3.923  1.00  0.00     0.252 C 
HETATM    2  O   UNL     1      40.034 -16.297   4.593  1.00  0.00    -0.268 OA
HETATM    3  N   UNL     1      42.195 -15.604   4.362  1.00  0.00    -0.347 N 
HETATM    4  H   UNL     1      42.918 -15.221   3.770  1.00  0.00     0.163 HD
ENDROOT
BRANCH   3   5
HETATM    5  C   UNL     1      42.616 -16.203   5.636  1.00  0.00     0.132 C 
BRANCH   5   6
HETATM    6  C   UNL     1      43.487 -15.195   6.442  1.00  0.00     0.134 C 
BRANCH   6   7
HETATM    7  N   UNL     1      42.701 -13.971   6.774  1.00  0.00    -0.217 NA
HETATM    8  H   UNL     1      42.604 -13.854   7.785  1.00  0.00     0.139 HD
BRANCH   7   9
HETATM    9  S   UNL     1      43.254 -12.519   6.117  1.00  0.00     0.213 S 
HETATM   10  O   UNL     1      43.395 -12.761   4.699  1.00  0.00    -0.211 OA
HETATM   11  O   UNL     1      42.395 -11.471   6.619  1.00  0.00    -0.211 OA
BRANCH   9  12
HETATM   12  C   UNL     1      44.895 -12.210   6.828  1.00  0.00     0.124 A 
HETATM   13  C   UNL     1      45.717 -11.195   6.079  1.00  0.00     0.023 A 
HETATM   14  C   UNL     1      45.100 -10.836   7.404  1.00  0.00     0.023 A 
ENDBRANCH   9  12
ENDBRANCH   7   9
ENDBRANCH   6   7
ENDBRANCH   5   6
BRANCH   5  15
HETATM   15  C   UNL     1      43.207 -17.590   5.384  1.00  0.00    -0.034 A 
HETATM   16  C   UNL     1      43.813 -17.963   4.175  1.00  0.00     0.009 A 
HETATM   17  C   UNL     1      44.360 -19.240   4.005  1.00  0.00     0.001 A 
HETATM   18  C   UNL     1      44.312 -20.166   5.042  1.00  0.00     0.000 A 
HETATM   19  C   UNL     1      43.728 -19.815   6.254  1.00  0.00     0.001 A 
HETATM   20  C   UNL     1      43.190 -18.538   6.427  1.00  0.00     0.009 A 
ENDBRANCH   5  15
ENDBRANCH   3   5
BRANCH   1  21
HETATM   21  C   UNL     1      40.563 -15.217   2.565  1.00  0.00     0.034 A 
HETATM   22  C   UNL     1      40.777 -13.849   2.325  1.00  0.00     0.054 A 
HETATM   23  C   UNL     1      40.483 -13.276   1.081  1.00  0.00     0.080 A 
HETATM   24  C   UNL     1      39.973 -14.090   0.048  1.00  0.00     0.010 A 
HETATM   25  C   UNL     1      39.776 -15.462   0.293  1.00  0.00     0.016 A 
HETATM   26  C   UNL     1      40.070 -16.024   1.539  1.00  0.00     0.018 A 
BRANCH  23  27
HETATM   27  O   UNL     1      40.653 -11.944   0.798  1.00  0.00    -0.355 OA
HETATM   28  C   UNL     1      39.826 -11.005   1.473  1.00  0.00     0.210 C 
ENDBRANCH  23  27
BRANCH  24  29
HETATM   29  C   UNL     1      39.663 -13.556  -1.272  1.00  0.00     0.013 A 
HETATM   30  C   UNL     1      40.472 -13.391  -2.421  1.00  0.00     0.152 A 
HETATM   31  N   UNL     1      39.808 -12.859  -3.452  1.00  0.00    -0.187 NA
HETATM   32  N   UNL     1      38.575 -12.662  -2.959  1.00  0.00    -0.289 N 
HETATM   33  H   UNL     1      37.879 -12.244  -3.566  1.00  0.00     0.188 HD
HETATM   34  C   UNL     1      38.434 -13.069  -1.664  1.00  0.00     0.123 A 
ENDBRANCH  24  29
ENDBRANCH   1  21
TORSDOF 9
ENDMDL
MODEL 2
REMARK VINA RESULT:      -8.0      1.262      1.688
REMARK  9 active torsions:
REMARK  status: ('A' for Active; 'I' for Inactive)
REMARK    1  A    between atoms: O_2  and  C_3 
REMARK    2  A    between atoms: C_5  and  C_15 
REMARK    3  A    between atoms: C_8  and  C_9 
REMARK       I    between atoms: C_15  and  N_17 
REMARK    4  A    between atoms: N_17  and  C_18 
REMARK    5  A    between atoms: C_18  and  C_19 
REMARK    6  A    between atoms: C_18  and  C_27 
REMARK    7  A    between atoms: C_19  and  N_20 
REMARK    8  A    between atoms: N_20  and  S_21 
REMARK    9  A    between atoms: S_21  and  C_24 
ROOT
HETATM    1  C   UNL     1      41.128 -15.371   4.055  1.00  0.00     0.252 C 
HETATM    2  O   UNL     1      40.319 -15.923   4.792  1.00  0.00    -0.268 OA
HETATM    3  N   UNL     1      42.434 -15.148   4.433  1.00  0.00    -0.347 N 
HETATM    4  H   UNL     1      43.116 -14.774   3.790  1.00  0.00     0.163 HD
ENDROOT
BRANCH   3   5
HETATM    5  C   UNL     1      42.929 -15.641   5.726  1.00  0.00     0.132 C 
BRANCH   5   6
HETATM    6  C   UNL     1      43.974 -14.648   6.314  1.00  0.00     0.134 C 
BRANCH   6   7
HETATM    7  N   UNL     1      43.301 -13.609   7.146  1.00  0.00    -0.217 NA
HETATM    8  H   UNL     1      43.186 -13.922   8.113  1.00  0.00     0.139 HD
BRANCH   7   9
HETATM    9  S   UNL     1      44.011 -12.078   7.160  1.00  0.00     0.213 S 
HETATM   10  O   UNL     1      44.014 -11.662   8.544  1.00  0.00    -0.211 OA
HETATM   11  O   UNL     1      45.237 -12.171   6.401  1.00  0.00    -0.211 OA
BRANCH   9  12
HETATM   12  C   UNL     1      42.915 -10.981   6.217  1.00  0.00     0.124 A 
HETATM   13  C   UNL     1      42.886 -11.253   4.736  1.00  0.00     0.023 A 
HETATM   14  C   UNL     1      41.716 -11.644   5.598  1.00  0.00     0.023 A 
ENDBRANCH   9  12
ENDBRANCH   7   9
ENDBRANCH   6   7
ENDBRANCH   5   6
BRANCH   5  15
HETATM   15  C   UNL     1      43.351 -17.103   5.594  1.00  0.00    -0.034 A 
HETATM   16  C   UNL     1      43.127 -18.065   6.591  1.00  0.00     0.009 A 
HETATM   17  C   UNL     1      43.513 -19.397   6.409  1.00  0.00     0.001 A 
HETATM   18  C   UNL     1      44.129 -19.792   5.226  1.00  0.00     0.000 A 
HETATM   19  C   UNL     1      44.351 -18.861   4.218  1.00  0.00     0.001 A 
HETATM   20  C   UNL     1      43.957 -17.533   4.396  1.00  0.00     0.009 A 
ENDBRANCH   5  15
ENDBRANCH   3   5
BRANCH   1  21
HETATM   21  C   UNL     1      40.722 -14.958   2.679  1.00  0.00     0.034 A 
HETATM   22  C   UNL     1      40.810 -13.593   2.359  1.00  0.00     0.054 A 
HETATM   23  C   UNL     1      40.442 -13.119   1.094  1.00  0.00     0.080 A 
HETATM   24  C   UNL     1      39.983 -14.031   0.121  1.00  0.00     0.010 A 
HETATM   25  C   UNL     1      39.911 -15.399   0.446  1.00  0.00     0.016 A 
HETATM   26  C   UNL     1      40.279 -15.862   1.712  1.00  0.00     0.018 A 
BRANCH  23  27
HETATM   27  O   UNL     1      40.488 -11.795   0.734  1.00  0.00    -0.355 OA
HETATM   28  C   UNL     1      41.538 -10.994   1.261  1.00  0.00     0.210 C 
ENDBRANCH  23  27
BRANCH  24  29
HETATM   29  C   UNL     1      39.599 -13.601  -1.218  1.00  0.00     0.013 A 
HETATM   30  C   UNL     1      40.321 -13.598  -2.435  1.00  0.00     0.152 A 
HETATM   31  N   UNL     1      39.609 -13.120  -3.460  1.00  0.00    -0.187 NA
HETATM   32  N   UNL     1      38.434 -12.795  -2.897  1.00  0.00    -0.289 N 
HETATM   33  H   UNL     1      37.717 -12.389  -3.488  1.00  0.00     0.188 HD
HETATM   34  C   UNL     1      38.373 -13.071  -1.561  1.00  0.00     0.123 A 
ENDBRANCH  24  29
ENDBRANCH   1  21
TORSDOF 9
ENDMDL
MODEL 3
REMARK VINA RESULT:      -7.8      2.720      7.432
REMARK  9 active torsions:
REMARK  status: ('A' for Active; 'I' for Inactive)
REMARK    1  A    between atoms: O_2  and  C_3 
REMARK    2  A    between atoms: C_5  and  C_15 
REMARK    3  A    between atoms: C_8  and  C_9 
REMARK       I    between atoms: C_15  and  N_17 
REMARK    4  A    between atoms: N_17  and  C_18 
REMARK    5  A    between atoms: C_18  and  C_19 
REMARK    6  A    between atoms: C_18  and  C_27 
REMARK    7  A    between atoms: C_19  and  N_20 
REMARK    8  A    between atoms: N_20  and  S_21 
REMARK    9  A    between atoms: S_21  and  C_24 
ROOT
HETATM    1  C   UNL     1      41.847 -14.170   2.053  1.00  0.00     0.252 C 
HETATM    2  O   UNL     1      42.629 -13.236   1.905  1.00  0.00    -0.268 OA
HETATM    3  N   UNL     1      40.502 -14.051   1.778  1.00  0.00    -0.347 N 
HETATM    4  H   UNL     1      39.881 -14.846   1.817  1.00  0.00     0.163 HD
ENDROOT
BRANCH   3   5
HETATM    5  C   UNL     1      39.964 -12.805   1.217  1.00  0.00     0.132 C 
BRANCH   5   6
HETATM    6  C   UNL     1      39.110 -12.060   2.286  1.00  0.00     0.134 C 
BRANCH   6   7
HETATM    7  N   UNL     1      39.039 -12.854   3.547  1.00  0.00    -0.217 NA
HETATM    8  H   UNL     1      39.578 -13.719   3.473  1.00  0.00     0.139 HD
BRANCH   7   9
HETATM    9  S   UNL     1      39.492 -12.060   4.965  1.00  0.00     0.213 S 
HETATM   10  O   UNL     1      38.848 -10.767   4.911  1.00  0.00    -0.211 OA
HETATM   11  O   UNL     1      39.253 -12.974   6.058  1.00  0.00    -0.211 OA
BRANCH   9  12
HETATM   12  C   UNL     1      41.290 -11.826   4.885  1.00  0.00     0.124 A 
HETATM   13  C   UNL     1      41.899 -11.247   6.135  1.00  0.00     0.023 A 
HETATM   14  C   UNL     1      42.096 -12.702   5.805  1.00  0.00     0.023 A 
ENDBRANCH   9  12
ENDBRANCH   7   9
ENDBRANCH   6   7
ENDBRANCH   5   6
BRANCH   5  15
HETATM   15  C   UNL     1      39.302 -13.087  -0.131  1.00  0.00    -0.034 A 
HETATM   16  C   UNL     1      38.382 -12.219  -0.737  1.00  0.00     0.009 A 
HETATM   17  C   UNL     1      37.823 -12.515  -1.985  1.00  0.00     0.001 A 
HETATM   18  C   UNL     1      38.177 -13.684  -2.651  1.00  0.00     0.000 A 
HETATM   19  C   UNL     1      39.097 -14.554  -2.077  1.00  0.00     0.001 A 
HETATM   20  C   UNL     1      39.661 -14.254  -0.835  1.00  0.00     0.009 A 
ENDBRANCH   5  15
ENDBRANCH   3   5
BRANCH   1  21
HETATM   21  C   UNL     1      42.352 -15.501   2.500  1.00  0.00     0.034 A 
HETATM   22  C   UNL     1      42.194 -15.832   3.856  1.00  0.00     0.054 A 
HETATM   23  C   UNL     1      42.647 -17.057   4.362  1.00  0.00     0.080 A 
HETATM   24  C   UNL     1      43.263 -17.979   3.489  1.00  0.00     0.010 A 
HETATM   25  C   UNL     1      43.404 -17.645   2.130  1.00  0.00     0.016 A 
HETATM   26  C   UNL     1      42.951 -16.418   1.635  1.00  0.00     0.018 A 
BRANCH  23  27
HETATM   27  O   UNL     1      42.537 -17.424   5.679  1.00  0.00    -0.355 OA
HETATM   28  C   UNL     1      42.252 -16.411   6.635  1.00  0.00     0.210 C 
ENDBRANCH  23  27
BRANCH  24  29
HETATM   29  C   UNL     1      43.741 -19.276   3.952  1.00  0.00     0.013 A 
HETATM   30  C   UNL     1      44.328 -19.667   5.178  1.00  0.00     0.152 A 
HETATM   31  N   UNL     1      44.631 -20.968   5.218  1.00  0.00    -0.187 NA
HETATM   32  N   UNL     1      44.256 -21.412   4.008  1.00  0.00    -0.289 N 
HETATM   33  H   UNL     1      44.403 -22.391   3.791  1.00  0.00     0.188 HD
HETATM   34  C   UNL     1      43.710 -20.442   3.216  1.00  0.00     0.123 A 
ENDBRANCH  24  29
ENDBRANCH   1  21
TORSDOF 9
ENDMDL
MODEL 4
REMARK VINA RESULT:      -7.8      2.953      8.041
REMARK  9 active torsions:
REMARK  status: ('A' for Active; 'I' for Inactive)
REMARK    1  A    between atoms: O_2  and  C_3 
REMARK    2  A    between atoms: C_5  and  C_15 
REMARK    3  A    between atoms: C_8  and  C_9 
REMARK       I    between atoms: C_15  and  N_17 
REMARK    4  A    between atoms: N_17  and  C_18 
REMARK    5  A    between atoms: C_18  and  C_19 
REMARK    6  A    between atoms: C_18  and  C_27 
REMARK    7  A    between atoms: C_19  and  N_20 
REMARK    8  A    between atoms: N_20  and  S_21 
REMARK    9  A    between atoms: S_21  and  C_24 
ROOT
HETATM    1  C   UNL     1      43.028 -12.737   3.921  1.00  0.00     0.252 C 
HETATM    2  O   UNL     1      43.317 -12.246   2.835  1.00  0.00    -0.268 OA
HETATM    3  N   UNL     1      42.735 -14.075   4.067  1.00  0.00    -0.347 N 
HETATM    4  H   UNL     1      42.585 -14.489   4.976  1.00  0.00     0.163 HD
ENDROOT
BRANCH   3   5
HETATM    5  C   UNL     1      42.834 -14.989   2.921  1.00  0.00     0.132 C 
BRANCH   5   6
HETATM    6  C   UNL     1      41.523 -14.942   2.082  1.00  0.00     0.134 C 
BRANCH   6   7
HETATM    7  N   UNL     1      41.763 -14.277   0.769  1.00  0.00    -0.217 NA
HETATM    8  H   UNL     1      42.052 -14.952   0.057  1.00  0.00     0.139 HD
BRANCH   7   9
HETATM    9  S   UNL     1      40.495 -13.354   0.148  1.00  0.00     0.213 S 
HETATM   10  O   UNL     1      39.615 -13.099   1.266  1.00  0.00    -0.211 OA
HETATM   11  O   UNL     1      41.086 -12.272  -0.605  1.00  0.00    -0.211 OA
BRANCH   9  12
HETATM   12  C   UNL     1      39.628 -14.395  -1.060  1.00  0.00     0.124 A 
HETATM   13  C   UNL     1      38.560 -13.681  -1.844  1.00  0.00     0.023 A 
HETATM   14  C   UNL     1      39.864 -14.041  -2.503  1.00  0.00     0.023 A 
ENDBRANCH   9  12
ENDBRANCH   7   9
ENDBRANCH   6   7
ENDBRANCH   5   6
BRANCH   5  15
HETATM   15  C   UNL     1      43.313 -16.361   3.393  1.00  0.00    -0.034 A 
HETATM   16  C   UNL     1      43.720 -16.626   4.710  1.00  0.00     0.009 A 
HETATM   17  C   UNL     1      44.127 -17.908   5.096  1.00  0.00     0.001 A 
HETATM   18  C   UNL     1      44.132 -18.948   4.173  1.00  0.00     0.000 A 
HETATM   19  C   UNL     1      43.720 -18.714   2.866  1.00  0.00     0.001 A 
HETATM   20  C   UNL     1      43.305 -17.437   2.483  1.00  0.00     0.009 A 
ENDBRANCH   5  15
ENDBRANCH   3   5
BRANCH   1  21
HETATM   21  C   UNL     1      43.031 -11.888   5.148  1.00  0.00     0.034 A 
HETATM   22  C   UNL     1      44.157 -11.964   5.986  1.00  0.00     0.054 A 
HETATM   23  C   UNL     1      44.239 -11.206   7.162  1.00  0.00     0.080 A 
HETATM   24  C   UNL     1      43.175 -10.345   7.504  1.00  0.00     0.010 A 
HETATM   25  C   UNL     1      42.059 -10.265   6.652  1.00  0.00     0.016 A 
HETATM   26  C   UNL     1      41.985 -11.026   5.481  1.00  0.00     0.018 A 
BRANCH  23  27
HETATM   27  O   UNL     1      45.303 -11.257   8.026  1.00  0.00    -0.355 OA
HETATM   28  C   UNL     1      46.487 -10.552   7.673  1.00  0.00     0.210 C 
ENDBRANCH  23  27
BRANCH  24  29
HETATM   29  C   UNL     1      43.209  -9.520   8.706  1.00  0.00     0.013 A 
HETATM   30  C   UNL     1      42.968  -9.844  10.061  1.00  0.00     0.152 A 
HETATM   31  N   UNL     1      43.102  -8.794  10.878  1.00  0.00    -0.187 NA
HETATM   32  N   UNL     1      43.410  -7.789  10.043  1.00  0.00    -0.289 N 
HETATM   33  H   UNL     1      43.549  -6.865  10.438  1.00  0.00     0.188 HD
HETATM   34  C   UNL     1      43.494  -8.171   8.735  1.00  0.00     0.123 A 
ENDBRANCH  24  29
ENDBRANCH   1  21
TORSDOF 9
ENDMDL
MODEL 5
REMARK VINA RESULT:      -7.6      1.650      2.431
REMARK  9 active torsions:
REMARK  status: ('A' for Active; 'I' for Inactive)
REMARK    1  A    between atoms: O_2  and  C_3 
REMARK    2  A    between atoms: C_5  and  C_15 
REMARK    3  A    between atoms: C_8  and  C_9 
REMARK       I    between atoms: C_15  and  N_17 
REMARK    4  A    between atoms: N_17  and  C_18 
REMARK    5  A    between atoms: C_18  and  C_19 
REMARK    6  A    between atoms: C_18  and  C_27 
REMARK    7  A    between atoms: C_19  and  N_20 
REMARK    8  A    between atoms: N_20  and  S_21 
REMARK    9  A    between atoms: S_21  and  C_24 
ROOT
HETATM    1  C   UNL     1      40.453 -14.871   2.585  1.00  0.00     0.252 C 
HETATM    2  O   UNL     1      39.556 -15.665   2.847  1.00  0.00    -0.268 OA
HETATM    3  N   UNL     1      41.627 -14.826   3.305  1.00  0.00    -0.347 N 
HETATM    4  H   UNL     1      42.395 -14.232   3.030  1.00  0.00     0.163 HD
ENDROOT
BRANCH   3   5
HETATM    5  C   UNL     1      41.878 -15.794   4.381  1.00  0.00     0.132 C 
BRANCH   5   6
HETATM    6  C   UNL     1      42.483 -15.073   5.622  1.00  0.00     0.134 C 
BRANCH   6   7
HETATM    7  N   UNL     1      41.805 -13.765   5.852  1.00  0.00    -0.217 NA
HETATM    8  H   UNL     1      41.357 -13.734   6.770  1.00  0.00     0.139 HD
BRANCH   7   9
HETATM    9  S   UNL     1      42.755 -12.382   5.673  1.00  0.00     0.213 S 
HETATM   10  O   UNL     1      43.208 -12.394   4.301  1.00  0.00    -0.211 OA
HETATM   11  O   UNL     1      41.995 -11.274   6.204  1.00  0.00    -0.211 OA
BRANCH   9  12
HETATM   12  C   UNL     1      44.188 -12.583   6.768  1.00  0.00     0.124 A 
HETATM   13  C   UNL     1      45.308 -11.608   6.513  1.00  0.00     0.023 A 
HETATM   14  C   UNL     1      44.432 -11.449   7.726  1.00  0.00     0.023 A 
ENDBRANCH   9  12
ENDBRANCH   7   9
ENDBRANCH   6   7
ENDBRANCH   5   6
BRANCH   5  15
HETATM   15  C   UNL     1      42.644 -16.995   3.828  1.00  0.00    -0.034 A 
HETATM   16  C   UNL     1      42.400 -17.551   2.563  1.00  0.00     0.009 A 
HETATM   17  C   UNL     1      43.148 -18.637   2.095  1.00  0.00     0.001 A 
HETATM   18  C   UNL     1      44.156 -19.184   2.882  1.00  0.00     0.000 A 
HETATM   19  C   UNL     1      44.426 -18.642   4.134  1.00  0.00     0.001 A 
HETATM   20  C   UNL     1      43.685 -17.553   4.597  1.00  0.00     0.009 A 
ENDBRANCH   5  15
ENDBRANCH   3   5
BRANCH   1  21
HETATM   21  C   UNL     1      40.312 -13.944   1.424  1.00  0.00     0.034 A 
HETATM   22  C   UNL     1      40.222 -14.517   0.144  1.00  0.00     0.054 A 
HETATM   23  C   UNL     1      40.096 -13.720  -1.000  1.00  0.00     0.080 A 
HETATM   24  C   UNL     1      40.051 -12.317  -0.864  1.00  0.00     0.010 A 
HETATM   25  C   UNL     1      40.128 -11.752   0.423  1.00  0.00     0.016 A 
HETATM   26  C   UNL     1      40.255 -12.556   1.560  1.00  0.00     0.018 A 
BRANCH  23  27
HETATM   27  O   UNL     1      40.024 -14.225  -2.274  1.00  0.00    -0.355 OA
HETATM   28  C   UNL     1      38.844 -14.921  -2.654  1.00  0.00     0.210 C 
ENDBRANCH  23  27
BRANCH  24  29
HETATM   29  C   UNL     1      39.906 -11.435  -2.015  1.00  0.00     0.013 A 
HETATM   30  C   UNL     1      38.755 -11.000  -2.713  1.00  0.00     0.152 A 
HETATM   31  N   UNL     1      39.042 -10.181  -3.729  1.00  0.00    -0.187 NA
HETATM   32  N   UNL     1      40.382 -10.104  -3.698  1.00  0.00    -0.289 N 
HETATM   33  H   UNL     1      40.845  -9.537  -4.399  1.00  0.00     0.188 HD
HETATM   34  C   UNL     1      40.946 -10.829  -2.688  1.00  0.00     0.123 A 
ENDBRANCH  24  29
ENDBRANCH   1  21
TORSDOF 9
ENDMDL
MODEL 6
REMARK VINA RESULT:      -7.6      2.583      6.978
REMARK  9 active torsions:
REMARK  status: ('A' for Active; 'I' for Inactive)
REMARK    1  A    between atoms: O_2  and  C_3 
REMARK    2  A    between atoms: C_5  and  C_15 
REMARK    3  A    between atoms: C_8  and  C_9 
REMARK       I    between atoms: C_15  and  N_17 
REMARK    4  A    between atoms: N_17  and  C_18 
REMARK    5  A    between atoms: C_18  and  C_19 
REMARK    6  A    between atoms: C_18  and  C_27 
REMARK    7  A    between atoms: C_19  and  N_20 
REMARK    8  A    between atoms: N_20  and  S_21 
REMARK    9  A    between atoms: S_21  and  C_24 
ROOT
HETATM    1  C   UNL     1      42.476 -15.074   4.462  1.00  0.00     0.252 C 
HETATM    2  O   UNL     1      41.417 -15.596   4.794  1.00  0.00    -0.268 OA
HETATM    3  N   UNL     1      43.190 -15.498   3.362  1.00  0.00    -0.347 N 
HETATM    4  H   UNL     1      44.013 -15.008   3.044  1.00  0.00     0.163 HD
ENDROOT
BRANCH   3   5
HETATM    5  C   UNL     1      42.659 -16.557   2.493  1.00  0.00     0.132 C 
BRANCH   5   6
HETATM    6  C   UNL     1      41.119 -16.398   2.333  1.00  0.00     0.134 C 
BRANCH   6   7
HETATM    7  N   UNL     1      40.797 -15.584   1.126  1.00  0.00    -0.217 NA
HETATM    8  H   UNL     1      39.992 -15.965   0.623  1.00  0.00     0.139 HD
BRANCH   7   9
HETATM    9  S   UNL     1      40.541 -13.935   1.374  1.00  0.00     0.213 S 
HETATM   10  O   UNL     1      39.679 -13.844   2.530  1.00  0.00    -0.211 OA
HETATM   11  O   UNL     1      41.837 -13.296   1.350  1.00  0.00    -0.211 OA
BRANCH   9  12
HETATM   12  C   UNL     1      39.646 -13.317  -0.079  1.00  0.00     0.124 A 
HETATM   13  C   UNL     1      40.465 -13.272  -1.342  1.00  0.00     0.023 A 
HETATM   14  C   UNL     1      39.407 -14.327  -1.167  1.00  0.00     0.023 A 
ENDBRANCH   9  12
ENDBRANCH   7   9
ENDBRANCH   6   7
ENDBRANCH   5   6
BRANCH   5  15
HETATM   15  C   UNL     1      43.177 -17.916   2.960  1.00  0.00    -0.034 A 
HETATM   16  C   UNL     1      43.794 -18.123   4.203  1.00  0.00     0.009 A 
HETATM   17  C   UNL     1      44.229 -19.395   4.591  1.00  0.00     0.001 A 
HETATM   18  C   UNL     1      44.053 -20.484   3.744  1.00  0.00     0.000 A 
HETATM   19  C   UNL     1      43.432 -20.308   2.513  1.00  0.00     0.001 A 
HETATM   20  C   UNL     1      42.990 -19.040   2.129  1.00  0.00     0.009 A 
ENDBRANCH   5  15
ENDBRANCH   3   5
BRANCH   1  21
HETATM   21  C   UNL     1      43.007 -13.911   5.230  1.00  0.00     0.034 A 
HETATM   22  C   UNL     1      42.837 -12.632   4.672  1.00  0.00     0.054 A 
HETATM   23  C   UNL     1      43.312 -11.487   5.323  1.00  0.00     0.080 A 
HETATM   24  C   UNL     1      43.965 -11.619   6.566  1.00  0.00     0.010 A 
HETATM   25  C   UNL     1      44.119 -12.902   7.125  1.00  0.00     0.016 A 
HETATM   26  C   UNL     1      43.643 -14.040   6.467  1.00  0.00     0.018 A 
BRANCH  23  27
HETATM   27  O   UNL     1      43.191 -10.218   4.814  1.00  0.00    -0.355 OA
HETATM   28  C   UNL     1      41.884  -9.707   4.590  1.00  0.00     0.210 C 
ENDBRANCH  23  27
BRANCH  24  29
HETATM   29  C   UNL     1      44.468 -10.464   7.299  1.00  0.00     0.013 A 
HETATM   30  C   UNL     1      45.783  -9.975   7.474  1.00  0.00     0.152 A 
HETATM   31  N   UNL     1      45.831  -8.870   8.225  1.00  0.00    -0.187 NA
HETATM   32  N   UNL     1      44.546  -8.659   8.549  1.00  0.00    -0.289 N 
HETATM   33  H   UNL     1      44.327  -7.865   9.141  1.00  0.00     0.188 HD
HETATM   34  C   UNL     1      43.690  -9.578   8.015  1.00  0.00     0.123 A 
ENDBRANCH  24  29
ENDBRANCH   1  21
TORSDOF 9
ENDMDL
MODEL 7
REMARK VINA RESULT:      -7.5      4.393      9.684
REMARK  9 active torsions:
REMARK  status: ('A' for Active; 'I' for Inactive)
REMARK    1  A    between atoms: O_2  and  C_3 
REMARK    2  A    between atoms: C_5  and  C_15 
REMARK    3  A    between atoms: C_8  and  C_9 
REMARK       I    between atoms: C_15  and  N_17 
REMARK    4  A    between atoms: N_17  and  C_18 
REMARK    5  A    between atoms: C_18  and  C_19 
REMARK    6  A    between atoms: C_18  and  C_27 
REMARK    7  A    between atoms: C_19  and  N_20 
REMARK    8  A    between atoms: N_20  and  S_21 
REMARK    9  A    between atoms: S_21  and  C_24 
ROOT
HETATM    1  C   UNL     1      44.125 -10.989   7.787  1.00  0.00     0.252 C 
HETATM    2  O   UNL     1      45.097 -10.630   7.131  1.00  0.00    -0.268 OA
HETATM    3  N   UNL     1      43.296 -12.009   7.373  1.00  0.00    -0.347 N 
HETATM    4  H   UNL     1      42.551 -12.357   7.958  1.00  0.00     0.163 HD
ENDROOT
BRANCH   3   5
HETATM    5  C   UNL     1      43.598 -12.763   6.149  1.00  0.00     0.132 C 
BRANCH   5   6
HETATM    6  C   UNL     1      42.819 -12.163   4.942  1.00  0.00     0.134 C 
BRANCH   6   7
HETATM    7  N   UNL     1      43.281 -12.773   3.662  1.00  0.00    -0.217 NA
HETATM    8  H   UNL     1      44.176 -13.253   3.780  1.00  0.00     0.139 HD
BRANCH   7   9
HETATM    9  S   UNL     1      42.207 -13.825   2.897  1.00  0.00     0.213 S 
HETATM   10  O   UNL     1      41.012 -13.822   3.710  1.00  0.00    -0.211 OA
HETATM   11  O   UNL     1      42.168 -13.453   1.502  1.00  0.00    -0.211 OA
BRANCH   9  12
HETATM   12  C   UNL     1      42.956 -15.478   2.959  1.00  0.00     0.124 A 
HETATM   13  C   UNL     1      42.101 -16.571   2.375  1.00  0.00     0.023 A 
HETATM   14  C   UNL     1      43.307 -16.076   1.624  1.00  0.00     0.023 A 
ENDBRANCH   9  12
ENDBRANCH   7   9
ENDBRANCH   6   7
ENDBRANCH   5   6
BRANCH   5  15
HETATM   15  C   UNL     1      43.435 -14.260   6.411  1.00  0.00    -0.034 A 
HETATM   16  C   UNL     1      44.495 -15.176   6.341  1.00  0.00     0.009 A 
HETATM   17  C   UNL     1      44.295 -16.534   6.614  1.00  0.00     0.001 A 
HETATM   18  C   UNL     1      43.032 -16.999   6.963  1.00  0.00     0.000 A 
HETATM   19  C   UNL     1      41.968 -16.109   7.053  1.00  0.00     0.001 A 
HETATM   20  C   UNL     1      42.169 -14.752   6.789  1.00  0.00     0.009 A 
ENDBRANCH   5  15
ENDBRANCH   3   5
BRANCH   1  21
HETATM   21  C   UNL     1      43.835 -10.347   9.102  1.00  0.00     0.034 A 
HETATM   22  C   UNL     1      42.521  -9.907   9.333  1.00  0.00     0.054 A 
HETATM   23  C   UNL     1      42.164  -9.286  10.538  1.00  0.00     0.080 A 
HETATM   24  C   UNL     1      43.142  -9.109  11.539  1.00  0.00     0.010 A 
HETATM   25  C   UNL     1      44.452  -9.566  11.305  1.00  0.00     0.016 A 
HETATM   26  C   UNL     1      44.799 -10.182  10.099  1.00  0.00     0.018 A 
BRANCH  23  27
HETATM   27  O   UNL     1      40.903  -8.820  10.808  1.00  0.00    -0.355 OA
HETATM   28  C   UNL     1      39.850  -9.767  10.936  1.00  0.00     0.210 C 
ENDBRANCH  23  27
BRANCH  24  29
HETATM   29  C   UNL     1      42.828  -8.485  12.819  1.00  0.00     0.013 A 
HETATM   30  C   UNL     1      42.192  -9.000  13.972  1.00  0.00     0.152 A 
HETATM   31  N   UNL     1      42.092  -8.100  14.956  1.00  0.00    -0.187 NA
HETATM   32  N   UNL     1      42.647  -6.998  14.427  1.00  0.00    -0.289 N 
HETATM   33  H   UNL     1      42.675  -6.158  14.993  1.00  0.00     0.188 HD
HETATM   34  C   UNL     1      43.111  -7.177  13.155  1.00  0.00     0.123 A 
ENDBRANCH  24  29
ENDBRANCH   1  21
TORSDOF 9
ENDMDL
MODEL 8
REMARK VINA RESULT:      -7.4      2.962      7.854
REMARK  9 active torsions:
REMARK  status: ('A' for Active; 'I' for Inactive)
REMARK    1  A    between atoms: O_2  and  C_3 
REMARK    2  A    between atoms: C_5  and  C_15 
REMARK    3  A    between atoms: C_8  and  C_9 
REMARK       I    between atoms: C_15  and  N_17 
REMARK    4  A    between atoms: N_17  and  C_18 
REMARK    5  A    between atoms: C_18  and  C_19 
REMARK    6  A    between atoms: C_18  and  C_27 
REMARK    7  A    between atoms: C_19  and  N_20 
REMARK    8  A    between atoms: N_20  and  S_21 
REMARK    9  A    between atoms: S_21  and  C_24 
ROOT
HETATM    1  C   UNL     1      43.301 -12.715   4.096  1.00  0.00     0.252 C 
HETATM    2  O   UNL     1      43.650 -12.175   3.052  1.00  0.00    -0.268 OA
HETATM    3  N   UNL     1      42.847 -14.016   4.132  1.00  0.00    -0.347 N 
HETATM    4  H   UNL     1      42.646 -14.483   5.005  1.00  0.00     0.163 HD
ENDROOT
BRANCH   3   5
HETATM    5  C   UNL     1      42.837 -14.836   2.913  1.00  0.00     0.132 C 
BRANCH   5   6
HETATM    6  C   UNL     1      41.501 -14.630   2.139  1.00  0.00     0.134 C 
BRANCH   6   7
HETATM    7  N   UNL     1      41.711 -13.749   0.954  1.00  0.00    -0.217 NA
HETATM    8  H   UNL     1      41.765 -14.294   0.090  1.00  0.00     0.139 HD
BRANCH   7   9
HETATM    9  S   UNL     1      40.595 -12.504   0.733  1.00  0.00     0.213 S 
HETATM   10  O   UNL     1      39.848 -12.426   1.968  1.00  0.00    -0.211 OA
HETATM   11  O   UNL     1      41.324 -11.365   0.222  1.00  0.00    -0.211 OA
BRANCH   9  12
HETATM   12  C   UNL     1      39.478 -13.028  -0.598  1.00  0.00     0.124 A 
HETATM   13  C   UNL     1      40.175 -13.449  -1.865  1.00  0.00     0.023 A 
HETATM   14  C   UNL     1      39.553 -14.484  -0.967  1.00  0.00     0.023 A 
ENDBRANCH   9  12
ENDBRANCH   7   9
ENDBRANCH   6   7
ENDBRANCH   5   6
BRANCH   5  15
HETATM   15  C   UNL     1      43.233 -16.272   3.253  1.00  0.00    -0.034 A 
HETATM   16  C   UNL     1      43.196 -17.323   2.325  1.00  0.00     0.009 A 
HETATM   17  C   UNL     1      43.593 -18.616   2.682  1.00  0.00     0.001 A 
HETATM   18  C   UNL     1      44.037 -18.881   3.974  1.00  0.00     0.000 A 
HETATM   19  C   UNL     1      44.096 -17.853   4.908  1.00  0.00     0.001 A 
HETATM   20  C   UNL     1      43.707 -16.560   4.549  1.00  0.00     0.009 A 
ENDBRANCH   5  15
ENDBRANCH   3   5
BRANCH   1  21
HETATM   21  C   UNL     1      43.405 -11.978   5.389  1.00  0.00     0.034 A 
HETATM   22  C   UNL     1      42.303 -11.200   5.782  1.00  0.00     0.054 A 
HETATM   23  C   UNL     1      42.321 -10.469   6.977  1.00  0.00     0.080 A 
HETATM   24  C   UNL     1      43.463 -10.524   7.804  1.00  0.00     0.010 A 
HETATM   25  C   UNL     1      44.556 -11.317   7.409  1.00  0.00     0.016 A 
HETATM   26  C   UNL     1      44.530 -12.041   6.213  1.00  0.00     0.018 A 
BRANCH  23  27
HETATM   27  O   UNL     1      41.282  -9.678   7.400  1.00  0.00    -0.355 OA
HETATM   28  C   UNL     1      39.956 -10.125   7.152  1.00  0.00     0.210 C 
ENDBRANCH  23  27
BRANCH  24  29
HETATM   29  C   UNL     1      43.535  -9.799   9.067  1.00  0.00     0.013 A 
HETATM   30  C   UNL     1      43.580  -8.412   9.340  1.00  0.00     0.152 A 
HETATM   31  N   UNL     1      43.640  -8.142  10.647  1.00  0.00    -0.187 NA
HETATM   32  N   UNL     1      43.655  -9.357  11.216  1.00  0.00    -0.289 N 
HETATM   33  H   UNL     1      43.714  -9.412  12.226  1.00  0.00     0.188 HD
HETATM   34  C   UNL     1      43.585 -10.382  10.316  1.00  0.00     0.123 A 
ENDBRANCH  24  29
ENDBRANCH   1  21
TORSDOF 9
ENDMDL
MODEL 9
REMARK VINA RESULT:      -7.3      4.494      8.223
REMARK  9 active torsions:
REMARK  status: ('A' for Active; 'I' for Inactive)
REMARK    1  A    between atoms: O_2  and  C_3 
REMARK    2  A    between atoms: C_5  and  C_15 
REMARK    3  A    between atoms: C_8  and  C_9 
REMARK       I    between atoms: C_15  and  N_17 
REMARK    4  A    between atoms: N_17  and  C_18 
REMARK    5  A    between atoms: C_18  and  C_19 
REMARK    6  A    between atoms: C_18  and  C_27 
REMARK    7  A    between atoms: C_19  and  N_20 
REMARK    8  A    between atoms: N_20  and  S_21 
REMARK    9  A    between atoms: S_21  and  C_24 
ROOT
HETATM    1  C   UNL     1      44.095 -11.361   7.959  1.00  0.00     0.252 C 
HETATM    2  O   UNL     1      45.289 -11.256   8.222  1.00  0.00    -0.268 OA
HETATM    3  N   UNL     1      43.132 -10.628   8.617  1.00  0.00    -0.347 N 
HETATM    4  H   UNL     1      42.163 -10.653   8.336  1.00  0.00     0.163 HD
ENDROOT
BRANCH   3   5
HETATM    5  C   UNL     1      43.515  -9.625   9.621  1.00  0.00     0.132 C 
BRANCH   5   6
HETATM    6  C   UNL     1      43.158 -10.131  11.049  1.00  0.00     0.134 C 
BRANCH   6   7
HETATM    7  N   UNL     1      41.682 -10.270  11.203  1.00  0.00    -0.217 NA
HETATM    8  H   UNL     1      41.399 -11.253  11.214  1.00  0.00     0.139 HD
BRANCH   7   9
HETATM    9  S   UNL     1      40.987  -9.500  12.534  1.00  0.00     0.213 S 
HETATM   10  O   UNL     1      40.480  -8.241  12.035  1.00  0.00    -0.211 OA
HETATM   11  O   UNL     1      40.117 -10.459  13.174  1.00  0.00    -0.211 OA
BRANCH   9  12
HETATM   12  C   UNL     1      42.328  -9.169  13.711  1.00  0.00     0.124 A 
HETATM   13  C   UNL     1      42.831  -7.750  13.699  1.00  0.00     0.023 A 
HETATM   14  C   UNL     1      41.980  -8.239  14.840  1.00  0.00     0.023 A 
ENDBRANCH   9  12
ENDBRANCH   7   9
ENDBRANCH   6   7
ENDBRANCH   5   6
BRANCH   5  15
HETATM   15  C   UNL     1      42.979  -8.254   9.211  1.00  0.00    -0.034 A 
HETATM   16  C   UNL     1      43.087  -7.110  10.017  1.00  0.00     0.009 A 
HETATM   17  C   UNL     1      42.599  -5.873   9.584  1.00  0.00     0.001 A 
HETATM   18  C   UNL     1      41.997  -5.755   8.336  1.00  0.00     0.000 A 
HETATM   19  C   UNL     1      41.890  -6.871   7.513  1.00  0.00     0.001 A 
HETATM   20  C   UNL     1      42.385  -8.105   7.942  1.00  0.00     0.009 A 
ENDBRANCH   5  15
ENDBRANCH   3   5
BRANCH   1  21
HETATM   21  C   UNL     1      43.651 -12.270   6.863  1.00  0.00     0.034 A 
HETATM   22  C   UNL     1      42.967 -11.693   5.779  1.00  0.00     0.054 A 
HETATM   23  C   UNL     1      42.508 -12.476   4.712  1.00  0.00     0.080 A 
HETATM   24  C   UNL     1      42.744 -13.866   4.723  1.00  0.00     0.010 A 
HETATM   25  C   UNL     1      43.441 -14.433   5.806  1.00  0.00     0.016 A 
HETATM   26  C   UNL     1      43.894 -13.645   6.868  1.00  0.00     0.018 A 
BRANCH  23  27
HETATM   27  O   UNL     1      41.819 -11.969   3.639  1.00  0.00    -0.355 OA
HETATM   28  C   UNL     1      42.514 -11.117   2.738  1.00  0.00     0.210 C 
ENDBRANCH  23  27
BRANCH  24  29
HETATM   29  C   UNL     1      42.304 -14.731   3.635  1.00  0.00     0.013 A 
HETATM   30  C   UNL     1      41.091 -15.431   3.436  1.00  0.00     0.152 A 
HETATM   31  N   UNL     1      41.072 -16.123   2.293  1.00  0.00    -0.187 NA
HETATM   32  N   UNL     1      42.282 -15.885   1.765  1.00  0.00    -0.289 N 
HETATM   33  H   UNL     1      42.513 -16.325   0.882  1.00  0.00     0.188 HD
HETATM   34  C   UNL     1      43.054 -15.052   2.523  1.00  0.00     0.123 A 
ENDBRANCH  24  29
ENDBRANCH   1  21
TORSDOF 9
ENDMDL
MODEL 10
REMARK VINA RESULT:      -7.2      3.623      6.895
REMARK  9 active torsions:
REMARK  status: ('A' for Active; 'I' for Inactive)
REMARK    1  A    between atoms: O_2  and  C_3 
REMARK    2  A    between atoms: C_5  and  C_15 
REMARK    3  A    between atoms: C_8  and  C_9 
REMARK       I    between atoms: C_15  and  N_17 
REMARK    4  A    between atoms: N_17  and  C_18 
REMARK    5  A    between atoms: C_18  and  C_19 
REMARK    6  A    between atoms: C_18  and  C_27 
REMARK    7  A    between atoms: C_19  and  N_20 
REMARK    8  A    between atoms: N_20  and  S_21 
REMARK    9  A    between atoms: S_21  and  C_24 
ROOT
HETATM    1  C   UNL     1      43.132 -14.205   6.647  1.00  0.00     0.252 C 
HETATM    2  O   UNL     1      43.322 -14.218   7.859  1.00  0.00    -0.268 OA
HETATM    3  N   UNL     1      42.823 -13.049   5.965  1.00  0.00    -0.347 N 
HETATM    4  H   UNL     1      42.755 -13.030   4.958  1.00  0.00     0.163 HD
ENDROOT
BRANCH   3   5
HETATM    5  C   UNL     1      42.785 -11.758   6.665  1.00  0.00     0.132 C 
BRANCH   5   6
HETATM    6  C   UNL     1      41.931 -10.735   5.860  1.00  0.00     0.134 C 
BRANCH   6   7
HETATM    7  N   UNL     1      40.552 -10.645   6.421  1.00  0.00    -0.217 NA
HETATM    8  H   UNL     1      40.233  -9.675   6.472  1.00  0.00     0.139 HD
BRANCH   7   9
HETATM    9  S   UNL     1      39.363 -11.559   5.648  1.00  0.00     0.213 S 
HETATM   10  O   UNL     1      39.432 -12.873   6.245  1.00  0.00    -0.211 OA
HETATM   11  O   UNL     1      38.144 -10.783   5.678  1.00  0.00    -0.211 OA
BRANCH   9  12
HETATM   12  C   UNL     1      39.843 -11.679   3.902  1.00  0.00     0.124 A 
HETATM   13  C   UNL     1      39.052 -12.684   3.106  1.00  0.00     0.023 A 
HETATM   14  C   UNL     1      38.808 -11.212   2.915  1.00  0.00     0.023 A 
ENDBRANCH   9  12
ENDBRANCH   7   9
ENDBRANCH   6   7
ENDBRANCH   5   6
BRANCH   5  15
HETATM   15  C   UNL     1      44.203 -11.336   7.048  1.00  0.00    -0.034 A 
HETATM   16  C   UNL     1      45.304 -11.459   6.188  1.00  0.00     0.009 A 
HETATM   17  C   UNL     1      46.578 -11.034   6.580  1.00  0.00     0.001 A 
HETATM   18  C   UNL     1      46.774 -10.477   7.840  1.00  0.00     0.000 A 
HETATM   19  C   UNL     1      45.695 -10.332   8.706  1.00  0.00     0.001 A 
HETATM   20  C   UNL     1      44.422 -10.748   8.311  1.00  0.00     0.009 A 
ENDBRANCH   5  15
ENDBRANCH   3   5
BRANCH   1  21
HETATM   21  C   UNL     1      43.279 -15.462   5.857  1.00  0.00     0.034 A 
HETATM   22  C   UNL     1      42.553 -15.562   4.657  1.00  0.00     0.054 A 
HETATM   23  C   UNL     1      42.627 -16.710   3.858  1.00  0.00     0.080 A 
HETATM   24  C   UNL     1      43.452 -17.781   4.262  1.00  0.00     0.010 A 
HETATM   25  C   UNL     1      44.186 -17.667   5.457  1.00  0.00     0.016 A 
HETATM   26  C   UNL     1      44.104 -16.517   6.249  1.00  0.00     0.018 A 
BRANCH  23  27
HETATM   27  O   UNL     1      41.927 -16.870   2.689  1.00  0.00    -0.355 OA
HETATM   28  C   UNL     1      40.753 -16.090   2.500  1.00  0.00     0.210 C 
ENDBRANCH  23  27
BRANCH  24  29
HETATM   29  C   UNL     1      43.583 -18.995   3.465  1.00  0.00     0.013 A 
HETATM   30  C   UNL     1      44.021 -20.293   3.816  1.00  0.00     0.152 A 
HETATM   31  N   UNL     1      43.994 -21.146   2.787  1.00  0.00    -0.187 NA
HETATM   32  N   UNL     1      43.556 -20.390   1.768  1.00  0.00    -0.289 N 
HETATM   33  H   UNL     1      43.465 -20.824   0.856  1.00  0.00     0.188 HD
HETATM   34  C   UNL     1      43.288 -19.099   2.122  1.00  0.00     0.123 A 
ENDBRANCH  24  29
ENDBRANCH   1  21
TORSDOF 9
ENDMDL
