MODEL 1
REMARK VINA RESULT:      -7.9      0.000      0.000
REMARK  10 active torsions:
REMARK  status: ('A' for Active; 'I' for Inactive)
REMARK    1  A    between atoms: C_7  and  N_8 
REMARK    2  A    between atoms: C_9  and  S_10 
REMARK    3  A    between atoms: S_10  and  C_11 
REMARK    4  A    between atoms: C_11  and  C_12 
REMARK       I    between atoms: C_12  and  N_13 
REMARK    5  A    between atoms: N_13  and  C_14 
REMARK    6  A    between atoms: C_14  and  C_15 
REMARK    7  A    between atoms: C_15  and  C_16 
REMARK    8  A    between atoms: C_18  and  O_19 
REMARK    9  A    between atoms: C_21  and  O_22 
REMARK   10  A    between atoms: C_30  and  N_31 
ROOT
HETATM    1  N   UNL     1      42.515 -11.414   4.198  1.00  0.00    -0.276 N 
HETATM    2  C   UNL     1      41.585 -11.233   5.260  1.00  0.00     0.177 A 
HETATM    3  N   UNL     1      41.884 -11.131   6.533  1.00  0.00    -0.204 NA
HETATM    4  C   UNL     1      43.209 -11.178   6.791  1.00  0.00     0.162 A 
HETATM    5  C   UNL     1      44.256 -11.330   5.926  1.00  0.00     0.081 A 
HETATM    6  C   UNL     1      43.933 -11.494   4.540  1.00  0.00     0.124 A 
HETATM    7  N   UNL     1      43.777 -11.046   8.024  1.00  0.00    -0.260 N 
HETATM    8  H   UNL     1      43.310 -10.909   8.913  1.00  0.00     0.191 HD
HETATM    9  N   UNL     1      45.127 -11.102   7.992  1.00  0.00    -0.177 NA
HETATM   10  C   UNL     1      45.428 -11.264   6.693  1.00  0.00     0.068 A 
HETATM   11  C   UNL     1      46.850 -11.333   6.280  1.00  0.00     0.073 C 
ENDROOT
BRANCH   2  12
HETATM   12  S   UNL     1      39.852 -11.061   4.907  1.00  0.00    -0.082 SA
BRANCH  12  13
HETATM   13  C   UNL     1      39.203 -12.496   5.809  1.00  0.00     0.185 C 
BRANCH  13  14
HETATM   14  C   UNL     1      40.029 -13.751   5.566  1.00  0.00     0.227 C 
HETATM   15  N   UNL     1      40.829 -14.088   6.647  1.00  0.00    -0.360 N 
HETATM   16  H   UNL     1      40.959 -13.405   7.381  1.00  0.00     0.162 HD
HETATM   17  O   UNL     1      40.038 -14.380   4.514  1.00  0.00    -0.273 OA
BRANCH  15  18
HETATM   18  C   UNL     1      41.769 -15.196   6.570  1.00  0.00     0.127 C 
BRANCH  18  19
HETATM   19  C   UNL     1      42.875 -14.915   5.554  1.00  0.00     0.058 C 
BRANCH  19  20
HETATM   20  C   UNL     1      43.194 -16.106   4.687  1.00  0.00    -0.054 A 
HETATM   21  C   UNL     1      43.766 -17.258   5.248  1.00  0.00     0.046 A 
HETATM   22  C   UNL     1      44.081 -18.365   4.449  1.00  0.00     0.102 A 
HETATM   23  C   UNL     1      43.814 -18.323   3.067  1.00  0.00     0.101 A 
HETATM   24  C   UNL     1      43.224 -17.183   2.512  1.00  0.00     0.040 A 
HETATM   25  C   UNL     1      42.916 -16.083   3.317  1.00  0.00     0.010 A 
BRANCH  22  26
HETATM   26  O   UNL     1      44.653 -19.522   4.918  1.00  0.00    -0.353 OA
HETATM   27  C   UNL     1      43.817 -20.443   5.603  1.00  0.00     0.210 C 
ENDBRANCH  22  26
BRANCH  23  28
HETATM   28  O   UNL     1      44.153 -19.445   2.351  1.00  0.00    -0.353 OA
HETATM   29  C   UNL     1      43.095 -20.265   1.875  1.00  0.00     0.210 C 
ENDBRANCH  23  28
ENDBRANCH  19  20
ENDBRANCH  18  19
ENDBRANCH  15  18
ENDBRANCH  13  14
ENDBRANCH  12  13
ENDBRANCH   2  12
BRANCH   1  30
HETATM   30  C   UNL     1      42.102 -11.517   2.836  1.00  0.00     0.043 A 
HETATM   31  C   UNL     1      41.924 -10.377   2.041  1.00  0.00     0.032 A 
HETATM   32  C   UNL     1      41.435 -10.494   0.738  1.00  0.00     0.026 A 
HETATM   33  C   UNL     1      41.100 -11.746   0.219  1.00  0.00     0.040 A 
HETATM   34  C   UNL     1      41.261 -12.904   0.995  1.00  0.00    -0.038 A 
HETATM   35 CL   UNL     1      40.472 -11.816  -1.387  1.00  0.00    -0.084 Cl
HETATM   36  C   UNL     1      40.901 -14.267   0.469  1.00  0.00     0.050 C 
HETATM   37  C   UNL     1      41.768 -12.775   2.299  1.00  0.00     0.038 A 
ENDBRANCH   1  30
BRANCH   6  38
HETATM   38  N   UNL     1      44.875 -11.749   3.650  1.00  0.00    -0.384 N 
HETATM   39  H   UNL     1      44.663 -12.153   2.750  1.00  0.00     0.157 HD
HETATM   40  H   UNL     1      45.838 -11.504   3.846  1.00  0.00     0.157 HD
ENDBRANCH   6  38
TORSDOF 10
ENDMDL
MODEL 2
REMARK VINA RESULT:      -7.9      5.413      9.297
REMARK  10 active torsions:
REMARK  status: ('A' for Active; 'I' for Inactive)
REMARK    1  A    between atoms: C_7  and  N_8 
REMARK    2  A    between atoms: C_9  and  S_10 
REMARK    3  A    between atoms: S_10  and  C_11 
REMARK    4  A    between atoms: C_11  and  C_12 
REMARK       I    between atoms: C_12  and  N_13 
REMARK    5  A    between atoms: N_13  and  C_14 
REMARK    6  A    between atoms: C_14  and  C_15 
REMARK    7  A    between atoms: C_15  and  C_16 
REMARK    8  A    between atoms: C_18  and  O_19 
REMARK    9  A    between atoms: C_21  and  O_22 
REMARK   10  A    between atoms: C_30  and  N_31 
ROOT
HETATM    1  N   UNL     1      42.631 -14.009   4.176  1.00  0.00    -0.276 N 
HETATM    2  C   UNL     1      43.185 -12.852   4.792  1.00  0.00     0.177 A 
HETATM    3  N   UNL     1      43.155 -11.635   4.305  1.00  0.00    -0.204 NA
HETATM    4  C   UNL     1      42.503 -11.531   3.127  1.00  0.00     0.162 A 
HETATM    5  C   UNL     1      41.895 -12.503   2.384  1.00  0.00     0.081 A 
HETATM    6  C   UNL     1      41.968 -13.843   2.885  1.00  0.00     0.124 A 
HETATM    7  N   UNL     1      42.292 -10.370   2.442  1.00  0.00    -0.260 N 
HETATM    8  H   UNL     1      42.594  -9.435   2.694  1.00  0.00     0.191 HD
HETATM    9  N   UNL     1      41.582 -10.548   1.307  1.00  0.00    -0.177 NA
HETATM   10  C   UNL     1      41.321 -11.866   1.274  1.00  0.00     0.068 A 
HETATM   11  C   UNL     1      40.516 -12.420   0.160  1.00  0.00     0.073 C 
ENDROOT
BRANCH   2  12
HETATM   12  S   UNL     1      43.947 -12.973   6.392  1.00  0.00    -0.082 SA
BRANCH  12  13
HETATM   13  C   UNL     1      43.970 -11.220   6.864  1.00  0.00     0.185 C 
BRANCH  13  14
HETATM   14  C   UNL     1      44.607 -10.999   8.228  1.00  0.00     0.227 C 
HETATM   15  N   UNL     1      43.677 -10.936   9.255  1.00  0.00    -0.360 N 
HETATM   16  H   UNL     1      42.701 -10.830   9.013  1.00  0.00     0.162 HD
HETATM   17  O   UNL     1      45.809 -10.841   8.412  1.00  0.00    -0.273 OA
BRANCH  15  18
HETATM   18  C   UNL     1      44.083 -10.626  10.617  1.00  0.00     0.127 C 
BRANCH  18  19
HETATM   19  C   UNL     1      43.934  -9.134  10.914  1.00  0.00     0.058 C 
BRANCH  19  20
HETATM   20  C   UNL     1      43.136  -8.860  12.164  1.00  0.00    -0.054 A 
HETATM   21  C   UNL     1      41.978  -9.602  12.440  1.00  0.00     0.046 A 
HETATM   22  C   UNL     1      41.219  -9.346  13.590  1.00  0.00     0.102 A 
HETATM   23  C   UNL     1      41.628  -8.334  14.481  1.00  0.00     0.101 A 
HETATM   24  C   UNL     1      42.794  -7.610  14.215  1.00  0.00     0.040 A 
HETATM   25  C   UNL     1      43.542  -7.872  13.064  1.00  0.00     0.010 A 
BRANCH  22  26
HETATM   26  O   UNL     1      40.069 -10.017  13.927  1.00  0.00    -0.353 OA
HETATM   27  C   UNL     1      39.515 -10.902  12.966  1.00  0.00     0.210 C 
ENDBRANCH  22  26
BRANCH  23  28
HETATM   28  O   UNL     1      40.831  -8.141  15.584  1.00  0.00    -0.353 OA
HETATM   29  C   UNL     1      40.781  -6.834  16.136  1.00  0.00     0.210 C 
ENDBRANCH  23  28
ENDBRANCH  19  20
ENDBRANCH  18  19
ENDBRANCH  15  18
ENDBRANCH  13  14
ENDBRANCH  12  13
ENDBRANCH   2  12
BRANCH   1  30
HETATM   30  C   UNL     1      42.709 -15.301   4.778  1.00  0.00     0.043 A 
HETATM   31  C   UNL     1      42.012 -15.599   5.955  1.00  0.00     0.032 A 
HETATM   32  C   UNL     1      42.171 -16.840   6.576  1.00  0.00     0.026 A 
HETATM   33  C   UNL     1      43.041 -17.791   6.040  1.00  0.00     0.040 A 
HETATM   34  C   UNL     1      43.759 -17.517   4.866  1.00  0.00    -0.038 A 
HETATM   35 CL   UNL     1      43.214 -19.292   6.874  1.00  0.00    -0.084 Cl
HETATM   36  C   UNL     1      44.711 -18.516   4.268  1.00  0.00     0.050 C 
HETATM   37  C   UNL     1      43.578 -16.271   4.243  1.00  0.00     0.038 A 
ENDBRANCH   1  30
BRANCH   6  38
HETATM   38  N   UNL     1      41.498 -14.856   2.182  1.00  0.00    -0.384 N 
HETATM   39  H   UNL     1      41.690 -15.814   2.433  1.00  0.00     0.157 HD
HETATM   40  H   UNL     1      40.895 -14.686   1.386  1.00  0.00     0.157 HD
ENDBRANCH   6  38
TORSDOF 10
ENDMDL
MODEL 3
REMARK VINA RESULT:      -7.8      4.399      8.162
REMARK  10 active torsions:
REMARK  status: ('A' for Active; 'I' for Inactive)
REMARK    1  A    between atoms: C_7  and  N_8 
REMARK    2  A    between atoms: C_9  and  S_10 
REMARK    3  A    between atoms: S_10  and  C_11 
REMARK    4  A    between atoms: C_11  and  C_12 
REMARK       I    between atoms: C_12  and  N_13 
REMARK    5  A    between atoms: N_13  and  C_14 
REMARK    6  A    between atoms: C_14  and  C_15 
REMARK    7  A    between atoms: C_15  and  C_16 
REMARK    8  A    between atoms: C_18  and  O_19 
REMARK    9  A    between atoms: C_21  and  O_22 
REMARK   10  A    between atoms: C_30  and  N_31 
ROOT
HETATM    1  N   UNL     1      41.968 -14.805   3.540  1.00  0.00    -0.276 N 
HETATM    2  C   UNL     1      42.724 -14.526   4.712  1.00  0.00     0.177 A 
HETATM    3  N   UNL     1      43.546 -15.354   5.310  1.00  0.00    -0.204 NA
HETATM    4  C   UNL     1      43.665 -16.550   4.694  1.00  0.00     0.162 A 
HETATM    5  C   UNL     1      43.046 -17.009   3.565  1.00  0.00     0.081 A 
HETATM    6  C   UNL     1      42.108 -16.128   2.936  1.00  0.00     0.124 A 
HETATM    7  N   UNL     1      44.490 -17.562   5.090  1.00  0.00    -0.260 N 
HETATM    8  H   UNL     1      45.114 -17.581   5.888  1.00  0.00     0.191 HD
HETATM    9  N   UNL     1      44.434 -18.638   4.274  1.00  0.00    -0.177 NA
HETATM   10  C   UNL     1      43.551 -18.295   3.320  1.00  0.00     0.068 A 
HETATM   11  C   UNL     1      43.265 -19.244   2.219  1.00  0.00     0.073 C 
ENDROOT
BRANCH   2  12
HETATM   12  S   UNL     1      42.650 -12.915   5.458  1.00  0.00    -0.082 SA
BRANCH  12  13
HETATM   13  C   UNL     1      44.006 -13.060   6.656  1.00  0.00     0.185 C 
BRANCH  13  14
HETATM   14  C   UNL     1      44.780 -11.758   6.809  1.00  0.00     0.227 C 
HETATM   15  N   UNL     1      44.504 -11.104   8.000  1.00  0.00    -0.360 N 
HETATM   16  H   UNL     1      43.705 -11.406   8.542  1.00  0.00     0.162 HD
HETATM   17  O   UNL     1      45.533 -11.296   5.958  1.00  0.00    -0.273 OA
BRANCH  15  18
HETATM   18  C   UNL     1      45.067  -9.792   8.285  1.00  0.00     0.127 C 
BRANCH  18  19
HETATM   19  C   UNL     1      45.490  -9.676   9.749  1.00  0.00     0.058 C 
BRANCH  19  20
HETATM   20  C   UNL     1      44.318  -9.644  10.698  1.00  0.00    -0.054 A 
HETATM   21  C   UNL     1      43.516  -8.497  10.794  1.00  0.00     0.046 A 
HETATM   22  C   UNL     1      42.434  -8.451  11.684  1.00  0.00     0.102 A 
HETATM   23  C   UNL     1      42.147  -9.572  12.487  1.00  0.00     0.101 A 
HETATM   24  C   UNL     1      42.935 -10.722  12.375  1.00  0.00     0.040 A 
HETATM   25  C   UNL     1      44.012 -10.757  11.486  1.00  0.00     0.010 A 
BRANCH  22  26
HETATM   26  O   UNL     1      41.610  -7.365  11.847  1.00  0.00    -0.353 OA
HETATM   27  C   UNL     1      41.672  -6.336  10.871  1.00  0.00     0.210 C 
ENDBRANCH  22  26
BRANCH  23  28
HETATM   28  O   UNL     1      41.073  -9.449  13.336  1.00  0.00    -0.353 OA
HETATM   29  C   UNL     1      39.949 -10.283  13.097  1.00  0.00     0.210 C 
ENDBRANCH  23  28
ENDBRANCH  19  20
ENDBRANCH  18  19
ENDBRANCH  15  18
ENDBRANCH  13  14
ENDBRANCH  12  13
ENDBRANCH   2  12
BRANCH   1  30
HETATM   30  C   UNL     1      41.093 -13.842   2.953  1.00  0.00     0.043 A 
HETATM   31  C   UNL     1      39.804 -13.627   3.458  1.00  0.00     0.032 A 
HETATM   32  C   UNL     1      38.932 -12.745   2.816  1.00  0.00     0.026 A 
HETATM   33  C   UNL     1      39.328 -12.080   1.654  1.00  0.00     0.040 A 
HETATM   34  C   UNL     1      40.610 -12.283   1.121  1.00  0.00    -0.038 A 
HETATM   35 CL   UNL     1      38.191 -11.028   0.894  1.00  0.00    -0.084 Cl
HETATM   36  C   UNL     1      41.065 -11.590  -0.135  1.00  0.00     0.050 C 
HETATM   37  C   UNL     1      41.484 -13.161   1.785  1.00  0.00     0.038 A 
ENDBRANCH   1  30
BRANCH   6  38
HETATM   38  N   UNL     1      41.391 -16.528   1.903  1.00  0.00    -0.384 N 
HETATM   39  H   UNL     1      41.192 -17.503   1.737  1.00  0.00     0.157 HD
HETATM   40  H   UNL     1      40.990 -15.847   1.269  1.00  0.00     0.157 HD
ENDBRANCH   6  38
TORSDOF 10
ENDMDL
MODEL 4
REMARK VINA RESULT:      -7.7      4.255      8.390
REMARK  10 active torsions:
REMARK  status: ('A' for Active; 'I' for Inactive)
REMARK    1  A    between atoms: C_7  and  N_8 
REMARK    2  A    between atoms: C_9  and  S_10 
REMARK    3  A    between atoms: S_10  and  C_11 
REMARK    4  A    between atoms: C_11  and  C_12 
REMARK       I    between atoms: C_12  and  N_13 
REMARK    5  A    between atoms: N_13  and  C_14 
REMARK    6  A    between atoms: C_14  and  C_15 
REMARK    7  A    between atoms: C_15  and  C_16 
REMARK    8  A    between atoms: C_18  and  O_19 
REMARK    9  A    between atoms: C_21  and  O_22 
REMARK   10  A    between atoms: C_30  and  N_31 
ROOT
HETATM    1  N   UNL     1      41.390 -12.698   2.772  1.00  0.00    -0.276 N 
HETATM    2  C   UNL     1      41.968 -11.532   3.347  1.00  0.00     0.177 A 
HETATM    3  N   UNL     1      41.436 -10.333   3.347  1.00  0.00    -0.204 NA
HETATM    4  C   UNL     1      40.221 -10.271   2.762  1.00  0.00     0.162 A 
HETATM    5  C   UNL     1      39.492 -11.263   2.170  1.00  0.00     0.081 A 
HETATM    6  C   UNL     1      40.089 -12.565   2.120  1.00  0.00     0.124 A 
HETATM    7  N   UNL     1      39.442  -9.153   2.677  1.00  0.00    -0.260 N 
HETATM    8  H   UNL     1      39.651  -8.222   3.017  1.00  0.00     0.191 HD
HETATM    9  N   UNL     1      38.258  -9.380   2.068  1.00  0.00    -0.177 NA
HETATM   10  C   UNL     1      38.279 -10.689   1.764  1.00  0.00     0.068 A 
HETATM   11  C   UNL     1      37.101 -11.300   1.103  1.00  0.00     0.073 C 
ENDROOT
BRANCH   2  12
HETATM   12  S   UNL     1      43.516 -11.638   4.212  1.00  0.00    -0.082 SA
BRANCH  12  13
HETATM   13  C   UNL     1      42.914 -11.771   5.919  1.00  0.00     0.185 C 
BRANCH  13  14
HETATM   14  C   UNL     1      44.045 -11.702   6.935  1.00  0.00     0.227 C 
HETATM   15  N   UNL     1      45.031 -10.792   6.585  1.00  0.00    -0.360 N 
HETATM   16  H   UNL     1      45.035 -10.426   5.642  1.00  0.00     0.162 HD
HETATM   17  O   UNL     1      44.118 -12.405   7.937  1.00  0.00    -0.273 OA
BRANCH  15  18
HETATM   18  C   UNL     1      46.245 -10.658   7.376  1.00  0.00     0.127 C 
BRANCH  18  19
HETATM   19  C   UNL     1      46.342  -9.270   8.011  1.00  0.00     0.058 C 
BRANCH  19  20
HETATM   20  C   UNL     1      45.300  -9.036   9.075  1.00  0.00    -0.054 A 
HETATM   21  C   UNL     1      44.322  -8.045   8.902  1.00  0.00     0.046 A 
HETATM   22  C   UNL     1      43.358  -7.808   9.891  1.00  0.00     0.102 A 
HETATM   23  C   UNL     1      43.369  -8.578  11.071  1.00  0.00     0.101 A 
HETATM   24  C   UNL     1      44.332  -9.579  11.232  1.00  0.00     0.040 A 
HETATM   25  C   UNL     1      45.290  -9.806  10.241  1.00  0.00     0.010 A 
BRANCH  22  26
HETATM   26  O   UNL     1      42.377  -6.851   9.804  1.00  0.00    -0.353 OA
HETATM   27  C   UNL     1      42.758  -5.496   9.984  1.00  0.00     0.210 C 
ENDBRANCH  22  26
BRANCH  23  28
HETATM   28  O   UNL     1      42.395  -8.284  11.993  1.00  0.00    -0.353 OA
HETATM   29  C   UNL     1      42.817  -7.850  13.278  1.00  0.00     0.210 C 
ENDBRANCH  23  28
ENDBRANCH  19  20
ENDBRANCH  18  19
ENDBRANCH  15  18
ENDBRANCH  13  14
ENDBRANCH  12  13
ENDBRANCH   2  12
BRANCH   1  30
HETATM   30  C   UNL     1      42.039 -13.968   2.816  1.00  0.00     0.043 A 
HETATM   31  C   UNL     1      42.768 -14.451   1.722  1.00  0.00     0.032 A 
HETATM   32  C   UNL     1      43.321 -15.733   1.752  1.00  0.00     0.026 A 
HETATM   33  C   UNL     1      43.140 -16.555   2.866  1.00  0.00     0.040 A 
HETATM   34  C   UNL     1      42.409 -16.100   3.974  1.00  0.00    -0.038 A 
HETATM   35 CL   UNL     1      43.824 -18.139   2.825  1.00  0.00    -0.084 Cl
HETATM   36  C   UNL     1      42.187 -16.963   5.185  1.00  0.00     0.050 C 
HETATM   37  C   UNL     1      41.869 -14.803   3.937  1.00  0.00     0.038 A 
ENDBRANCH   1  30
BRANCH   6  38
HETATM   38  N   UNL     1      39.501 -13.556   1.477  1.00  0.00    -0.384 N 
HETATM   39  H   UNL     1      39.787 -13.835   0.551  1.00  0.00     0.157 HD
HETATM   40  H   UNL     1      38.766 -14.088   1.927  1.00  0.00     0.157 HD
ENDBRANCH   6  38
TORSDOF 10
ENDMDL
MODEL 5
REMARK VINA RESULT:      -7.7      4.953      8.482
REMARK  10 active torsions:
REMARK  status: ('A' for Active; 'I' for Inactive)
REMARK    1  A    between atoms: C_7  and  N_8 
REMARK    2  A    between atoms: C_9  and  S_10 
REMARK    3  A    between atoms: S_10  and  C_11 
REMARK    4  A    between atoms: C_11  and  C_12 
REMARK       I    between atoms: C_12  and  N_13 
REMARK    5  A    between atoms: N_13  and  C_14 
REMARK    6  A    between atoms: C_14  and  C_15 
REMARK    7  A    between atoms: C_15  and  C_16 
REMARK    8  A    between atoms: C_18  and  O_19 
REMARK    9  A    between atoms: C_21  and  O_22 
REMARK   10  A    between atoms: C_30  and  N_31 
ROOT
HETATM    1  N   UNL     1      42.362 -14.244   3.892  1.00  0.00    -0.276 N 
HETATM    2  C   UNL     1      42.701 -14.144   5.270  1.00  0.00     0.177 A 
HETATM    3  N   UNL     1      43.202 -15.106   6.008  1.00  0.00    -0.204 NA
HETATM    4  C   UNL     1      43.419 -16.257   5.337  1.00  0.00     0.162 A 
HETATM    5  C   UNL     1      43.179 -16.554   4.025  1.00  0.00     0.081 A 
HETATM    6  C   UNL     1      42.584 -15.525   3.226  1.00  0.00     0.124 A 
HETATM    7  N   UNL     1      43.975 -17.385   5.866  1.00  0.00    -0.260 N 
HETATM    8  H   UNL     1      44.291 -17.537   6.817  1.00  0.00     0.191 HD
HETATM    9  N   UNL     1      44.106 -18.382   4.963  1.00  0.00    -0.177 NA
HETATM   10  C   UNL     1      43.627 -17.867   3.818  1.00  0.00     0.068 A 
HETATM   11  C   UNL     1      43.647 -18.691   2.586  1.00  0.00     0.073 C 
ENDROOT
BRANCH   2  12
HETATM   12  S   UNL     1      42.517 -12.597   6.123  1.00  0.00    -0.082 SA
BRANCH  12  13
HETATM   13  C   UNL     1      44.146 -12.479   6.916  1.00  0.00     0.185 C 
BRANCH  13  14
HETATM   14  C   UNL     1      44.351 -11.142   7.613  1.00  0.00     0.227 C 
HETATM   15  N   UNL     1      43.342 -10.843   8.516  1.00  0.00    -0.360 N 
HETATM   16  H   UNL     1      42.493 -11.391   8.487  1.00  0.00     0.162 HD
HETATM   17  O   UNL     1      45.278 -10.374   7.378  1.00  0.00    -0.273 OA
BRANCH  15  18
HETATM   18  C   UNL     1      43.306  -9.562   9.205  1.00  0.00     0.127 C 
BRANCH  18  19
HETATM   19  C   UNL     1      44.128  -9.601  10.493  1.00  0.00     0.058 C 
BRANCH  19  20
HETATM   20  C   UNL     1      43.311  -9.290  11.722  1.00  0.00    -0.054 A 
HETATM   21  C   UNL     1      42.236 -10.116  12.084  1.00  0.00     0.046 A 
HETATM   22  C   UNL     1      41.460  -9.828  13.215  1.00  0.00     0.102 A 
HETATM   23  C   UNL     1      41.768  -8.699  14.000  1.00  0.00     0.101 A 
HETATM   24  C   UNL     1      42.853  -7.890  13.649  1.00  0.00     0.040 A 
HETATM   25  C   UNL     1      43.618  -8.184  12.518  1.00  0.00     0.010 A 
BRANCH  22  26
HETATM   26  O   UNL     1      40.386 -10.576  13.630  1.00  0.00    -0.353 OA
HETATM   27  C   UNL     1      39.296 -10.722  12.732  1.00  0.00     0.210 C 
ENDBRANCH  22  26
BRANCH  23  28
HETATM   28  O   UNL     1      40.960  -8.482  15.090  1.00  0.00    -0.353 OA
HETATM   29  C   UNL     1      41.031  -7.210  15.716  1.00  0.00     0.210 C 
ENDBRANCH  23  28
ENDBRANCH  19  20
ENDBRANCH  18  19
ENDBRANCH  15  18
ENDBRANCH  13  14
ENDBRANCH  12  13
ENDBRANCH   2  12
BRANCH   1  30
HETATM   30  C   UNL     1      41.819 -13.144   3.162  1.00  0.00     0.043 A 
HETATM   31  C   UNL     1      42.639 -12.119   2.673  1.00  0.00     0.032 A 
HETATM   32  C   UNL     1      42.078 -11.008   2.039  1.00  0.00     0.026 A 
HETATM   33  C   UNL     1      40.693 -10.898   1.900  1.00  0.00     0.040 A 
HETATM   34  C   UNL     1      39.847 -11.906   2.386  1.00  0.00    -0.038 A 
HETATM   35 CL   UNL     1      40.066  -9.485   1.134  1.00  0.00    -0.084 Cl
HETATM   36  C   UNL     1      38.351 -11.814   2.262  1.00  0.00     0.050 C 
HETATM   37  C   UNL     1      40.424 -13.026   3.009  1.00  0.00     0.038 A 
ENDBRANCH   1  30
BRANCH   6  38
HETATM   38  N   UNL     1      42.225 -15.759   1.978  1.00  0.00    -0.384 N 
HETATM   39  H   UNL     1      42.835 -16.230   1.326  1.00  0.00     0.157 HD
HETATM   40  H   UNL     1      41.299 -15.500   1.659  1.00  0.00     0.157 HD
ENDBRANCH   6  38
TORSDOF 10
ENDMDL
MODEL 6
REMARK VINA RESULT:      -7.6      2.910      5.363
REMARK  10 active torsions:
REMARK  status: ('A' for Active; 'I' for Inactive)
REMARK    1  A    between atoms: C_7  and  N_8 
REMARK    2  A    between atoms: C_9  and  S_10 
REMARK    3  A    between atoms: S_10  and  C_11 
REMARK    4  A    between atoms: C_11  and  C_12 
REMARK       I    between atoms: C_12  and  N_13 
REMARK    5  A    between atoms: N_13  and  C_14 
REMARK    6  A    between atoms: C_14  and  C_15 
REMARK    7  A    between atoms: C_15  and  C_16 
REMARK    8  A    between atoms: C_18  and  O_19 
REMARK    9  A    between atoms: C_21  and  O_22 
REMARK   10  A    between atoms: C_30  and  N_31 
ROOT
HETATM    1  N   UNL     1      42.697 -12.096   5.677  1.00  0.00    -0.276 N 
HETATM    2  C   UNL     1      41.383 -11.603   5.914  1.00  0.00     0.177 A 
HETATM    3  N   UNL     1      41.068 -10.617   6.719  1.00  0.00    -0.204 NA
HETATM    4  C   UNL     1      42.129 -10.041   7.324  1.00  0.00     0.162 A 
HETATM    5  C   UNL     1      43.456 -10.349   7.224  1.00  0.00     0.081 A 
HETATM    6  C   UNL     1      43.803 -11.458   6.386  1.00  0.00     0.124 A 
HETATM    7  N   UNL     1      42.070  -8.970   8.167  1.00  0.00    -0.260 N 
HETATM    8  H   UNL     1      41.248  -8.462   8.472  1.00  0.00     0.191 HD
HETATM    9  N   UNL     1      43.286  -8.576   8.606  1.00  0.00    -0.177 NA
HETATM   10  C   UNL     1      44.149  -9.419   8.014  1.00  0.00     0.068 A 
HETATM   11  C   UNL     1      45.603  -9.255   8.249  1.00  0.00     0.073 C 
ENDROOT
BRANCH   2  12
HETATM   12  S   UNL     1      40.001 -12.290   5.034  1.00  0.00    -0.082 SA
BRANCH  12  13
HETATM   13  C   UNL     1      39.117 -10.767   4.597  1.00  0.00     0.185 C 
BRANCH  13  14
HETATM   14  C   UNL     1      39.072 -10.538   3.093  1.00  0.00     0.227 C 
HETATM   15  N   UNL     1      40.290 -10.129   2.572  1.00  0.00    -0.360 N 
HETATM   16  H   UNL     1      41.010  -9.824   3.214  1.00  0.00     0.162 HD
HETATM   17  O   UNL     1      38.062 -10.650   2.406  1.00  0.00    -0.273 OA
BRANCH  15  18
HETATM   18  C   UNL     1      40.422  -9.760   1.171  1.00  0.00     0.127 C 
BRANCH  18  19
HETATM   19  C   UNL     1      41.514 -10.580   0.483  1.00  0.00     0.058 C 
BRANCH  19  20
HETATM   20  C   UNL     1      40.961 -11.672  -0.398  1.00  0.00    -0.054 A 
HETATM   21  C   UNL     1      40.506 -12.873   0.165  1.00  0.00     0.046 A 
HETATM   22  C   UNL     1      40.005 -13.901  -0.645  1.00  0.00     0.102 A 
HETATM   23  C   UNL     1      39.953 -13.723  -2.041  1.00  0.00     0.101 A 
HETATM   24  C   UNL     1      40.388 -12.516  -2.599  1.00  0.00     0.040 A 
HETATM   25  C   UNL     1      40.887 -11.499  -1.783  1.00  0.00     0.010 A 
BRANCH  22  26
HETATM   26  O   UNL     1      39.553 -15.109  -0.175  1.00  0.00    -0.353 OA
HETATM   27  C   UNL     1      40.070 -15.572   1.064  1.00  0.00     0.210 C 
ENDBRANCH  22  26
BRANCH  23  28
HETATM   28  O   UNL     1      39.453 -14.776  -2.768  1.00  0.00    -0.353 OA
HETATM   29  C   UNL     1      38.289 -14.541  -3.547  1.00  0.00     0.210 C 
ENDBRANCH  23  28
ENDBRANCH  19  20
ENDBRANCH  18  19
ENDBRANCH  15  18
ENDBRANCH  13  14
ENDBRANCH  12  13
ENDBRANCH   2  12
BRANCH   1  30
HETATM   30  C   UNL     1      42.952 -13.178   4.781  1.00  0.00     0.043 A 
HETATM   31  C   UNL     1      43.110 -12.963   3.406  1.00  0.00     0.032 A 
HETATM   32  C   UNL     1      43.270 -14.043   2.536  1.00  0.00     0.026 A 
HETATM   33  C   UNL     1      43.258 -15.351   3.025  1.00  0.00     0.040 A 
HETATM   34  C   UNL     1      43.095 -15.597   4.396  1.00  0.00    -0.038 A 
HETATM   35 CL   UNL     1      43.431 -16.641   1.891  1.00  0.00    -0.084 Cl
HETATM   36  C   UNL     1      43.067 -16.994   4.953  1.00  0.00     0.050 C 
HETATM   37  C   UNL     1      42.949 -14.500   5.263  1.00  0.00     0.038 A 
ENDBRANCH   1  30
BRANCH   6  38
HETATM   38  N   UNL     1      45.049 -11.888   6.313  1.00  0.00    -0.384 N 
HETATM   39  H   UNL     1      45.766 -11.366   5.831  1.00  0.00     0.157 HD
HETATM   40  H   UNL     1      45.319 -12.745   6.780  1.00  0.00     0.157 HD
ENDBRANCH   6  38
TORSDOF 10
ENDMDL
MODEL 7
REMARK VINA RESULT:      -7.6      3.431      5.843
REMARK  10 active torsions:
REMARK  status: ('A' for Active; 'I' for Inactive)
REMARK    1  A    between atoms: C_7  and  N_8 
REMARK    2  A    between atoms: C_9  and  S_10 
REMARK    3  A    between atoms: S_10  and  C_11 
REMARK    4  A    between atoms: C_11  and  C_12 
REMARK       I    between atoms: C_12  and  N_13 
REMARK    5  A    between atoms: N_13  and  C_14 
REMARK    6  A    between atoms: C_14  and  C_15 
REMARK    7  A    between atoms: C_15  and  C_16 
REMARK    8  A    between atoms: C_18  and  O_19 
REMARK    9  A    between atoms: C_21  and  O_22 
REMARK   10  A    between atoms: C_30  and  N_31 
ROOT
HETATM    1  N   UNL     1      42.613 -12.293   6.179  1.00  0.00    -0.276 N 
HETATM    2  C   UNL     1      41.384 -11.615   6.410  1.00  0.00     0.177 A 
HETATM    3  N   UNL     1      41.246 -10.468   7.032  1.00  0.00    -0.204 NA
HETATM    4  C   UNL     1      42.411  -9.920   7.439  1.00  0.00     0.162 A 
HETATM    5  C   UNL     1      43.686 -10.395   7.306  1.00  0.00     0.081 A 
HETATM    6  C   UNL     1      43.839 -11.671   6.673  1.00  0.00     0.124 A 
HETATM    7  N   UNL     1      42.539  -8.714   8.064  1.00  0.00    -0.260 N 
HETATM    8  H   UNL     1      41.805  -8.066   8.324  1.00  0.00     0.191 HD
HETATM    9  N   UNL     1      43.824  -8.393   8.332  1.00  0.00    -0.177 NA
HETATM   10  C   UNL     1      44.539  -9.425   7.852  1.00  0.00     0.068 A 
HETATM   11  C   UNL     1      46.017  -9.393   7.948  1.00  0.00     0.073 C 
ENDROOT
BRANCH   2  12
HETATM   12  S   UNL     1      39.864 -12.283   5.778  1.00  0.00    -0.082 SA
BRANCH  12  13
HETATM   13  C   UNL     1      39.868 -11.556   4.115  1.00  0.00     0.185 C 
BRANCH  13  14
HETATM   14  C   UNL     1      39.210 -12.466   3.087  1.00  0.00     0.227 C 
HETATM   15  N   UNL     1      39.679 -13.770   3.141  1.00  0.00    -0.360 N 
HETATM   16  H   UNL     1      40.520 -13.957   3.672  1.00  0.00     0.162 HD
HETATM   17  O   UNL     1      38.387 -12.092   2.259  1.00  0.00    -0.273 OA
BRANCH  15  18
HETATM   18  C   UNL     1      39.248 -14.764   2.171  1.00  0.00     0.127 C 
BRANCH  18  19
HETATM   19  C   UNL     1      40.362 -15.088   1.175  1.00  0.00     0.058 C 
BRANCH  19  20
HETATM   20  C   UNL     1      40.395 -14.141   0.002  1.00  0.00    -0.054 A 
HETATM   21  C   UNL     1      39.829 -14.517  -1.226  1.00  0.00     0.046 A 
HETATM   22  C   UNL     1      39.867 -13.652  -2.328  1.00  0.00     0.102 A 
HETATM   23  C   UNL     1      40.476 -12.388  -2.199  1.00  0.00     0.101 A 
HETATM   24  C   UNL     1      41.021 -12.007  -0.968  1.00  0.00     0.040 A 
HETATM   25  C   UNL     1      40.979 -12.878   0.124  1.00  0.00     0.010 A 
BRANCH  22  26
HETATM   26  O   UNL     1      39.349 -13.948  -3.564  1.00  0.00    -0.353 OA
HETATM   27  C   UNL     1      38.137 -14.686  -3.615  1.00  0.00     0.210 C 
ENDBRANCH  22  26
BRANCH  23  28
HETATM   28  O   UNL     1      40.476 -11.599  -3.323  1.00  0.00    -0.353 OA
HETATM   29  C   UNL     1      39.662 -10.436  -3.308  1.00  0.00     0.210 C 
ENDBRANCH  23  28
ENDBRANCH  19  20
ENDBRANCH  18  19
ENDBRANCH  15  18
ENDBRANCH  13  14
ENDBRANCH  12  13
ENDBRANCH   2  12
BRANCH   1  30
HETATM   30  C   UNL     1      42.674 -13.542   5.491  1.00  0.00     0.043 A 
HETATM   31  C   UNL     1      42.501 -14.756   6.169  1.00  0.00     0.032 A 
HETATM   32  C   UNL     1      42.651 -15.969   5.494  1.00  0.00     0.026 A 
HETATM   33  C   UNL     1      42.993 -15.988   4.141  1.00  0.00     0.040 A 
HETATM   34  C   UNL     1      43.180 -14.788   3.438  1.00  0.00    -0.038 A 
HETATM   35 CL   UNL     1      43.194 -17.522   3.376  1.00  0.00    -0.084 Cl
HETATM   36  C   UNL     1      43.558 -14.773   1.982  1.00  0.00     0.050 C 
HETATM   37  C   UNL     1      43.011 -13.573   4.124  1.00  0.00     0.038 A 
ENDBRANCH   1  30
BRANCH   6  38
HETATM   38  N   UNL     1      45.022 -12.251   6.595  1.00  0.00    -0.384 N 
HETATM   39  H   UNL     1      45.170 -13.093   6.059  1.00  0.00     0.157 HD
HETATM   40  H   UNL     1      45.825 -11.831   7.049  1.00  0.00     0.157 HD
ENDBRANCH   6  38
TORSDOF 10
ENDMDL
MODEL 8
REMARK VINA RESULT:      -7.6      4.588      8.521
REMARK  10 active torsions:
REMARK  status: ('A' for Active; 'I' for Inactive)
REMARK    1  A    between atoms: C_7  and  N_8 
REMARK    2  A    between atoms: C_9  and  S_10 
REMARK    3  A    between atoms: S_10  and  C_11 
REMARK    4  A    between atoms: C_11  and  C_12 
REMARK       I    between atoms: C_12  and  N_13 
REMARK    5  A    between atoms: N_13  and  C_14 
REMARK    6  A    between atoms: C_14  and  C_15 
REMARK    7  A    between atoms: C_15  and  C_16 
REMARK    8  A    between atoms: C_18  and  O_19 
REMARK    9  A    between atoms: C_21  and  O_22 
REMARK   10  A    between atoms: C_30  and  N_31 
ROOT
HETATM    1  N   UNL     1      41.883 -12.420   5.501  1.00  0.00    -0.276 N 
HETATM    2  C   UNL     1      42.819 -11.717   6.310  1.00  0.00     0.177 A 
HETATM    3  N   UNL     1      42.654 -10.513   6.805  1.00  0.00    -0.204 NA
HETATM    4  C   UNL     1      41.460  -9.957   6.509  1.00  0.00     0.162 A 
HETATM    5  C   UNL     1      40.428 -10.462   5.768  1.00  0.00     0.081 A 
HETATM    6  C   UNL     1      40.622 -11.755   5.183  1.00  0.00     0.124 A 
HETATM    7  N   UNL     1      41.028  -8.738   6.944  1.00  0.00    -0.260 N 
HETATM    8  H   UNL     1      41.524  -8.074   7.527  1.00  0.00     0.191 HD
HETATM    9  N   UNL     1      39.779  -8.440   6.524  1.00  0.00    -0.177 NA
HETATM   10  C   UNL     1      39.398  -9.511   5.807  1.00  0.00     0.068 A 
HETATM   11  C   UNL     1      38.041  -9.542   5.212  1.00  0.00     0.073 C 
ENDROOT
BRANCH   2  12
HETATM   12  S   UNL     1      44.344 -12.494   6.789  1.00  0.00    -0.082 SA
BRANCH  12  13
HETATM   13  C   UNL     1      45.514 -11.167   6.385  1.00  0.00     0.185 C 
BRANCH  13  14
HETATM   14  C   UNL     1      45.902 -10.348   7.608  1.00  0.00     0.227 C 
HETATM   15  N   UNL     1      45.186 -10.701   8.742  1.00  0.00    -0.360 N 
HETATM   16  H   UNL     1      44.366 -11.282   8.632  1.00  0.00     0.162 HD
HETATM   17  O   UNL     1      46.721  -9.436   7.598  1.00  0.00    -0.273 OA
BRANCH  15  18
HETATM   18  C   UNL     1      45.339  -9.962   9.987  1.00  0.00     0.127 C 
BRANCH  18  19
HETATM   19  C   UNL     1      44.320 -10.417  11.030  1.00  0.00     0.058 C 
BRANCH  19  20
HETATM   20  C   UNL     1      43.236  -9.398  11.276  1.00  0.00    -0.054 A 
HETATM   21  C   UNL     1      42.123  -9.329  10.425  1.00  0.00     0.046 A 
HETATM   22  C   UNL     1      41.117  -8.376  10.635  1.00  0.00     0.102 A 
HETATM   23  C   UNL     1      41.223  -7.481  11.717  1.00  0.00     0.101 A 
HETATM   24  C   UNL     1      42.323  -7.565  12.577  1.00  0.00     0.040 A 
HETATM   25  C   UNL     1      43.321  -8.518  12.358  1.00  0.00     0.010 A 
BRANCH  22  26
HETATM   26  O   UNL     1      40.005  -8.235   9.842  1.00  0.00    -0.353 OA
HETATM   27  C   UNL     1      38.994  -9.226   9.939  1.00  0.00     0.210 C 
ENDBRANCH  22  26
BRANCH  23  28
HETATM   28  O   UNL     1      40.200  -6.575  11.855  1.00  0.00    -0.353 OA
HETATM   29  C   UNL     1      39.761  -6.276  13.172  1.00  0.00     0.210 C 
ENDBRANCH  23  28
ENDBRANCH  19  20
ENDBRANCH  18  19
ENDBRANCH  15  18
ENDBRANCH  13  14
ENDBRANCH  12  13
ENDBRANCH   2  12
BRANCH   1  30
HETATM   30  C   UNL     1      42.145 -13.731   5.002  1.00  0.00     0.043 A 
HETATM   31  C   UNL     1      42.045 -14.857   5.829  1.00  0.00     0.032 A 
HETATM   32  C   UNL     1      42.391 -16.121   5.345  1.00  0.00     0.026 A 
HETATM   33  C   UNL     1      42.856 -16.274   4.038  1.00  0.00     0.040 A 
HETATM   34  C   UNL     1      42.974 -15.163   3.190  1.00  0.00    -0.038 A 
HETATM   35 CL   UNL     1      43.295 -17.859   3.515  1.00  0.00    -0.084 Cl
HETATM   36  C   UNL     1      43.481 -15.292   1.780  1.00  0.00     0.050 C 
HETATM   37  C   UNL     1      42.609 -13.899   3.684  1.00  0.00     0.038 A 
ENDBRANCH   1  30
BRANCH   6  38
HETATM   38  N   UNL     1      39.721 -12.272   4.369  1.00  0.00    -0.384 N 
HETATM   39  H   UNL     1      39.017 -11.704   3.923  1.00  0.00     0.157 HD
HETATM   40  H   UNL     1      39.746 -13.260   4.146  1.00  0.00     0.157 HD
ENDBRANCH   6  38
TORSDOF 10
ENDMDL
MODEL 9
REMARK VINA RESULT:      -7.4      3.901      5.638
REMARK  10 active torsions:
REMARK  status: ('A' for Active; 'I' for Inactive)
REMARK    1  A    between atoms: C_7  and  N_8 
REMARK    2  A    between atoms: C_9  and  S_10 
REMARK    3  A    between atoms: S_10  and  C_11 
REMARK    4  A    between atoms: C_11  and  C_12 
REMARK       I    between atoms: C_12  and  N_13 
REMARK    5  A    between atoms: N_13  and  C_14 
REMARK    6  A    between atoms: C_14  and  C_15 
REMARK    7  A    between atoms: C_15  and  C_16 
REMARK    8  A    between atoms: C_18  and  O_19 
REMARK    9  A    between atoms: C_21  and  O_22 
REMARK   10  A    between atoms: C_30  and  N_31 
ROOT
HETATM    1  N   UNL     1      42.241  -9.440   9.605  1.00  0.00    -0.276 N 
HETATM    2  C   UNL     1      41.113  -8.997   8.859  1.00  0.00     0.177 A 
HETATM    3  N   UNL     1      39.967  -8.603   9.362  1.00  0.00    -0.204 NA
HETATM    4  C   UNL     1      39.927  -8.615  10.712  1.00  0.00     0.162 A 
HETATM    5  C   UNL     1      40.893  -8.986  11.605  1.00  0.00     0.081 A 
HETATM    6  C   UNL     1      42.129  -9.466  11.061  1.00  0.00     0.124 A 
HETATM    7  N   UNL     1      38.871  -8.207  11.473  1.00  0.00    -0.260 N 
HETATM    8  H   UNL     1      37.975  -7.855  11.156  1.00  0.00     0.191 HD
HETATM    9  N   UNL     1      39.111  -8.295  12.800  1.00  0.00    -0.177 NA
HETATM   10  C   UNL     1      40.367  -8.764  12.886  1.00  0.00     0.068 A 
HETATM   11  C   UNL     1      40.982  -8.956  14.221  1.00  0.00     0.073 C 
ENDROOT
BRANCH   2  12
HETATM   12  S   UNL     1      41.205  -8.879   7.089  1.00  0.00    -0.082 SA
BRANCH  12  13
HETATM   13  C   UNL     1      40.132 -10.267   6.624  1.00  0.00     0.185 C 
BRANCH  13  14
HETATM   14  C   UNL     1      40.907 -11.397   5.960  1.00  0.00     0.227 C 
HETATM   15  N   UNL     1      40.572 -12.647   6.458  1.00  0.00    -0.360 N 
HETATM   16  H   UNL     1      40.035 -12.696   7.314  1.00  0.00     0.162 HD
HETATM   17  O   UNL     1      41.776 -11.233   5.110  1.00  0.00    -0.273 OA
BRANCH  15  18
HETATM   18  C   UNL     1      41.278 -13.843   6.023  1.00  0.00     0.127 C 
BRANCH  18  19
HETATM   19  C   UNL     1      40.718 -14.368   4.702  1.00  0.00     0.058 C 
BRANCH  19  20
HETATM   20  C   UNL     1      41.525 -15.508   4.134  1.00  0.00    -0.054 A 
HETATM   21  C   UNL     1      42.456 -16.185   4.936  1.00  0.00     0.046 A 
HETATM   22  C   UNL     1      43.222 -17.236   4.414  1.00  0.00     0.102 A 
HETATM   23  C   UNL     1      43.052 -17.620   3.070  1.00  0.00     0.101 A 
HETATM   24  C   UNL     1      42.108 -16.958   2.278  1.00  0.00     0.040 A 
HETATM   25  C   UNL     1      41.350 -15.911   2.807  1.00  0.00     0.010 A 
BRANCH  22  26
HETATM   26  O   UNL     1      44.162 -17.939   5.128  1.00  0.00    -0.353 OA
HETATM   27  C   UNL     1      43.706 -18.998   5.956  1.00  0.00     0.210 C 
ENDBRANCH  22  26
BRANCH  23  28
HETATM   28  O   UNL     1      43.840 -18.656   2.632  1.00  0.00    -0.353 OA
HETATM   29  C   UNL     1      43.187 -19.804   2.112  1.00  0.00     0.210 C 
ENDBRANCH  23  28
ENDBRANCH  19  20
ENDBRANCH  18  19
ENDBRANCH  15  18
ENDBRANCH  13  14
ENDBRANCH  12  13
ENDBRANCH   2  12
BRANCH   1  30
HETATM   30  C   UNL     1      43.453  -9.853   8.975  1.00  0.00     0.043 A 
HETATM   31  C   UNL     1      44.587  -9.030   8.968  1.00  0.00     0.032 A 
HETATM   32  C   UNL     1      45.734  -9.414   8.270  1.00  0.00     0.026 A 
HETATM   33  C   UNL     1      45.759 -10.615   7.558  1.00  0.00     0.040 A 
HETATM   34  C   UNL     1      44.635 -11.455   7.540  1.00  0.00    -0.038 A 
HETATM   35 CL   UNL     1      47.198 -11.014   6.692  1.00  0.00    -0.084 Cl
HETATM   36  C   UNL     1      44.626 -12.749   6.774  1.00  0.00     0.050 C 
HETATM   37  C   UNL     1      43.492 -11.064   8.258  1.00  0.00     0.038 A 
ENDBRANCH   1  30
BRANCH   6  38
HETATM   38  N   UNL     1      43.076  -9.941  11.848  1.00  0.00    -0.384 N 
HETATM   39  H   UNL     1      42.876 -10.602  12.583  1.00  0.00     0.157 HD
HETATM   40  H   UNL     1      44.041  -9.675  11.698  1.00  0.00     0.157 HD
ENDBRANCH   6  38
TORSDOF 10
ENDMDL
MODEL 10
REMARK VINA RESULT:      -7.3     16.630     18.922
REMARK  10 active torsions:
REMARK  status: ('A' for Active; 'I' for Inactive)
REMARK    1  A    between atoms: C_7  and  N_8 
REMARK    2  A    between atoms: C_9  and  S_10 
REMARK    3  A    between atoms: S_10  and  C_11 
REMARK    4  A    between atoms: C_11  and  C_12 
REMARK       I    between atoms: C_12  and  N_13 
REMARK    5  A    between atoms: N_13  and  C_14 
REMARK    6  A    between atoms: C_14  and  C_15 
REMARK    7  A    between atoms: C_15  and  C_16 
REMARK    8  A    between atoms: C_18  and  O_19 
REMARK    9  A    between atoms: C_21  and  O_22 
REMARK   10  A    between atoms: C_30  and  N_31 
ROOT
HETATM    1  N   UNL     1      46.516 -30.056   2.275  1.00  0.00    -0.276 N 
HETATM    2  C   UNL     1      46.550 -29.546   0.947  1.00  0.00     0.177 A 
HETATM    3  N   UNL     1      45.505 -29.220   0.224  1.00  0.00    -0.204 NA
HETATM    4  C   UNL     1      44.325 -29.377   0.862  1.00  0.00     0.162 A 
HETATM    5  C   UNL     1      44.077 -29.834   2.126  1.00  0.00     0.081 A 
HETATM    6  C   UNL     1      45.210 -30.240   2.903  1.00  0.00     0.124 A 
HETATM    7  N   UNL     1      43.102 -29.064   0.345  1.00  0.00    -0.260 N 
HETATM    8  H   UNL     1      42.891 -28.688  -0.572  1.00  0.00     0.191 HD
HETATM    9  N   UNL     1      42.090 -29.291   1.211  1.00  0.00    -0.177 NA
HETATM   10  C   UNL     1      42.690 -29.756   2.320  1.00  0.00     0.068 A 
HETATM   11  C   UNL     1      41.868 -30.084   3.508  1.00  0.00     0.073 C 
ENDROOT
BRANCH   2  12
HETATM   12  S   UNL     1      48.107 -29.237   0.150  1.00  0.00    -0.082 SA
BRANCH  12  13
HETATM   13  C   UNL     1      47.606 -27.957  -1.035  1.00  0.00     0.185 C 
BRANCH  13  14
HETATM   14  C   UNL     1      46.992 -28.549  -2.296  1.00  0.00     0.227 C 
HETATM   15  N   UNL     1      45.952 -27.784  -2.800  1.00  0.00    -0.360 N 
HETATM   16  H   UNL     1      45.561 -27.057  -2.215  1.00  0.00     0.162 HD
HETATM   17  O   UNL     1      47.334 -29.615  -2.798  1.00  0.00    -0.273 OA
BRANCH  15  18
HETATM   18  C   UNL     1      45.170 -28.237  -3.941  1.00  0.00     0.127 C 
BRANCH  18  19
HETATM   19  C   UNL     1      43.985 -29.094  -3.495  1.00  0.00     0.058 C 
BRANCH  19  20
HETATM   20  C   UNL     1      44.066 -30.514  -3.995  1.00  0.00    -0.054 A 
HETATM   21  C   UNL     1      43.947 -30.790  -5.365  1.00  0.00     0.046 A 
HETATM   22  C   UNL     1      44.005 -32.108  -5.839  1.00  0.00     0.102 A 
HETATM   23  C   UNL     1      44.191 -33.166  -4.928  1.00  0.00     0.101 A 
HETATM   24  C   UNL     1      44.331 -32.887  -3.565  1.00  0.00     0.040 A 
HETATM   25  C   UNL     1      44.270 -31.570  -3.103  1.00  0.00     0.010 A 
BRANCH  22  26
HETATM   26  O   UNL     1      43.885 -32.463  -7.159  1.00  0.00    -0.353 OA
HETATM   27  C   UNL     1      44.007 -31.438  -8.134  1.00  0.00     0.210 C 
ENDBRANCH  22  26
BRANCH  23  28
HETATM   28  O   UNL     1      44.236 -34.428  -5.468  1.00  0.00    -0.353 OA
HETATM   29  C   UNL     1      43.072 -35.234  -5.352  1.00  0.00     0.210 C 
ENDBRANCH  23  28
ENDBRANCH  19  20
ENDBRANCH  18  19
ENDBRANCH  15  18
ENDBRANCH  13  14
ENDBRANCH  12  13
ENDBRANCH   2  12
BRANCH   1  30
HETATM   30  C   UNL     1      47.705 -30.388   2.992  1.00  0.00     0.043 A 
HETATM   31  C   UNL     1      48.426 -29.414   3.696  1.00  0.00     0.032 A 
HETATM   32  C   UNL     1      49.634 -29.741   4.316  1.00  0.00     0.026 A 
HETATM   33  C   UNL     1      50.146 -31.037   4.228  1.00  0.00     0.040 A 
HETATM   34  C   UNL     1      49.450 -32.030   3.523  1.00  0.00    -0.038 A 
HETATM   35 CL   UNL     1      51.658 -31.364   4.992  1.00  0.00    -0.084 Cl
HETATM   36  C   UNL     1      49.978 -33.433   3.400  1.00  0.00     0.050 C 
HETATM   37  C   UNL     1      48.228 -31.692   2.915  1.00  0.00     0.038 A 
ENDBRANCH   1  30
BRANCH   6  38
HETATM   38  N   UNL     1      45.054 -30.788   4.093  1.00  0.00    -0.384 N 
HETATM   39  H   UNL     1      45.480 -30.398   4.920  1.00  0.00     0.157 HD
HETATM   40  H   UNL     1      44.461 -31.602   4.203  1.00  0.00     0.157 HD
ENDBRANCH   6  38
TORSDOF 10
ENDMDL
