MODEL 1
REMARK VINA RESULT:      -8.0      0.000      0.000
REMARK  5 active torsions:
REMARK  status: ('A' for Active; 'I' for Inactive)
REMARK    1  A    between atoms: C_2  and  C_3 
REMARK    2  A    between atoms: C_3  and  N_4 
REMARK       I    between atoms: N_4  and  C_5 
REMARK    3  A    between atoms: C_5  and  C_6 
REMARK    4  A    between atoms: C_10  and  N_11 
REMARK       I    between atoms: N_11  and  C_12 
REMARK       I    between atoms: C_12  and  N_13 
REMARK    5  A    between atoms: N_13  and  C_14 
ROOT
HETATM    1  C   UNL     1      42.398 -16.334   3.263  1.00  0.00     0.053 A 
HETATM    2  C   UNL     1      41.080 -16.103   3.675  1.00  0.00     0.051 A 
HETATM    3 CL   UNL     1      40.498 -16.479   5.262  1.00  0.00    -0.083 Cl
HETATM    4  C   UNL     1      40.163 -15.495   2.801  1.00  0.00     0.054 A 
HETATM    5  C   UNL     1      40.547 -15.111   1.514  1.00  0.00     0.038 A 
HETATM    6  C   UNL     1      41.864 -15.331   1.107  1.00  0.00     0.030 A 
HETATM    7  C   UNL     1      42.782 -15.933   1.973  1.00  0.00     0.021 A 
ENDROOT
BRANCH   5   8
HETATM    8  N   UNL     1      39.690 -14.461   0.603  1.00  0.00    -0.309 N 
HETATM    9  C   UNL     1      39.420 -13.120   0.525  1.00  0.00     0.325 C 
HETATM   10  N   UNL     1      38.712 -12.706  -0.572  1.00  0.00    -0.306 N 
HETATM   11  O   UNL     1      39.715 -12.285   1.376  1.00  0.00    -0.247 OA
HETATM   12  H   UNL     1      38.388 -11.750  -0.491  1.00  0.00     0.171 HD
HETATM   13  H   UNL     1      39.053 -15.049   0.086  1.00  0.00     0.170 HD
BRANCH  10  14
HETATM   14  C   UNL     1      38.525 -13.321  -1.794  1.00  0.00     0.072 A 
HETATM   15  C   UNL     1      39.371 -14.090  -2.625  1.00  0.00     0.169 A 
HETATM   16  N   UNL     1      38.760 -14.497  -3.742  1.00  0.00    -0.185 NA
HETATM   17  N   UNL     1      37.539 -13.948  -3.652  1.00  0.00    -0.287 N 
HETATM   18  H   UNL     1      36.883 -14.105  -4.412  1.00  0.00     0.188 HD
HETATM   19  C   UNL     1      37.353 -13.225  -2.509  1.00  0.00     0.140 A 
ENDBRANCH  10  14
ENDBRANCH   5   8
BRANCH   1  20
HETATM   20  C   UNL     1      43.468 -16.937   4.107  1.00  0.00     0.253 C 
HETATM   21  N   UNL     1      44.030 -18.117   3.676  1.00  0.00    -0.356 N 
HETATM   22  H   UNL     1      43.557 -18.615   2.931  1.00  0.00     0.162 HD
HETATM   23  O   UNL     1      43.829 -16.349   5.123  1.00  0.00    -0.268 OA
BRANCH  21  24
HETATM   24  C   UNL     1      44.924 -18.875   4.531  1.00  0.00     0.126 C 
BRANCH  24  25
HETATM   25  C   UNL     1      44.397 -20.281   4.849  1.00  0.00    -0.005 C 
HETATM   26  C   UNL     1      43.718 -20.932   3.643  1.00  0.00     0.011 C 
HETATM   27  C   UNL     1      43.412 -20.211   6.018  1.00  0.00     0.011 C 
ENDBRANCH  24  25
ENDBRANCH  21  24
ENDBRANCH   1  20
TORSDOF 5
ENDMDL
MODEL 2
REMARK VINA RESULT:      -7.6      6.048      8.435
REMARK  5 active torsions:
REMARK  status: ('A' for Active; 'I' for Inactive)
REMARK    1  A    between atoms: C_2  and  C_3 
REMARK    2  A    between atoms: C_3  and  N_4 
REMARK       I    between atoms: N_4  and  C_5 
REMARK    3  A    between atoms: C_5  and  C_6 
REMARK    4  A    between atoms: C_10  and  N_11 
REMARK       I    between atoms: N_11  and  C_12 
REMARK       I    between atoms: C_12  and  N_13 
REMARK    5  A    between atoms: N_13  and  C_14 
ROOT
HETATM    1  C   UNL     1      42.739 -15.112   4.777  1.00  0.00     0.053 A 
HETATM    2  C   UNL     1      42.719 -13.746   4.470  1.00  0.00     0.051 A 
HETATM    3 CL   UNL     1      42.243 -13.124   2.925  1.00  0.00    -0.083 Cl
HETATM    4  C   UNL     1      43.050 -12.796   5.451  1.00  0.00     0.054 A 
HETATM    5  C   UNL     1      43.402 -13.194   6.743  1.00  0.00     0.038 A 
HETATM    6  C   UNL     1      43.412 -14.556   7.053  1.00  0.00     0.030 A 
HETATM    7  C   UNL     1      43.081 -15.505   6.081  1.00  0.00     0.021 A 
ENDROOT
BRANCH   5   8
HETATM    8  N   UNL     1      43.705 -12.294   7.784  1.00  0.00    -0.309 N 
HETATM    9  C   UNL     1      44.587 -11.246   7.749  1.00  0.00     0.325 C 
HETATM   10  N   UNL     1      44.560 -10.393   8.821  1.00  0.00    -0.306 N 
HETATM   11  O   UNL     1      45.422 -11.048   6.870  1.00  0.00    -0.247 OA
HETATM   12  H   UNL     1      45.343  -9.751   8.831  1.00  0.00     0.171 HD
HETATM   13  H   UNL     1      43.403 -12.559   8.710  1.00  0.00     0.170 HD
BRANCH  10  14
HETATM   14  C   UNL     1      43.572 -10.178   9.761  1.00  0.00     0.072 A 
HETATM   15  C   UNL     1      42.376  -9.426   9.747  1.00  0.00     0.169 A 
HETATM   16  N   UNL     1      41.706  -9.504  10.900  1.00  0.00    -0.185 NA
HETATM   17  N   UNL     1      42.496 -10.267  11.672  1.00  0.00    -0.287 N 
HETATM   18  H   UNL     1      42.200 -10.457  12.625  1.00  0.00     0.188 HD
HETATM   19  C   UNL     1      43.630 -10.686  11.039  1.00  0.00     0.140 A 
ENDBRANCH  10  14
ENDBRANCH   5   8
BRANCH   1  20
HETATM   20  C   UNL     1      42.376 -16.208   3.836  1.00  0.00     0.253 C 
HETATM   21  N   UNL     1      43.386 -17.039   3.406  1.00  0.00    -0.356 N 
HETATM   22  H   UNL     1      44.339 -16.745   3.582  1.00  0.00     0.162 HD
HETATM   23  O   UNL     1      41.201 -16.352   3.512  1.00  0.00    -0.268 OA
BRANCH  21  24
HETATM   24  C   UNL     1      43.162 -17.996   2.338  1.00  0.00     0.126 C 
BRANCH  24  25
HETATM   25  C   UNL     1      43.954 -19.297   2.526  1.00  0.00    -0.005 C 
HETATM   26  C   UNL     1      43.327 -20.471   1.770  1.00  0.00     0.011 C 
HETATM   27  C   UNL     1      44.046 -19.635   4.015  1.00  0.00     0.011 C 
ENDBRANCH  24  25
ENDBRANCH  21  24
ENDBRANCH   1  20
TORSDOF 5
ENDMDL
MODEL 3
REMARK VINA RESULT:      -7.0      5.358      6.854
REMARK  5 active torsions:
REMARK  status: ('A' for Active; 'I' for Inactive)
REMARK    1  A    between atoms: C_2  and  C_3 
REMARK    2  A    between atoms: C_3  and  N_4 
REMARK       I    between atoms: N_4  and  C_5 
REMARK    3  A    between atoms: C_5  and  C_6 
REMARK    4  A    between atoms: C_10  and  N_11 
REMARK       I    between atoms: N_11  and  C_12 
REMARK       I    between atoms: C_12  and  N_13 
REMARK    5  A    between atoms: N_13  and  C_14 
ROOT
HETATM    1  C   UNL     1      43.065 -15.650   5.816  1.00  0.00     0.053 A 
HETATM    2  C   UNL     1      41.940 -15.070   5.218  1.00  0.00     0.051 A 
HETATM    3 CL   UNL     1      40.813 -15.958   4.247  1.00  0.00    -0.083 Cl
HETATM    4  C   UNL     1      41.648 -13.712   5.428  1.00  0.00     0.054 A 
HETATM    5  C   UNL     1      42.470 -12.920   6.233  1.00  0.00     0.038 A 
HETATM    6  C   UNL     1      43.586 -13.500   6.839  1.00  0.00     0.030 A 
HETATM    7  C   UNL     1      43.879 -14.852   6.636  1.00  0.00     0.021 A 
ENDROOT
BRANCH   5   8
HETATM    8  N   UNL     1      42.214 -11.564   6.519  1.00  0.00    -0.309 N 
HETATM    9  C   UNL     1      42.421 -10.486   5.699  1.00  0.00     0.325 C 
HETATM   10  N   UNL     1      41.907  -9.290   6.125  1.00  0.00    -0.306 N 
HETATM   11  O   UNL     1      43.069 -10.501   4.655  1.00  0.00    -0.247 OA
HETATM   12  H   UNL     1      42.240  -8.504   5.581  1.00  0.00     0.171 HD
HETATM   13  H   UNL     1      42.053 -11.331   7.488  1.00  0.00     0.170 HD
BRANCH  10  14
HETATM   14  C   UNL     1      40.910  -9.028   7.045  1.00  0.00     0.072 A 
HETATM   15  C   UNL     1      39.500  -9.051   6.970  1.00  0.00     0.169 A 
HETATM   16  N   UNL     1      38.919  -8.724   8.128  1.00  0.00    -0.185 NA
HETATM   17  N   UNL     1      39.956  -8.442   8.932  1.00  0.00    -0.287 N 
HETATM   18  H   UNL     1      39.760  -8.144   9.883  1.00  0.00     0.188 HD
HETATM   19  C   UNL     1      41.169  -8.599   8.327  1.00  0.00     0.140 A 
ENDBRANCH  10  14
ENDBRANCH   5   8
BRANCH   1  20
HETATM   20  C   UNL     1      43.459 -17.082   5.697  1.00  0.00     0.253 C 
HETATM   21  N   UNL     1      44.133 -17.465   4.559  1.00  0.00    -0.356 N 
HETATM   22  H   UNL     1      44.147 -16.814   3.783  1.00  0.00     0.162 HD
HETATM   23  O   UNL     1      43.202 -17.850   6.620  1.00  0.00    -0.268 OA
BRANCH  21  24
HETATM   24  C   UNL     1      44.370 -18.867   4.268  1.00  0.00     0.126 C 
BRANCH  24  25
HETATM   25  C   UNL     1      44.071 -19.232   2.808  1.00  0.00    -0.005 C 
HETATM   26  C   UNL     1      42.959 -18.368   2.211  1.00  0.00     0.011 C 
HETATM   27  C   UNL     1      43.683 -20.709   2.715  1.00  0.00     0.011 C 
ENDBRANCH  24  25
ENDBRANCH  21  24
ENDBRANCH   1  20
TORSDOF 5
ENDMDL
MODEL 4
REMARK VINA RESULT:      -7.0     13.500     15.726
REMARK  5 active torsions:
REMARK  status: ('A' for Active; 'I' for Inactive)
REMARK    1  A    between atoms: C_2  and  C_3 
REMARK    2  A    between atoms: C_3  and  N_4 
REMARK       I    between atoms: N_4  and  C_5 
REMARK    3  A    between atoms: C_5  and  C_6 
REMARK    4  A    between atoms: C_10  and  N_11 
REMARK       I    between atoms: N_11  and  C_12 
REMARK       I    between atoms: C_12  and  N_13 
REMARK    5  A    between atoms: N_13  and  C_14 
ROOT
HETATM    1  C   UNL     1      42.240  -8.943  11.676  1.00  0.00     0.053 A 
HETATM    2  C   UNL     1      41.099  -9.283  12.413  1.00  0.00     0.051 A 
HETATM    3 CL   UNL     1      39.809 -10.248  11.778  1.00  0.00    -0.083 Cl
HETATM    4  C   UNL     1      40.977  -8.880  13.753  1.00  0.00     0.054 A 
HETATM    5  C   UNL     1      41.985  -8.137  14.372  1.00  0.00     0.038 A 
HETATM    6  C   UNL     1      43.128  -7.808  13.641  1.00  0.00     0.030 A 
HETATM    7  C   UNL     1      43.257  -8.209  12.308  1.00  0.00     0.021 A 
ENDROOT
BRANCH   5   8
HETATM    8  N   UNL     1      41.945  -7.736  15.722  1.00  0.00    -0.309 N 
HETATM    9  C   UNL     1      41.482  -6.549  16.226  1.00  0.00     0.325 C 
HETATM   10  N   UNL     1      41.360  -6.473  17.588  1.00  0.00    -0.306 N 
HETATM   11  O   UNL     1      41.222  -5.549  15.562  1.00  0.00    -0.247 OA
HETATM   12  H   UNL     1      41.190  -5.529  17.914  1.00  0.00     0.171 HD
HETATM   13  H   UNL     1      42.493  -8.283  16.370  1.00  0.00     0.170 HD
BRANCH  10  14
HETATM   14  C   UNL     1      41.273  -7.478  18.531  1.00  0.00     0.072 A 
HETATM   15  C   UNL     1      42.208  -8.041  19.428  1.00  0.00     0.169 A 
HETATM   16  N   UNL     1      41.679  -9.013  20.177  1.00  0.00    -0.185 NA
HETATM   17  N   UNL     1      40.418  -9.107  19.728  1.00  0.00    -0.287 N 
HETATM   18  H   UNL     1      39.810  -9.807  20.143  1.00  0.00     0.188 HD
HETATM   19  C   UNL     1      40.129  -8.217  18.734  1.00  0.00     0.140 A 
ENDBRANCH  10  14
ENDBRANCH   5   8
BRANCH   1  20
HETATM   20  C   UNL     1      42.501  -9.341  10.264  1.00  0.00     0.253 C 
HETATM   21  N   UNL     1      43.400 -10.361  10.045  1.00  0.00    -0.356 N 
HETATM   22  H   UNL     1      43.982 -10.644  10.823  1.00  0.00     0.162 HD
HETATM   23  O   UNL     1      41.887  -8.777   9.362  1.00  0.00    -0.268 OA
BRANCH  21  24
HETATM   24  C   UNL     1      43.866 -10.670   8.706  1.00  0.00     0.126 C 
BRANCH  24  25
HETATM   25  C   UNL     1      45.354 -10.356   8.504  1.00  0.00    -0.005 C 
HETATM   26  C   UNL     1      45.624  -8.851   8.435  1.00  0.00     0.011 C 
HETATM   27  C   UNL     1      45.854 -11.027   7.224  1.00  0.00     0.011 C 
ENDBRANCH  24  25
ENDBRANCH  21  24
ENDBRANCH   1  20
TORSDOF 5
ENDMDL
MODEL 5
REMARK VINA RESULT:      -6.9      2.563      3.235
REMARK  5 active torsions:
REMARK  status: ('A' for Active; 'I' for Inactive)
REMARK    1  A    between atoms: C_2  and  C_3 
REMARK    2  A    between atoms: C_3  and  N_4 
REMARK       I    between atoms: N_4  and  C_5 
REMARK    3  A    between atoms: C_5  and  C_6 
REMARK    4  A    between atoms: C_10  and  N_11 
REMARK       I    between atoms: N_11  and  C_12 
REMARK       I    between atoms: C_12  and  N_13 
REMARK    5  A    between atoms: N_13  and  C_14 
ROOT
HETATM    1  C   UNL     1      41.043 -15.433   3.441  1.00  0.00     0.053 A 
HETATM    2  C   UNL     1      41.891 -15.920   2.439  1.00  0.00     0.051 A 
HETATM    3 CL   UNL     1      43.087 -17.142   2.714  1.00  0.00    -0.083 Cl
HETATM    4  C   UNL     1      41.766 -15.453   1.120  1.00  0.00     0.054 A 
HETATM    5  C   UNL     1      40.801 -14.501   0.785  1.00  0.00     0.038 A 
HETATM    6  C   UNL     1      39.947 -14.023   1.782  1.00  0.00     0.030 A 
HETATM    7  C   UNL     1      40.065 -14.486   3.096  1.00  0.00     0.021 A 
ENDROOT
BRANCH   5   8
HETATM    8  N   UNL     1      40.595 -14.021  -0.524  1.00  0.00    -0.309 N 
HETATM    9  C   UNL     1      39.702 -14.487  -1.452  1.00  0.00     0.325 C 
HETATM   10  N   UNL     1      39.548 -13.728  -2.582  1.00  0.00    -0.306 N 
HETATM   11  O   UNL     1      39.079 -15.543  -1.371  1.00  0.00    -0.247 OA
HETATM   12  H   UNL     1      39.021 -14.204  -3.304  1.00  0.00     0.171 HD
HETATM   13  H   UNL     1      41.307 -13.409  -0.895  1.00  0.00     0.170 HD
BRANCH  10  14
HETATM   14  C   UNL     1      39.851 -12.400  -2.809  1.00  0.00     0.072 A 
HETATM   15  C   UNL     1      41.056 -11.724  -3.104  1.00  0.00     0.169 A 
HETATM   16  N   UNL     1      40.882 -10.407  -3.253  1.00  0.00    -0.185 NA
HETATM   17  N   UNL     1      39.574 -10.232  -3.006  1.00  0.00    -0.287 N 
HETATM   18  H   UNL     1      39.200  -9.288  -3.042  1.00  0.00     0.188 HD
HETATM   19  C   UNL     1      38.916 -11.394  -2.725  1.00  0.00     0.140 A 
ENDBRANCH  10  14
ENDBRANCH   5   8
BRANCH   1  20
HETATM   20  C   UNL     1      41.054 -15.874   4.864  1.00  0.00     0.253 C 
HETATM   21  N   UNL     1      42.104 -15.458   5.652  1.00  0.00    -0.356 N 
HETATM   22  H   UNL     1      42.907 -15.053   5.185  1.00  0.00     0.162 HD
HETATM   23  O   UNL     1      40.123 -16.553   5.286  1.00  0.00    -0.268 OA
BRANCH  21  24
HETATM   24  C   UNL     1      42.303 -16.005   6.981  1.00  0.00     0.126 C 
BRANCH  24  25
HETATM   25  C   UNL     1      43.555 -16.886   7.084  1.00  0.00    -0.005 C 
HETATM   26  C   UNL     1      44.762 -16.261   6.381  1.00  0.00     0.011 C 
HETATM   27  C   UNL     1      43.267 -18.264   6.484  1.00  0.00     0.011 C 
ENDBRANCH  24  25
ENDBRANCH  21  24
ENDBRANCH   1  20
TORSDOF 5
ENDMDL
MODEL 6
REMARK VINA RESULT:      -6.9      2.447      3.052
REMARK  5 active torsions:
REMARK  status: ('A' for Active; 'I' for Inactive)
REMARK    1  A    between atoms: C_2  and  C_3 
REMARK    2  A    between atoms: C_3  and  N_4 
REMARK       I    between atoms: N_4  and  C_5 
REMARK    3  A    between atoms: C_5  and  C_6 
REMARK    4  A    between atoms: C_10  and  N_11 
REMARK       I    between atoms: N_11  and  C_12 
REMARK       I    between atoms: C_12  and  N_13 
REMARK    5  A    between atoms: N_13  and  C_14 
ROOT
HETATM    1  C   UNL     1      41.332 -15.148   2.162  1.00  0.00     0.053 A 
HETATM    2  C   UNL     1      41.900 -13.890   1.931  1.00  0.00     0.051 A 
HETATM    3 CL   UNL     1      43.206 -13.248   2.870  1.00  0.00    -0.083 Cl
HETATM    4  C   UNL     1      41.447 -13.095   0.865  1.00  0.00     0.054 A 
HETATM    5  C   UNL     1      40.429 -13.542   0.020  1.00  0.00     0.038 A 
HETATM    6  C   UNL     1      39.870 -14.802   0.242  1.00  0.00     0.030 A 
HETATM    7  C   UNL     1      40.318 -15.599   1.301  1.00  0.00     0.021 A 
ENDROOT
BRANCH   5   8
HETATM    8  N   UNL     1      39.957 -12.814  -1.091  1.00  0.00    -0.309 N 
HETATM    9  C   UNL     1      39.971 -13.198  -2.406  1.00  0.00     0.325 C 
HETATM   10  N   UNL     1      39.273 -12.405  -3.277  1.00  0.00    -0.306 N 
HETATM   11  O   UNL     1      40.595 -14.153  -2.861  1.00  0.00    -0.247 OA
HETATM   12  H   UNL     1      39.463 -12.627  -4.247  1.00  0.00     0.171 HD
HETATM   13  H   UNL     1      39.776 -11.832  -0.941  1.00  0.00     0.170 HD
BRANCH  10  14
HETATM   14  C   UNL     1      38.262 -11.496  -3.038  1.00  0.00     0.072 A 
HETATM   15  C   UNL     1      36.912 -11.636  -2.646  1.00  0.00     0.169 A 
HETATM   16  N   UNL     1      36.287 -10.461  -2.527  1.00  0.00    -0.185 NA
HETATM   17  N   UNL     1      37.221  -9.569  -2.890  1.00  0.00    -0.287 N 
HETATM   18  H   UNL     1      36.970  -8.585  -2.897  1.00  0.00     0.188 HD
HETATM   19  C   UNL     1      38.417 -10.139  -3.215  1.00  0.00     0.140 A 
ENDBRANCH  10  14
ENDBRANCH   5   8
BRANCH   1  20
HETATM   20  C   UNL     1      41.748 -16.095   3.234  1.00  0.00     0.253 C 
HETATM   21  N   UNL     1      43.012 -16.635   3.152  1.00  0.00    -0.356 N 
HETATM   22  H   UNL     1      43.510 -16.526   2.277  1.00  0.00     0.162 HD
HETATM   23  O   UNL     1      40.974 -16.328   4.158  1.00  0.00    -0.268 OA
BRANCH  21  24
HETATM   24  C   UNL     1      43.422 -17.714   4.031  1.00  0.00     0.126 C 
BRANCH  24  25
HETATM   25  C   UNL     1      43.985 -18.922   3.271  1.00  0.00    -0.005 C 
HETATM   26  C   UNL     1      43.097 -19.332   2.094  1.00  0.00     0.011 C 
HETATM   27  C   UNL     1      44.149 -20.104   4.228  1.00  0.00     0.011 C 
ENDBRANCH  24  25
ENDBRANCH  21  24
ENDBRANCH   1  20
TORSDOF 5
ENDMDL
MODEL 7
REMARK VINA RESULT:      -6.6      5.825      7.521
REMARK  5 active torsions:
REMARK  status: ('A' for Active; 'I' for Inactive)
REMARK    1  A    between atoms: C_2  and  C_3 
REMARK    2  A    between atoms: C_3  and  N_4 
REMARK       I    between atoms: N_4  and  C_5 
REMARK    3  A    between atoms: C_5  and  C_6 
REMARK    4  A    between atoms: C_10  and  N_11 
REMARK       I    between atoms: N_11  and  C_12 
REMARK       I    between atoms: C_12  and  N_13 
REMARK    5  A    between atoms: N_13  and  C_14 
ROOT
HETATM    1  C   UNL     1      40.920 -14.628   4.124  1.00  0.00     0.053 A 
HETATM    2  C   UNL     1      40.535 -14.798   5.460  1.00  0.00     0.051 A 
HETATM    3 CL   UNL     1      40.323 -16.350   6.199  1.00  0.00    -0.083 Cl
HETATM    4  C   UNL     1      40.348 -13.681   6.289  1.00  0.00     0.054 A 
HETATM    5  C   UNL     1      40.540 -12.386   5.801  1.00  0.00     0.038 A 
HETATM    6  C   UNL     1      40.934 -12.216   4.472  1.00  0.00     0.030 A 
HETATM    7  C   UNL     1      41.125 -13.325   3.643  1.00  0.00     0.021 A 
ENDROOT
BRANCH   5   8
HETATM    8  N   UNL     1      40.408 -11.224   6.588  1.00  0.00    -0.309 N 
HETATM    9  C   UNL     1      39.255 -10.691   7.100  1.00  0.00     0.325 C 
HETATM   10  N   UNL     1      39.406  -9.671   8.001  1.00  0.00    -0.306 N 
HETATM   11  O   UNL     1      38.116 -11.018   6.777  1.00  0.00    -0.247 OA
HETATM   12  H   UNL     1      38.534  -9.198   8.208  1.00  0.00     0.171 HD
HETATM   13  H   UNL     1      41.206 -10.606   6.614  1.00  0.00     0.170 HD
BRANCH  10  14
HETATM   14  C   UNL     1      40.499  -9.313   8.766  1.00  0.00     0.072 A 
HETATM   15  C   UNL     1      40.780  -9.406  10.148  1.00  0.00     0.169 A 
HETATM   16  N   UNL     1      41.989  -8.931  10.458  1.00  0.00    -0.185 NA
HETATM   17  N   UNL     1      42.465  -8.488   9.284  1.00  0.00    -0.287 N 
HETATM   18  H   UNL     1      43.385  -8.057   9.269  1.00  0.00     0.188 HD
HETATM   19  C   UNL     1      41.606  -8.685   8.243  1.00  0.00     0.140 A 
ENDBRANCH  10  14
ENDBRANCH   5   8
BRANCH   1  20
HETATM   20  C   UNL     1      41.183 -15.732   3.159  1.00  0.00     0.253 C 
HETATM   21  N   UNL     1      42.382 -16.400   3.267  1.00  0.00    -0.356 N 
HETATM   22  H   UNL     1      43.098 -15.983   3.850  1.00  0.00     0.162 HD
HETATM   23  O   UNL     1      40.320 -16.025   2.337  1.00  0.00    -0.268 OA
BRANCH  21  24
HETATM   24  C   UNL     1      42.807 -17.342   2.248  1.00  0.00     0.126 C 
BRANCH  24  25
HETATM   25  C   UNL     1      43.802 -18.384   2.775  1.00  0.00    -0.005 C 
HETATM   26  C   UNL     1      43.457 -19.801   2.313  1.00  0.00     0.011 C 
HETATM   27  C   UNL     1      43.840 -18.335   4.303  1.00  0.00     0.011 C 
ENDBRANCH  24  25
ENDBRANCH  21  24
ENDBRANCH   1  20
TORSDOF 5
ENDMDL
MODEL 8
REMARK VINA RESULT:      -6.4      2.346      2.827
REMARK  5 active torsions:
REMARK  status: ('A' for Active; 'I' for Inactive)
REMARK    1  A    between atoms: C_2  and  C_3 
REMARK    2  A    between atoms: C_3  and  N_4 
REMARK       I    between atoms: N_4  and  C_5 
REMARK    3  A    between atoms: C_5  and  C_6 
REMARK    4  A    between atoms: C_10  and  N_11 
REMARK       I    between atoms: N_11  and  C_12 
REMARK       I    between atoms: C_12  and  N_13 
REMARK    5  A    between atoms: N_13  and  C_14 
ROOT
HETATM    1  C   UNL     1      40.981 -15.421   3.360  1.00  0.00     0.053 A 
HETATM    2  C   UNL     1      40.375 -14.160   3.321  1.00  0.00     0.051 A 
HETATM    3 CL   UNL     1      39.905 -13.285   4.740  1.00  0.00    -0.083 Cl
HETATM    4  C   UNL     1      40.163 -13.516   2.091  1.00  0.00     0.054 A 
HETATM    5  C   UNL     1      40.550 -14.117   0.891  1.00  0.00     0.038 A 
HETATM    6  C   UNL     1      41.165 -15.371   0.930  1.00  0.00     0.030 A 
HETATM    7  C   UNL     1      41.381 -16.015   2.152  1.00  0.00     0.021 A 
ENDROOT
BRANCH   5   8
HETATM    8  N   UNL     1      40.404 -13.510  -0.372  1.00  0.00    -0.309 N 
HETATM    9  C   UNL     1      39.603 -13.919  -1.405  1.00  0.00     0.325 C 
HETATM   10  N   UNL     1      39.479 -13.052  -2.458  1.00  0.00    -0.306 N 
HETATM   11  O   UNL     1      39.039 -15.008  -1.480  1.00  0.00    -0.247 OA
HETATM   12  H   UNL     1      39.030 -13.473  -3.262  1.00  0.00     0.171 HD
HETATM   13  H   UNL     1      41.102 -12.826  -0.625  1.00  0.00     0.170 HD
BRANCH  10  14
HETATM   14  C   UNL     1      39.718 -11.693  -2.524  1.00  0.00     0.072 A 
HETATM   15  C   UNL     1      38.959 -10.562  -2.147  1.00  0.00     0.169 A 
HETATM   16  N   UNL     1      39.593  -9.413  -2.395  1.00  0.00    -0.185 NA
HETATM   17  N   UNL     1      40.739  -9.803  -2.975  1.00  0.00    -0.287 N 
HETATM   18  H   UNL     1      41.394  -9.088  -3.276  1.00  0.00     0.188 HD
HETATM   19  C   UNL     1      40.855 -11.158  -3.085  1.00  0.00     0.140 A 
ENDBRANCH  10  14
ENDBRANCH   5   8
BRANCH   1  20
HETATM   20  C   UNL     1      41.291 -16.187   4.600  1.00  0.00     0.253 C 
HETATM   21  N   UNL     1      42.599 -16.564   4.807  1.00  0.00    -0.356 N 
HETATM   22  H   UNL     1      43.237 -16.484   4.024  1.00  0.00     0.162 HD
HETATM   23  O   UNL     1      40.388 -16.421   5.399  1.00  0.00    -0.268 OA
BRANCH  21  24
HETATM   24  C   UNL     1      42.953 -17.482   5.873  1.00  0.00     0.126 C 
BRANCH  24  25
HETATM   25  C   UNL     1      43.965 -18.548   5.432  1.00  0.00    -0.005 C 
HETATM   26  C   UNL     1      44.053 -18.669   3.910  1.00  0.00     0.011 C 
HETATM   27  C   UNL     1      43.586 -19.901   6.036  1.00  0.00     0.011 C 
ENDBRANCH  24  25
ENDBRANCH  21  24
ENDBRANCH   1  20
TORSDOF 5
ENDMDL
MODEL 9
REMARK VINA RESULT:      -6.4      7.949     10.235
REMARK  5 active torsions:
REMARK  status: ('A' for Active; 'I' for Inactive)
REMARK    1  A    between atoms: C_2  and  C_3 
REMARK    2  A    between atoms: C_3  and  N_4 
REMARK       I    between atoms: N_4  and  C_5 
REMARK    3  A    between atoms: C_5  and  C_6 
REMARK    4  A    between atoms: C_10  and  N_11 
REMARK       I    between atoms: N_11  and  C_12 
REMARK       I    between atoms: C_12  and  N_13 
REMARK    5  A    between atoms: N_13  and  C_14 
ROOT
HETATM    1  C   UNL     1      43.384 -11.681   5.273  1.00  0.00     0.053 A 
HETATM    2  C   UNL     1      42.664 -10.546   5.665  1.00  0.00     0.051 A 
HETATM    3 CL   UNL     1      41.615  -9.671   4.602  1.00  0.00    -0.083 Cl
HETATM    4  C   UNL     1      42.733 -10.089   6.991  1.00  0.00     0.054 A 
HETATM    5  C   UNL     1      43.516 -10.754   7.939  1.00  0.00     0.038 A 
HETATM    6  C   UNL     1      44.225 -11.892   7.551  1.00  0.00     0.030 A 
HETATM    7  C   UNL     1      44.158 -12.354   6.233  1.00  0.00     0.021 A 
ENDROOT
BRANCH   5   8
HETATM    8  N   UNL     1      43.597 -10.373   9.293  1.00  0.00    -0.309 N 
HETATM    9  C   UNL     1      44.521  -9.543   9.871  1.00  0.00     0.325 C 
HETATM   10  N   UNL     1      44.273  -9.165  11.164  1.00  0.00    -0.306 N 
HETATM   11  O   UNL     1      45.563  -9.163   9.344  1.00  0.00    -0.247 OA
HETATM   12  H   UNL     1      45.066  -8.707  11.597  1.00  0.00     0.171 HD
HETATM   13  H   UNL     1      43.052 -10.916   9.947  1.00  0.00     0.170 HD
BRANCH  10  14
HETATM   14  C   UNL     1      43.092  -9.167  11.880  1.00  0.00     0.072 A 
HETATM   15  C   UNL     1      42.458 -10.135  12.690  1.00  0.00     0.169 A 
HETATM   16  N   UNL     1      41.304  -9.699  13.203  1.00  0.00    -0.185 NA
HETATM   17  N   UNL     1      41.172  -8.468  12.683  1.00  0.00    -0.287 N 
HETATM   18  H   UNL     1      40.343  -7.932  12.919  1.00  0.00     0.188 HD
HETATM   19  C   UNL     1      42.212  -8.108  11.876  1.00  0.00     0.140 A 
ENDBRANCH  10  14
ENDBRANCH   5   8
BRANCH   1  20
HETATM   20  C   UNL     1      43.365 -12.282   3.910  1.00  0.00     0.253 C 
HETATM   21  N   UNL     1      42.809 -13.535   3.773  1.00  0.00    -0.356 N 
HETATM   22  H   UNL     1      42.631 -14.061   4.620  1.00  0.00     0.162 HD
HETATM   23  O   UNL     1      43.808 -11.634   2.966  1.00  0.00    -0.268 OA
BRANCH  21  24
HETATM   24  C   UNL     1      42.934 -14.276   2.532  1.00  0.00     0.126 C 
BRANCH  24  25
HETATM   25  C   UNL     1      42.382 -15.704   2.631  1.00  0.00    -0.005 C 
HETATM   26  C   UNL     1      43.263 -16.718   1.898  1.00  0.00     0.011 C 
HETATM   27  C   UNL     1      40.962 -15.750   2.064  1.00  0.00     0.011 C 
ENDBRANCH  24  25
ENDBRANCH  21  24
ENDBRANCH   1  20
TORSDOF 5
ENDMDL
MODEL 10
REMARK VINA RESULT:      -6.4     13.734     15.263
REMARK  5 active torsions:
REMARK  status: ('A' for Active; 'I' for Inactive)
REMARK    1  A    between atoms: C_2  and  C_3 
REMARK    2  A    between atoms: C_3  and  N_4 
REMARK       I    between atoms: N_4  and  C_5 
REMARK    3  A    between atoms: C_5  and  C_6 
REMARK    4  A    between atoms: C_10  and  N_11 
REMARK       I    between atoms: N_11  and  C_12 
REMARK       I    between atoms: C_12  and  N_13 
REMARK    5  A    between atoms: N_13  and  C_14 
ROOT
HETATM    1  C   UNL     1      41.672  -7.100  14.991  1.00  0.00     0.053 A 
HETATM    2  C   UNL     1      41.934  -6.316  13.861  1.00  0.00     0.051 A 
HETATM    3 CL   UNL     1      41.838  -4.587  13.858  1.00  0.00    -0.083 Cl
HETATM    4  C   UNL     1      42.344  -6.921  12.661  1.00  0.00     0.054 A 
HETATM    5  C   UNL     1      42.497  -8.307  12.574  1.00  0.00     0.038 A 
HETATM    6  C   UNL     1      42.247  -9.088  13.704  1.00  0.00     0.030 A 
HETATM    7  C   UNL     1      41.841  -8.491  14.902  1.00  0.00     0.021 A 
ENDROOT
BRANCH   5   8
HETATM    8  N   UNL     1      42.942  -8.974  11.415  1.00  0.00    -0.309 N 
HETATM    9  C   UNL     1      42.176  -9.500  10.409  1.00  0.00     0.325 C 
HETATM   10  N   UNL     1      42.845  -9.921   9.291  1.00  0.00    -0.306 N 
HETATM   11  O   UNL     1      40.959  -9.667  10.456  1.00  0.00    -0.247 OA
HETATM   12  H   UNL     1      42.261 -10.460   8.664  1.00  0.00     0.171 HD
HETATM   13  H   UNL     1      43.905  -9.280  11.415  1.00  0.00     0.170 HD
BRANCH  10  14
HETATM   14  C   UNL     1      44.106  -9.592   8.833  1.00  0.00     0.072 A 
HETATM   15  C   UNL     1      44.726  -8.361   8.521  1.00  0.00     0.169 A 
HETATM   16  N   UNL     1      45.987  -8.513   8.105  1.00  0.00    -0.185 NA
HETATM   17  N   UNL     1      46.159  -9.845   8.101  1.00  0.00    -0.287 N 
HETATM   18  H   UNL     1      47.056 -10.213   7.797  1.00  0.00     0.188 HD
HETATM   19  C   UNL     1      45.058 -10.534   8.519  1.00  0.00     0.140 A 
ENDBRANCH  10  14
ENDBRANCH   5   8
BRANCH   1  20
HETATM   20  C   UNL     1      41.268  -6.574  16.325  1.00  0.00     0.253 C 
HETATM   21  N   UNL     1      42.256  -6.059  17.134  1.00  0.00    -0.356 N 
HETATM   22  H   UNL     1      43.217  -6.248  16.874  1.00  0.00     0.162 HD
HETATM   23  O   UNL     1      40.080  -6.586  16.637  1.00  0.00    -0.268 OA
BRANCH  21  24
HETATM   24  C   UNL     1      41.986  -5.719  18.519  1.00  0.00     0.126 C 
BRANCH  24  25
HETATM   25  C   UNL     1      42.002  -6.940  19.448  1.00  0.00    -0.005 C 
HETATM   26  C   UNL     1      40.849  -6.919  20.453  1.00  0.00     0.011 C 
HETATM   27  C   UNL     1      43.335  -7.003  20.195  1.00  0.00     0.011 C 
ENDBRANCH  24  25
ENDBRANCH  21  24
ENDBRANCH   1  20
TORSDOF 5
ENDMDL
