MODEL 1
REMARK VINA RESULT:      -7.6      0.000      0.000
REMARK  4 active torsions:
REMARK  status: ('A' for Active; 'I' for Inactive)
REMARK    1  A    between atoms: C_2  and  O_3 
REMARK    2  A    between atoms: C_2  and  C_12 
REMARK    3  A    between atoms: O_3  and  C_4 
REMARK       I    between atoms: C_12  and  N_13 
REMARK    4  A    between atoms: N_13  and  C_14 
ROOT
HETATM    1  C   UNL     1      40.735 -15.937   5.016  1.00  0.00     0.050 C 
HETATM    2  C   UNL     1      41.131 -16.141   3.554  1.00  0.00     0.217 C 
ENDROOT
BRANCH   2   3
HETATM    3  O   UNL     1      42.564 -16.191   3.397  1.00  0.00    -0.336 OA
BRANCH   3   4
HETATM    4  C   UNL     1      43.057 -17.469   3.365  1.00  0.00     0.087 A 
HETATM    5  C   UNL     1      43.795 -18.026   4.417  1.00  0.00     0.047 A 
HETATM    6 BR   UNL     1      44.167 -17.056   6.004  1.00  0.00    -0.048 Br
HETATM    7  C   UNL     1      44.238 -19.347   4.332  1.00  0.00     0.064 A 
HETATM    8  C   UNL     1      43.911 -20.106   3.213  1.00  0.00     0.117 A 
HETATM    9  F   UNL     1      44.332 -21.375   3.133  1.00  0.00    -0.206 F 
HETATM   10  C   UNL     1      43.139 -19.578   2.185  1.00  0.00     0.045 A 
HETATM   11  C   UNL     1      42.700 -18.258   2.266  1.00  0.00     0.041 A 
ENDBRANCH   3   4
ENDBRANCH   2   3
BRANCH   2  12
HETATM   12  C   UNL     1      40.604 -14.972   2.692  1.00  0.00     0.252 C 
HETATM   13  N   UNL     1      40.893 -15.151   1.350  1.00  0.00    -0.309 N 
HETATM   14  H   UNL     1      41.447 -15.964   1.115  1.00  0.00     0.170 HD
HETATM   15  O   UNL     1      39.956 -14.056   3.186  1.00  0.00    -0.270 OA
BRANCH  13  16
HETATM   16  C   UNL     1      40.583 -14.256   0.320  1.00  0.00     0.129 A 
HETATM   17  N   UNL     1      41.141 -13.033   0.278  1.00  0.00    -0.242 NA
HETATM   18  C   UNL     1      40.822 -12.222  -0.759  1.00  0.00     0.142 A 
HETATM   19  C   UNL     1      39.951 -12.579  -1.772  1.00  0.00     0.051 A 
HETATM   20 CL   UNL     1      39.595 -11.502  -3.058  1.00  0.00    -0.083 Cl
HETATM   21  C   UNL     1      39.373 -13.839  -1.720  1.00  0.00     0.029 A 
HETATM   22  C   UNL     1      39.694 -14.691  -0.660  1.00  0.00     0.052 A 
ENDBRANCH  13  16
ENDBRANCH   2  12
TORSDOF 4
ENDMDL
MODEL 2
REMARK VINA RESULT:      -7.4      5.001      6.114
REMARK  4 active torsions:
REMARK  status: ('A' for Active; 'I' for Inactive)
REMARK    1  A    between atoms: C_2  and  O_3 
REMARK    2  A    between atoms: C_2  and  C_12 
REMARK    3  A    between atoms: O_3  and  C_4 
REMARK       I    between atoms: C_12  and  N_13 
REMARK    4  A    between atoms: N_13  and  C_14 
ROOT
HETATM    1  C   UNL     1      40.409 -13.731   3.758  1.00  0.00     0.050 C 
HETATM    2  C   UNL     1      41.859 -14.209   3.798  1.00  0.00     0.217 C 
ENDROOT
BRANCH   2   3
HETATM    3  O   UNL     1      42.027 -15.313   4.711  1.00  0.00    -0.336 OA
BRANCH   3   4
HETATM    4  C   UNL     1      42.657 -16.389   4.143  1.00  0.00     0.087 A 
HETATM    5  C   UNL     1      43.741 -17.039   4.745  1.00  0.00     0.047 A 
HETATM    6 BR   UNL     1      44.432 -16.492   6.426  1.00  0.00    -0.048 Br
HETATM    7  C   UNL     1      44.315 -18.153   4.127  1.00  0.00     0.064 A 
HETATM    8  C   UNL     1      43.778 -18.622   2.934  1.00  0.00     0.117 A 
HETATM    9  F   UNL     1      44.324 -19.692   2.342  1.00  0.00    -0.206 F 
HETATM   10  C   UNL     1      42.672 -18.013   2.352  1.00  0.00     0.045 A 
HETATM   11  C   UNL     1      42.102 -16.899   2.965  1.00  0.00     0.041 A 
ENDBRANCH   3   4
ENDBRANCH   2   3
BRANCH   2  12
HETATM   12  C   UNL     1      42.784 -13.065   4.269  1.00  0.00     0.252 C 
HETATM   13  N   UNL     1      42.749 -12.906   5.644  1.00  0.00    -0.309 N 
HETATM   14  H   UNL     1      42.099 -13.497   6.147  1.00  0.00     0.170 HD
HETATM   15  O   UNL     1      43.493 -12.450   3.479  1.00  0.00    -0.270 OA
BRANCH  13  16
HETATM   16  C   UNL     1      43.444 -11.937   6.375  1.00  0.00     0.129 A 
HETATM   17  N   UNL     1      42.820 -10.834   6.824  1.00  0.00    -0.242 NA
HETATM   18  C   UNL     1      43.540  -9.944   7.548  1.00  0.00     0.142 A 
HETATM   19  C   UNL     1      44.881 -10.104   7.845  1.00  0.00     0.051 A 
HETATM   20 CL   UNL     1      45.732  -8.938   8.771  1.00  0.00    -0.083 Cl
HETATM   21  C   UNL     1      45.522 -11.240   7.372  1.00  0.00     0.029 A 
HETATM   22  C   UNL     1      44.794 -12.172   6.628  1.00  0.00     0.052 A 
ENDBRANCH  13  16
ENDBRANCH   2  12
TORSDOF 4
ENDMDL
MODEL 3
REMARK VINA RESULT:      -7.1      2.558      3.241
REMARK  4 active torsions:
REMARK  status: ('A' for Active; 'I' for Inactive)
REMARK    1  A    between atoms: C_2  and  O_3 
REMARK    2  A    between atoms: C_2  and  C_12 
REMARK    3  A    between atoms: O_3  and  C_4 
REMARK       I    between atoms: C_12  and  N_13 
REMARK    4  A    between atoms: N_13  and  C_14 
ROOT
HETATM    1  C   UNL     1      43.119 -15.818   1.528  1.00  0.00     0.050 C 
HETATM    2  C   UNL     1      42.067 -15.517   2.595  1.00  0.00     0.217 C 
ENDROOT
BRANCH   2   3
HETATM    3  O   UNL     1      41.769 -16.685   3.387  1.00  0.00    -0.336 OA
BRANCH   3   4
HETATM    4  C   UNL     1      42.144 -16.556   4.699  1.00  0.00     0.087 A 
HETATM    5  C   UNL     1      43.189 -17.294   5.267  1.00  0.00     0.047 A 
HETATM    6 BR   UNL     1      44.201 -18.542   4.258  1.00  0.00    -0.048 Br
HETATM    7  C   UNL     1      43.540 -17.087   6.603  1.00  0.00     0.064 A 
HETATM    8  C   UNL     1      42.866 -16.122   7.344  1.00  0.00     0.117 A 
HETATM    9  F   UNL     1      43.205 -15.919   8.623  1.00  0.00    -0.206 F 
HETATM   10  C   UNL     1      41.859 -15.350   6.775  1.00  0.00     0.045 A 
HETATM   11  C   UNL     1      41.505 -15.560   5.444  1.00  0.00     0.041 A 
ENDBRANCH   3   4
ENDBRANCH   2   3
BRANCH   2  12
HETATM   12  C   UNL     1      40.753 -15.052   1.931  1.00  0.00     0.252 C 
HETATM   13  N   UNL     1      40.985 -14.378   0.744  1.00  0.00    -0.309 N 
HETATM   14  H   UNL     1      41.955 -14.225   0.498  1.00  0.00     0.170 HD
HETATM   15  O   UNL     1      39.660 -15.334   2.410  1.00  0.00    -0.270 OA
BRANCH  13  16
HETATM   16  C   UNL     1      40.009 -13.802  -0.076  1.00  0.00     0.129 A 
HETATM   17  N   UNL     1      39.535 -12.569   0.179  1.00  0.00    -0.242 NA
HETATM   18  C   UNL     1      38.610 -12.054  -0.666  1.00  0.00     0.142 A 
HETATM   19  C   UNL     1      38.121 -12.728  -1.771  1.00  0.00     0.051 A 
HETATM   20 CL   UNL     1      36.952 -12.014  -2.801  1.00  0.00    -0.083 Cl
HETATM   21  C   UNL     1      38.608 -14.002  -2.024  1.00  0.00     0.029 A 
HETATM   22  C   UNL     1      39.567 -14.548  -1.166  1.00  0.00     0.052 A 
ENDBRANCH  13  16
ENDBRANCH   2  12
TORSDOF 4
ENDMDL
MODEL 4
REMARK VINA RESULT:      -6.9      5.837      7.624
REMARK  4 active torsions:
REMARK  status: ('A' for Active; 'I' for Inactive)
REMARK    1  A    between atoms: C_2  and  O_3 
REMARK    2  A    between atoms: C_2  and  C_12 
REMARK    3  A    between atoms: O_3  and  C_4 
REMARK       I    between atoms: C_12  and  N_13 
REMARK    4  A    between atoms: N_13  and  C_14 
ROOT
HETATM    1  C   UNL     1      40.697 -13.449   5.789  1.00  0.00     0.050 C 
HETATM    2  C   UNL     1      42.207 -13.313   5.600  1.00  0.00     0.217 C 
ENDROOT
BRANCH   2   3
HETATM    3  O   UNL     1      42.569 -11.982   5.178  1.00  0.00    -0.336 OA
BRANCH   3   4
HETATM    4  C   UNL     1      43.381 -11.337   6.073  1.00  0.00     0.087 A 
HETATM    5  C   UNL     1      42.920 -10.325   6.924  1.00  0.00     0.047 A 
HETATM    6 BR   UNL     1      41.108  -9.763   6.927  1.00  0.00    -0.048 Br
HETATM    7  C   UNL     1      43.796  -9.733   7.837  1.00  0.00     0.064 A 
HETATM    8  C   UNL     1      45.110 -10.180   7.911  1.00  0.00     0.117 A 
HETATM    9  F   UNL     1      45.949  -9.616   8.789  1.00  0.00    -0.206 F 
HETATM   10  C   UNL     1      45.565 -11.216   7.103  1.00  0.00     0.045 A 
HETATM   11  C   UNL     1      44.694 -11.805   6.189  1.00  0.00     0.041 A 
ENDBRANCH   3   4
ENDBRANCH   2   3
BRANCH   2  12
HETATM   12  C   UNL     1      42.698 -14.299   4.517  1.00  0.00     0.252 C 
HETATM   13  N   UNL     1      42.526 -15.618   4.905  1.00  0.00    -0.309 N 
HETATM   14  H   UNL     1      42.170 -15.767   5.840  1.00  0.00     0.170 HD
HETATM   15  O   UNL     1      43.119 -13.904   3.435  1.00  0.00    -0.270 OA
BRANCH  13  16
HETATM   16  C   UNL     1      42.903 -16.744   4.166  1.00  0.00     0.129 A 
HETATM   17  N   UNL     1      43.897 -17.545   4.588  1.00  0.00    -0.242 NA
HETATM   18  C   UNL     1      44.198 -18.635   3.842  1.00  0.00     0.142 A 
HETATM   19  C   UNL     1      43.544 -18.967   2.670  1.00  0.00     0.051 A 
HETATM   20 CL   UNL     1      43.974 -20.366   1.778  1.00  0.00    -0.083 Cl
HETATM   21  C   UNL     1      42.523 -18.133   2.236  1.00  0.00     0.029 A 
HETATM   22  C   UNL     1      42.196 -17.006   2.994  1.00  0.00     0.052 A 
ENDBRANCH  13  16
ENDBRANCH   2  12
TORSDOF 4
ENDMDL
MODEL 5
REMARK VINA RESULT:      -6.7      4.674      7.533
REMARK  4 active torsions:
REMARK  status: ('A' for Active; 'I' for Inactive)
REMARK    1  A    between atoms: C_2  and  O_3 
REMARK    2  A    between atoms: C_2  and  C_12 
REMARK    3  A    between atoms: O_3  and  C_4 
REMARK       I    between atoms: C_12  and  N_13 
REMARK    4  A    between atoms: N_13  and  C_14 
ROOT
HETATM    1  C   UNL     1      42.296 -12.237   2.408  1.00  0.00     0.050 C 
HETATM    2  C   UNL     1      41.567 -13.408   1.750  1.00  0.00     0.217 C 
ENDROOT
BRANCH   2   3
HETATM    3  O   UNL     1      40.164 -13.125   1.572  1.00  0.00    -0.336 OA
BRANCH   3   4
HETATM    4  C   UNL     1      39.755 -13.232   0.269  1.00  0.00     0.087 A 
HETATM    5  C   UNL     1      39.447 -12.121  -0.525  1.00  0.00     0.047 A 
HETATM    6 BR   UNL     1      39.587 -10.347   0.134  1.00  0.00    -0.048 Br
HETATM    7  C   UNL     1      39.069 -12.302  -1.857  1.00  0.00     0.064 A 
HETATM    8  C   UNL     1      39.034 -13.586  -2.388  1.00  0.00     0.117 A 
HETATM    9  F   UNL     1      38.676 -13.761  -3.666  1.00  0.00    -0.206 F 
HETATM   10  C   UNL     1      39.383 -14.692  -1.622  1.00  0.00     0.045 A 
HETATM   11  C   UNL     1      39.757 -14.514  -0.291  1.00  0.00     0.041 A 
ENDBRANCH   3   4
ENDBRANCH   2   3
BRANCH   2  12
HETATM   12  C   UNL     1      41.683 -14.670   2.632  1.00  0.00     0.252 C 
HETATM   13  N   UNL     1      42.905 -15.302   2.470  1.00  0.00    -0.309 N 
HETATM   14  H   UNL     1      43.524 -14.908   1.774  1.00  0.00     0.170 HD
HETATM   15  O   UNL     1      40.793 -14.989   3.414  1.00  0.00    -0.270 OA
BRANCH  13  16
HETATM   16  C   UNL     1      43.304 -16.487   3.099  1.00  0.00     0.129 A 
HETATM   17  N   UNL     1      43.693 -16.487   4.386  1.00  0.00    -0.242 NA
HETATM   18  C   UNL     1      44.042 -17.669   4.946  1.00  0.00     0.142 A 
HETATM   19  C   UNL     1      44.029 -18.874   4.267  1.00  0.00     0.051 A 
HETATM   20 CL   UNL     1      44.481 -20.336   5.041  1.00  0.00    -0.083 Cl
HETATM   21  C   UNL     1      43.634 -18.867   2.937  1.00  0.00     0.029 A 
HETATM   22  C   UNL     1      43.265 -17.657   2.343  1.00  0.00     0.052 A 
ENDBRANCH  13  16
ENDBRANCH   2  12
TORSDOF 4
ENDMDL
MODEL 6
REMARK VINA RESULT:      -6.6      6.514      7.884
REMARK  4 active torsions:
REMARK  status: ('A' for Active; 'I' for Inactive)
REMARK    1  A    between atoms: C_2  and  O_3 
REMARK    2  A    between atoms: C_2  and  C_12 
REMARK    3  A    between atoms: O_3  and  C_4 
REMARK       I    between atoms: C_12  and  N_13 
REMARK    4  A    between atoms: N_13  and  C_14 
ROOT
HETATM    1  C   UNL     1      43.646 -11.449   4.369  1.00  0.00     0.050 C 
HETATM    2  C   UNL     1      43.652 -12.751   5.168  1.00  0.00     0.217 C 
ENDROOT
BRANCH   2   3
HETATM    3  O   UNL     1      42.474 -13.539   4.903  1.00  0.00    -0.336 OA
BRANCH   3   4
HETATM    4  C   UNL     1      42.739 -14.679   4.190  1.00  0.00     0.087 A 
HETATM    5  C   UNL     1      42.645 -15.961   4.744  1.00  0.00     0.047 A 
HETATM    6 BR   UNL     1      42.122 -16.240   6.546  1.00  0.00    -0.048 Br
HETATM    7  C   UNL     1      42.895 -17.082   3.949  1.00  0.00     0.064 A 
HETATM    8  C   UNL     1      43.204 -16.909   2.604  1.00  0.00     0.117 A 
HETATM    9  F   UNL     1      43.440 -17.983   1.840  1.00  0.00    -0.206 F 
HETATM   10  C   UNL     1      43.254 -15.643   2.033  1.00  0.00     0.045 A 
HETATM   11  C   UNL     1      43.008 -14.524   2.826  1.00  0.00     0.041 A 
ENDBRANCH   3   4
ENDBRANCH   2   3
BRANCH   2  12
HETATM   12  C   UNL     1      43.684 -12.446   6.681  1.00  0.00     0.252 C 
HETATM   13  N   UNL     1      43.631 -11.085   6.935  1.00  0.00    -0.309 N 
HETATM   14  H   UNL     1      43.641 -10.478   6.126  1.00  0.00     0.170 HD
HETATM   15  O   UNL     1      43.686 -13.345   7.515  1.00  0.00    -0.270 OA
BRANCH  13  16
HETATM   16  C   UNL     1      43.678 -10.485   8.198  1.00  0.00     0.129 A 
HETATM   17  N   UNL     1      44.708 -10.714   9.032  1.00  0.00    -0.242 NA
HETATM   18  C   UNL     1      44.710 -10.083  10.230  1.00  0.00     0.142 A 
HETATM   19  C   UNL     1      43.710  -9.222  10.646  1.00  0.00     0.051 A 
HETATM   20 CL   UNL     1      43.779  -8.453  12.177  1.00  0.00    -0.083 Cl
HETATM   21  C   UNL     1      42.647  -8.995   9.784  1.00  0.00     0.029 A 
HETATM   22  C   UNL     1      42.630  -9.634   8.541  1.00  0.00     0.052 A 
ENDBRANCH  13  16
ENDBRANCH   2  12
TORSDOF 4
ENDMDL
MODEL 7
REMARK VINA RESULT:      -6.5      7.395      8.874
REMARK  4 active torsions:
REMARK  status: ('A' for Active; 'I' for Inactive)
REMARK    1  A    between atoms: C_2  and  O_3 
REMARK    2  A    between atoms: C_2  and  C_12 
REMARK    3  A    between atoms: O_3  and  C_4 
REMARK       I    between atoms: C_12  and  N_13 
REMARK    4  A    between atoms: N_13  and  C_14 
ROOT
HETATM    1  C   UNL     1      43.117 -10.858   5.234  1.00  0.00     0.050 C 
HETATM    2  C   UNL     1      43.692 -11.949   6.137  1.00  0.00     0.217 C 
ENDROOT
BRANCH   2   3
HETATM    3  O   UNL     1      42.715 -12.972   6.416  1.00  0.00    -0.336 OA
BRANCH   3   4
HETATM    4  C   UNL     1      43.087 -14.209   5.959  1.00  0.00     0.087 A 
HETATM    5  C   UNL     1      42.646 -14.732   4.737  1.00  0.00     0.047 A 
HETATM    6 BR   UNL     1      41.495 -13.758   3.585  1.00  0.00    -0.048 Br
HETATM    7  C   UNL     1      43.093 -15.987   4.316  1.00  0.00     0.064 A 
HETATM    8  C   UNL     1      43.998 -16.688   5.104  1.00  0.00     0.117 A 
HETATM    9  F   UNL     1      44.430 -17.889   4.700  1.00  0.00    -0.206 F 
HETATM   10  C   UNL     1      44.479 -16.158   6.296  1.00  0.00     0.045 A 
HETATM   11  C   UNL     1      44.030 -14.908   6.719  1.00  0.00     0.041 A 
ENDBRANCH   3   4
ENDBRANCH   2   3
BRANCH   2  12
HETATM   12  C   UNL     1      44.136 -11.343   7.486  1.00  0.00     0.252 C 
HETATM   13  N   UNL     1      43.095 -10.694   8.129  1.00  0.00    -0.309 N 
HETATM   14  H   UNL     1      42.219 -10.646   7.625  1.00  0.00     0.170 HD
HETATM   15  O   UNL     1      45.273 -11.506   7.917  1.00  0.00    -0.270 OA
BRANCH  13  16
HETATM   16  C   UNL     1      43.182 -10.014   9.348  1.00  0.00     0.129 A 
HETATM   17  N   UNL     1      43.391 -10.681  10.496  1.00  0.00    -0.242 NA
HETATM   18  C   UNL     1      43.493  -9.965  11.641  1.00  0.00     0.142 A 
HETATM   19  C   UNL     1      43.386  -8.587  11.695  1.00  0.00     0.051 A 
HETATM   20 CL   UNL     1      43.529  -7.743  13.181  1.00  0.00    -0.083 Cl
HETATM   21  C   UNL     1      43.163  -7.904  10.508  1.00  0.00     0.029 A 
HETATM   22  C   UNL     1      43.060  -8.626   9.317  1.00  0.00     0.052 A 
ENDBRANCH  13  16
ENDBRANCH   2  12
TORSDOF 4
ENDMDL
MODEL 8
REMARK VINA RESULT:      -6.4      3.766      4.716
REMARK  4 active torsions:
REMARK  status: ('A' for Active; 'I' for Inactive)
REMARK    1  A    between atoms: C_2  and  O_3 
REMARK    2  A    between atoms: C_2  and  C_12 
REMARK    3  A    between atoms: O_3  and  C_4 
REMARK       I    between atoms: C_12  and  N_13 
REMARK    4  A    between atoms: N_13  and  C_14 
ROOT
HETATM    1  C   UNL     1      40.201 -14.887   0.553  1.00  0.00     0.050 C 
HETATM    2  C   UNL     1      41.020 -14.966   1.840  1.00  0.00     0.217 C 
ENDROOT
BRANCH   2   3
HETATM    3  O   UNL     1      40.695 -16.146   2.603  1.00  0.00    -0.336 OA
BRANCH   3   4
HETATM    4  C   UNL     1      41.793 -16.745   3.160  1.00  0.00     0.087 A 
HETATM    5  C   UNL     1      42.052 -16.728   4.536  1.00  0.00     0.047 A 
HETATM    6 BR   UNL     1      40.884 -15.878   5.767  1.00  0.00    -0.048 Br
HETATM    7  C   UNL     1      43.173 -17.390   5.041  1.00  0.00     0.064 A 
HETATM    8  C   UNL     1      44.003 -18.087   4.170  1.00  0.00     0.117 A 
HETATM    9  F   UNL     1      45.076 -18.726   4.654  1.00  0.00    -0.206 F 
HETATM   10  C   UNL     1      43.729 -18.150   2.809  1.00  0.00     0.045 A 
HETATM   11  C   UNL     1      42.613 -17.486   2.303  1.00  0.00     0.041 A 
ENDBRANCH   3   4
ENDBRANCH   2   3
BRANCH   2  12
HETATM   12  C   UNL     1      40.732 -13.737   2.730  1.00  0.00     0.252 C 
HETATM   13  N   UNL     1      41.898 -13.161   3.208  1.00  0.00    -0.309 N 
HETATM   14  H   UNL     1      42.760 -13.636   2.975  1.00  0.00     0.170 HD
HETATM   15  O   UNL     1      39.589 -13.326   2.903  1.00  0.00    -0.270 OA
BRANCH  13  16
HETATM   16  C   UNL     1      41.975 -12.060   4.067  1.00  0.00     0.129 A 
HETATM   17  N   UNL     1      41.836 -10.808   3.596  1.00  0.00    -0.242 NA
HETATM   18  C   UNL     1      41.894  -9.784   4.480  1.00  0.00     0.142 A 
HETATM   19  C   UNL     1      42.094  -9.953   5.838  1.00  0.00     0.051 A 
HETATM   20 CL   UNL     1      42.152  -8.610   6.902  1.00  0.00    -0.083 Cl
HETATM   21  C   UNL     1      42.243 -11.247   6.318  1.00  0.00     0.029 A 
HETATM   22  C   UNL     1      42.181 -12.316   5.421  1.00  0.00     0.052 A 
ENDBRANCH  13  16
ENDBRANCH   2  12
TORSDOF 4
ENDMDL
MODEL 9
REMARK VINA RESULT:      -6.3     14.699     16.849
REMARK  4 active torsions:
REMARK  status: ('A' for Active; 'I' for Inactive)
REMARK    1  A    between atoms: C_2  and  O_3 
REMARK    2  A    between atoms: C_2  and  C_12 
REMARK    3  A    between atoms: O_3  and  C_4 
REMARK       I    between atoms: C_12  and  N_13 
REMARK    4  A    between atoms: N_13  and  C_14 
ROOT
HETATM    1  C   UNL     1      46.924 -28.414   2.243  1.00  0.00     0.050 C 
HETATM    2  C   UNL     1      46.798 -28.737   0.755  1.00  0.00     0.217 C 
ENDROOT
BRANCH   2   3
HETATM    3  O   UNL     1      45.462 -29.163   0.418  1.00  0.00    -0.336 OA
BRANCH   3   4
HETATM    4  C   UNL     1      45.233 -29.196  -0.933  1.00  0.00     0.087 A 
HETATM    5  C   UNL     1      44.608 -30.274  -1.571  1.00  0.00     0.047 A 
HETATM    6 BR   UNL     1      44.001 -31.794  -0.612  1.00  0.00    -0.048 Br
HETATM    7  C   UNL     1      44.375 -30.226  -2.947  1.00  0.00     0.064 A 
HETATM    8  C   UNL     1      44.739 -29.090  -3.662  1.00  0.00     0.117 A 
HETATM    9  F   UNL     1      44.511 -29.041  -4.981  1.00  0.00    -0.206 F 
HETATM   10  C   UNL     1      45.317 -27.996  -3.030  1.00  0.00     0.045 A 
HETATM   11  C   UNL     1      45.554 -28.044  -1.657  1.00  0.00     0.041 A 
ENDBRANCH   3   4
ENDBRANCH   2   3
BRANCH   2  12
HETATM   12  C   UNL     1      47.765 -29.880   0.376  1.00  0.00     0.252 C 
HETATM   13  N   UNL     1      48.995 -29.398  -0.040  1.00  0.00    -0.309 N 
HETATM   14  H   UNL     1      49.085 -28.392  -0.100  1.00  0.00     0.170 HD
HETATM   15  O   UNL     1      47.449 -31.057   0.511  1.00  0.00    -0.270 OA
BRANCH  13  16
HETATM   16  C   UNL     1      50.072 -30.174  -0.483  1.00  0.00     0.129 A 
HETATM   17  N   UNL     1      50.547 -30.043  -1.734  1.00  0.00    -0.242 NA
HETATM   18  C   UNL     1      51.608 -30.803  -2.096  1.00  0.00     0.142 A 
HETATM   19  C   UNL     1      52.225 -31.709  -1.254  1.00  0.00     0.051 A 
HETATM   20 CL   UNL     1      53.569 -32.637  -1.777  1.00  0.00    -0.083 Cl
HETATM   21  C   UNL     1      51.726 -31.846   0.034  1.00  0.00     0.029 A 
HETATM   22  C   UNL     1      50.635 -31.066   0.427  1.00  0.00     0.052 A 
ENDBRANCH  13  16
ENDBRANCH   2  12
TORSDOF 4
ENDMDL
MODEL 10
REMARK VINA RESULT:      -6.3      7.434      9.396
REMARK  4 active torsions:
REMARK  status: ('A' for Active; 'I' for Inactive)
REMARK    1  A    between atoms: C_2  and  O_3 
REMARK    2  A    between atoms: C_2  and  C_12 
REMARK    3  A    between atoms: O_3  and  C_4 
REMARK       I    between atoms: C_12  and  N_13 
REMARK    4  A    between atoms: N_13  and  C_14 
ROOT
HETATM    1  C   UNL     1      40.862  -9.915   5.980  1.00  0.00     0.050 C 
HETATM    2  C   UNL     1      42.023 -10.439   6.824  1.00  0.00     0.217 C 
ENDROOT
BRANCH   2   3
HETATM    3  O   UNL     1      42.995  -9.406   7.084  1.00  0.00    -0.336 OA
BRANCH   3   4
HETATM    4  C   UNL     1      43.258  -9.239   8.418  1.00  0.00     0.087 A 
HETATM    5  C   UNL     1      44.447  -9.670   9.019  1.00  0.00     0.047 A 
HETATM    6 BR   UNL     1      45.822 -10.520   8.025  1.00  0.00    -0.048 Br
HETATM    7  C   UNL     1      44.664  -9.436  10.378  1.00  0.00     0.064 A 
HETATM    8  C   UNL     1      43.706  -8.746  11.113  1.00  0.00     0.117 A 
HETATM    9  F   UNL     1      43.915  -8.516  12.416  1.00  0.00    -0.206 F 
HETATM   10  C   UNL     1      42.543  -8.271  10.516  1.00  0.00     0.045 A 
HETATM   11  C   UNL     1      42.324  -8.508   9.160  1.00  0.00     0.041 A 
ENDBRANCH   3   4
ENDBRANCH   2   3
BRANCH   2  12
HETATM   12  C   UNL     1      42.743 -11.587   6.083  1.00  0.00     0.252 C 
HETATM   13  N   UNL     1      42.284 -12.829   6.487  1.00  0.00    -0.309 N 
HETATM   14  H   UNL     1      41.601 -12.834   7.234  1.00  0.00     0.170 HD
HETATM   15  O   UNL     1      43.568 -11.362   5.204  1.00  0.00    -0.270 OA
BRANCH  13  16
HETATM   16  C   UNL     1      42.758 -14.065   6.033  1.00  0.00     0.129 A 
HETATM   17  N   UNL     1      42.364 -14.560   4.847  1.00  0.00    -0.242 NA
HETATM   18  C   UNL     1      42.878 -15.749   4.450  1.00  0.00     0.142 A 
HETATM   19  C   UNL     1      43.779 -16.483   5.199  1.00  0.00     0.051 A 
HETATM   20 CL   UNL     1      44.394 -17.981   4.633  1.00  0.00    -0.083 Cl
HETATM   21  C   UNL     1      44.177 -15.970   6.426  1.00  0.00     0.029 A 
HETATM   22  C   UNL     1      43.660 -14.743   6.850  1.00  0.00     0.052 A 
ENDBRANCH  13  16
ENDBRANCH   2  12
TORSDOF 4
ENDMDL
