MODEL 1
REMARK VINA RESULT:      -7.5      0.000      0.000
REMARK  7 active torsions:
REMARK  status: ('A' for Active; 'I' for Inactive)
REMARK    1  A    between atoms: C_2  and  N_3 
REMARK    2  A    between atoms: C_8  and  C_9 
REMARK    3  A    between atoms: C_9  and  N_10 
REMARK       I    between atoms: N_10  and  C_11 
REMARK       I    between atoms: C_11  and  N_12 
REMARK    4  A    between atoms: N_12  and  C_13 
REMARK    5  A    between atoms: C_14  and  O_15 
REMARK    6  A    between atoms: C_18  and  O_19 
REMARK    7  A    between atoms: C_26  and  N_27 
ROOT
HETATM    1  C   UNL     1      40.888 -10.018   6.433  1.00  0.00     0.118 C 
HETATM    2  C   UNL     1      41.598  -9.261   5.312  1.00  0.00     0.037 C 
ENDROOT
BRANCH   1   3
HETATM    3  C   UNL     1      41.504  -9.750   7.800  1.00  0.00     0.006 C 
HETATM    4  C   UNL     1      40.790  -9.185   8.942  1.00  0.00    -0.031 C 
HETATM    5  C   UNL     1      41.639  -8.917  10.000  1.00  0.00     0.017 C 
HETATM    6  C   UNL     1      39.311  -8.926   9.076  1.00  0.00     0.068 C 
HETATM    7  C   UNL     1      41.238  -8.323  11.306  1.00  0.00     0.281 C 
HETATM    8  S   UNL     1      43.244  -9.323   9.673  1.00  0.00    -0.074 SA
HETATM    9  N   UNL     1      39.744  -8.505  11.549  1.00  0.00    -0.067 N 
HETATM   10  H   UNL     1      39.492  -7.850  12.300  1.00  0.00     0.280 HD
HETATM   11  C   UNL     1      38.971  -8.059  10.305  1.00  0.00     0.240 C 
HETATM   12  C   UNL     1      42.832  -9.986   8.157  1.00  0.00     0.089 C 
BRANCH   9  13
HETATM   13  C   UNL     1      39.352  -9.891  12.016  1.00  0.00     0.231 C 
HETATM   14  C   UNL     1      40.146 -10.304  13.242  1.00  0.00     0.034 C 
ENDBRANCH   9  13
BRANCH  12  15
HETATM   15  N   UNL     1      43.841 -10.709   7.484  1.00  0.00    -0.327 N 
HETATM   16  C   UNL     1      45.108 -10.262   7.132  1.00  0.00     0.097 A 
HETATM   17  C   UNL     1      45.815 -11.280   6.531  1.00  0.00     0.019 A 
HETATM   18  C   UNL     1      44.985 -12.414   6.530  1.00  0.00     0.019 A 
HETATM   19  C   UNL     1      43.800 -12.049   7.130  1.00  0.00     0.097 A 
ENDBRANCH  12  15
ENDBRANCH   1   3
BRANCH   1  20
HETATM   20  N   UNL     1      40.907 -11.454   6.183  1.00  0.00    -0.334 N 
HETATM   21  C   UNL     1      39.739 -12.176   6.269  1.00  0.00     0.321 C 
HETATM   22  N   UNL     1      39.793 -13.439   5.748  1.00  0.00    -0.306 N 
HETATM   23  O   UNL     1      38.681 -11.709   6.674  1.00  0.00    -0.247 OA
HETATM   24  H   UNL     1      38.893 -13.792   5.433  1.00  0.00     0.171 HD
HETATM   25  H   UNL     1      41.463 -11.755   5.395  1.00  0.00     0.165 HD
BRANCH  22  26
HETATM   26  C   UNL     1      40.890 -14.300   5.549  1.00  0.00     0.071 A 
HETATM   27  C   UNL     1      41.267 -14.618   4.233  1.00  0.00     0.097 A 
HETATM   28  C   UNL     1      42.347 -15.482   4.004  1.00  0.00     0.077 A 
HETATM   29  C   UNL     1      43.061 -16.029   5.080  1.00  0.00     0.092 A 
HETATM   30  C   UNL     1      42.653 -15.725   6.387  1.00  0.00     0.069 A 
HETATM   31 CL   UNL     1      43.459 -16.375   7.776  1.00  0.00    -0.081 Cl
HETATM   32  C   UNL     1      41.570 -14.878   6.618  1.00  0.00     0.059 A 
BRANCH  27  33
HETATM   33  O   UNL     1      40.519 -14.033   3.242  1.00  0.00    -0.354 OA
HETATM   34  C   UNL     1      39.899 -14.917   2.312  1.00  0.00     0.210 C 
ENDBRANCH  27  33
BRANCH  29  35
HETATM   35  O   UNL     1      44.137 -16.866   4.956  1.00  0.00    -0.354 OA
HETATM   36  C   UNL     1      43.942 -18.108   4.290  1.00  0.00     0.210 C 
ENDBRANCH  29  35
ENDBRANCH  22  26
ENDBRANCH   1  20
TORSDOF 7
ENDMDL
MODEL 2
REMARK VINA RESULT:      -7.5      2.835      4.624
REMARK  7 active torsions:
REMARK  status: ('A' for Active; 'I' for Inactive)
REMARK    1  A    between atoms: C_2  and  N_3 
REMARK    2  A    between atoms: C_8  and  C_9 
REMARK    3  A    between atoms: C_9  and  N_10 
REMARK       I    between atoms: N_10  and  C_11 
REMARK       I    between atoms: C_11  and  N_12 
REMARK    4  A    between atoms: N_12  and  C_13 
REMARK    5  A    between atoms: C_14  and  O_15 
REMARK    6  A    between atoms: C_18  and  O_19 
REMARK    7  A    between atoms: C_26  and  N_27 
ROOT
HETATM    1  C   UNL     1      41.259 -11.246   3.763  1.00  0.00     0.118 C 
HETATM    2  C   UNL     1      42.199 -10.796   2.647  1.00  0.00     0.037 C 
ENDROOT
BRANCH   1   3
HETATM    3  C   UNL     1      41.636 -10.658   5.117  1.00  0.00     0.006 C 
HETATM    4  C   UNL     1      42.739 -11.124   5.952  1.00  0.00    -0.031 C 
HETATM    5  C   UNL     1      42.748 -10.504   7.188  1.00  0.00     0.017 C 
HETATM    6  C   UNL     1      43.815 -12.119   5.598  1.00  0.00     0.068 C 
HETATM    7  C   UNL     1      43.728 -10.762   8.282  1.00  0.00     0.281 C 
HETATM    8  S   UNL     1      41.495  -9.389   7.372  1.00  0.00    -0.074 SA
HETATM    9  N   UNL     1      45.001 -11.395   7.732  1.00  0.00    -0.067 N 
HETATM   10  H   UNL     1      45.496 -11.793   8.540  1.00  0.00     0.280 HD
HETATM   11  C   UNL     1      44.629 -12.573   6.827  1.00  0.00     0.240 C 
HETATM   12  C   UNL     1      40.980  -9.610   5.762  1.00  0.00     0.089 C 
BRANCH   9  13
HETATM   13  C   UNL     1      45.946 -10.419   7.065  1.00  0.00     0.231 C 
HETATM   14  C   UNL     1      46.329  -9.292   8.007  1.00  0.00     0.034 C 
ENDBRANCH   9  13
BRANCH  12  15
HETATM   15  N   UNL     1      40.011  -8.705   5.275  1.00  0.00    -0.327 N 
HETATM   16  C   UNL     1      40.233  -7.478   4.663  1.00  0.00     0.097 A 
HETATM   17  C   UNL     1      39.034  -6.917   4.287  1.00  0.00     0.019 A 
HETATM   18  C   UNL     1      38.023  -7.827   4.641  1.00  0.00     0.019 A 
HETATM   19  C   UNL     1      38.641  -8.913   5.222  1.00  0.00     0.097 A 
ENDBRANCH  12  15
ENDBRANCH   1   3
BRANCH   1  20
HETATM   20  N   UNL     1      41.239 -12.700   3.872  1.00  0.00    -0.334 N 
HETATM   21  C   UNL     1      40.193 -13.321   4.514  1.00  0.00     0.321 C 
HETATM   22  N   UNL     1      40.110 -14.673   4.323  1.00  0.00    -0.306 N 
HETATM   23  O   UNL     1      39.320 -12.719   5.126  1.00  0.00    -0.247 OA
HETATM   24  H   UNL     1      39.168 -15.044   4.420  1.00  0.00     0.171 HD
HETATM   25  H   UNL     1      41.507 -13.206   3.039  1.00  0.00     0.165 HD
BRANCH  22  26
HETATM   26  C   UNL     1      41.103 -15.610   3.978  1.00  0.00     0.071 A 
HETATM   27  C   UNL     1      41.068 -16.192   2.699  1.00  0.00     0.097 A 
HETATM   28  C   UNL     1      42.036 -17.137   2.334  1.00  0.00     0.077 A 
HETATM   29  C   UNL     1      43.046 -17.506   3.234  1.00  0.00     0.092 A 
HETATM   30  C   UNL     1      43.050 -16.938   4.517  1.00  0.00     0.069 A 
HETATM   31 CL   UNL     1      44.244 -17.353   5.701  1.00  0.00    -0.081 Cl
HETATM   32  C   UNL     1      42.079 -16.009   4.889  1.00  0.00     0.059 A 
BRANCH  27  33
HETATM   33  O   UNL     1      40.050 -15.768   1.881  1.00  0.00    -0.354 OA
HETATM   34  C   UNL     1      40.433 -15.019   0.731  1.00  0.00     0.210 C 
ENDBRANCH  27  33
BRANCH  29  35
HETATM   35  O   UNL     1      44.042 -18.405   2.961  1.00  0.00    -0.354 OA
HETATM   36  C   UNL     1      43.666 -19.695   2.495  1.00  0.00     0.210 C 
ENDBRANCH  29  35
ENDBRANCH  22  26
ENDBRANCH   1  20
TORSDOF 7
ENDMDL
MODEL 3
REMARK VINA RESULT:      -7.1      3.932      8.558
REMARK  7 active torsions:
REMARK  status: ('A' for Active; 'I' for Inactive)
REMARK    1  A    between atoms: C_2  and  N_3 
REMARK    2  A    between atoms: C_8  and  C_9 
REMARK    3  A    between atoms: C_9  and  N_10 
REMARK       I    between atoms: N_10  and  C_11 
REMARK       I    between atoms: C_11  and  N_12 
REMARK    4  A    between atoms: N_12  and  C_13 
REMARK    5  A    between atoms: C_14  and  O_15 
REMARK    6  A    between atoms: C_18  and  O_19 
REMARK    7  A    between atoms: C_26  and  N_27 
ROOT
HETATM    1  C   UNL     1      44.225  -9.973   8.953  1.00  0.00     0.118 C 
HETATM    2  C   UNL     1      45.313  -8.959   8.605  1.00  0.00     0.037 C 
ENDROOT
BRANCH   1   3
HETATM    3  C   UNL     1      43.195 -10.128   7.842  1.00  0.00     0.006 C 
HETATM    4  C   UNL     1      43.060 -11.303   6.986  1.00  0.00    -0.031 C 
HETATM    5  C   UNL     1      42.141 -11.101   5.973  1.00  0.00     0.017 C 
HETATM    6  C   UNL     1      43.751 -12.636   7.123  1.00  0.00     0.068 C 
HETATM    7  C   UNL     1      41.779 -12.091   4.918  1.00  0.00     0.281 C 
HETATM    8  S   UNL     1      41.439  -9.567   6.019  1.00  0.00    -0.074 SA
HETATM    9  N   UNL     1      42.139 -13.506   5.355  1.00  0.00    -0.067 N 
HETATM   10  H   UNL     1      42.128 -14.082   4.504  1.00  0.00     0.280 HD
HETATM   11  C   UNL     1      43.580 -13.524   5.874  1.00  0.00     0.240 C 
HETATM   12  C   UNL     1      42.247  -9.175   7.468  1.00  0.00     0.089 C 
BRANCH   9  13
HETATM   13  C   UNL     1      41.159 -14.127   6.328  1.00  0.00     0.231 C 
HETATM   14  C   UNL     1      41.524 -15.569   6.632  1.00  0.00     0.034 C 
ENDBRANCH   9  13
BRANCH  12  15
HETATM   15  N   UNL     1      41.844  -7.988   8.120  1.00  0.00    -0.327 N 
HETATM   16  C   UNL     1      40.785  -7.830   9.005  1.00  0.00     0.097 A 
HETATM   17  C   UNL     1      40.747  -6.532   9.463  1.00  0.00     0.019 A 
HETATM   18  C   UNL     1      41.830  -5.855   8.876  1.00  0.00     0.019 A 
HETATM   19  C   UNL     1      42.492  -6.764   8.080  1.00  0.00     0.097 A 
ENDBRANCH  12  15
ENDBRANCH   1   3
BRANCH   1  20
HETATM   20  N   UNL     1      43.536  -9.595  10.182  1.00  0.00    -0.334 N 
HETATM   21  C   UNL     1      43.609 -10.416  11.283  1.00  0.00     0.321 C 
HETATM   22  N   UNL     1      43.182  -9.858  12.457  1.00  0.00    -0.306 N 
HETATM   23  O   UNL     1      44.117 -11.530  11.267  1.00  0.00    -0.247 OA
HETATM   24  H   UNL     1      43.609 -10.267  13.284  1.00  0.00     0.171 HD
HETATM   25  H   UNL     1      43.613  -8.623  10.446  1.00  0.00     0.165 HD
BRANCH  22  26
HETATM   26  C   UNL     1      42.289  -8.795  12.692  1.00  0.00     0.071 A 
HETATM   27  C   UNL     1      40.939  -9.092  12.944  1.00  0.00     0.097 A 
HETATM   28  C   UNL     1      40.025  -8.053  13.168  1.00  0.00     0.077 A 
HETATM   29  C   UNL     1      40.447  -6.716  13.151  1.00  0.00     0.092 A 
HETATM   30  C   UNL     1      41.793  -6.436  12.869  1.00  0.00     0.069 A 
HETATM   31 CL   UNL     1      42.398  -4.814  12.800  1.00  0.00    -0.081 Cl
HETATM   32  C   UNL     1      42.701  -7.466  12.629  1.00  0.00     0.059 A 
BRANCH  27  33
HETATM   33  O   UNL     1      40.614 -10.425  12.950  1.00  0.00    -0.354 OA
HETATM   34  C   UNL     1      39.230 -10.740  12.817  1.00  0.00     0.210 C 
ENDBRANCH  27  33
BRANCH  29  35
HETATM   35  O   UNL     1      39.633  -5.638  13.376  1.00  0.00    -0.354 OA
HETATM   36  C   UNL     1      38.676  -5.306  12.377  1.00  0.00     0.210 C 
ENDBRANCH  29  35
ENDBRANCH  22  26
ENDBRANCH   1  20
TORSDOF 7
ENDMDL
MODEL 4
REMARK VINA RESULT:      -7.0      3.439      7.512
REMARK  7 active torsions:
REMARK  status: ('A' for Active; 'I' for Inactive)
REMARK    1  A    between atoms: C_2  and  N_3 
REMARK    2  A    between atoms: C_8  and  C_9 
REMARK    3  A    between atoms: C_9  and  N_10 
REMARK       I    between atoms: N_10  and  C_11 
REMARK       I    between atoms: C_11  and  N_12 
REMARK    4  A    between atoms: N_12  and  C_13 
REMARK    5  A    between atoms: C_14  and  O_15 
REMARK    6  A    between atoms: C_18  and  O_19 
REMARK    7  A    between atoms: C_26  and  N_27 
ROOT
HETATM    1  C   UNL     1      43.902 -12.021   6.988  1.00  0.00     0.118 C 
HETATM    2  C   UNL     1      44.832 -11.328   5.994  1.00  0.00     0.037 C 
ENDROOT
BRANCH   1   3
HETATM    3  C   UNL     1      42.628 -12.540   6.332  1.00  0.00     0.006 C 
HETATM    4  C   UNL     1      41.614 -11.703   5.698  1.00  0.00    -0.031 C 
HETATM    5  C   UNL     1      40.502 -12.434   5.324  1.00  0.00     0.017 C 
HETATM    6  C   UNL     1      41.683 -10.227   5.399  1.00  0.00     0.068 C 
HETATM    7  C   UNL     1      39.281 -11.884   4.669  1.00  0.00     0.281 C 
HETATM    8  S   UNL     1      40.637 -14.074   5.699  1.00  0.00    -0.074 SA
HETATM    9  N   UNL     1      39.579 -10.547   4.001  1.00  0.00    -0.067 N 
HETATM   10  H   UNL     1      38.669 -10.104   3.823  1.00  0.00     0.280 HD
HETATM   11  C   UNL     1      40.316  -9.640   4.991  1.00  0.00     0.240 C 
HETATM   12  C   UNL     1      42.237 -13.877   6.256  1.00  0.00     0.089 C 
BRANCH   9  13
HETATM   13  C   UNL     1      40.290 -10.659   2.669  1.00  0.00     0.231 C 
HETATM   14  C   UNL     1      39.642 -11.710   1.786  1.00  0.00     0.034 C 
ENDBRANCH   9  13
BRANCH  12  15
HETATM   15  N   UNL     1      42.966 -15.056   6.525  1.00  0.00    -0.327 N 
HETATM   16  C   UNL     1      43.067 -15.728   7.736  1.00  0.00     0.097 A 
HETATM   17  C   UNL     1      43.831 -16.863   7.580  1.00  0.00     0.019 A 
HETATM   18  C   UNL     1      44.198 -16.931   6.226  1.00  0.00     0.019 A 
HETATM   19  C   UNL     1      43.646 -15.834   5.601  1.00  0.00     0.097 A 
ENDBRANCH  12  15
ENDBRANCH   1   3
BRANCH   1  20
HETATM   20  N   UNL     1      43.536 -11.119   8.074  1.00  0.00    -0.334 N 
HETATM   21  C   UNL     1      44.513 -10.620   8.903  1.00  0.00     0.321 C 
HETATM   22  N   UNL     1      44.127  -9.577   9.699  1.00  0.00    -0.306 N 
HETATM   23  O   UNL     1      45.681 -10.987   8.873  1.00  0.00    -0.247 OA
HETATM   24  H   UNL     1      44.891  -8.963   9.971  1.00  0.00     0.171 HD
HETATM   25  H   UNL     1      42.856 -10.408   7.843  1.00  0.00     0.165 HD
BRANCH  22  26
HETATM   26  C   UNL     1      42.850  -9.203  10.162  1.00  0.00     0.071 A 
HETATM   27  C   UNL     1      42.200  -8.121   9.546  1.00  0.00     0.097 A 
HETATM   28  C   UNL     1      40.934  -7.719   9.995  1.00  0.00     0.077 A 
HETATM   29  C   UNL     1      40.306  -8.393  11.052  1.00  0.00     0.092 A 
HETATM   30  C   UNL     1      40.982  -9.452  11.675  1.00  0.00     0.069 A 
HETATM   31 CL   UNL     1      40.295 -10.325  13.004  1.00  0.00    -0.081 Cl
HETATM   32  C   UNL     1      42.248  -9.845  11.242  1.00  0.00     0.059 A 
BRANCH  27  33
HETATM   33  O   UNL     1      42.883  -7.524   8.516  1.00  0.00    -0.354 OA
HETATM   34  C   UNL     1      42.099  -7.071   7.415  1.00  0.00     0.210 C 
ENDBRANCH  27  33
BRANCH  29  35
HETATM   35  O   UNL     1      39.067  -8.085  11.546  1.00  0.00    -0.354 OA
HETATM   36  C   UNL     1      38.508  -6.823  11.202  1.00  0.00     0.210 C 
ENDBRANCH  29  35
ENDBRANCH  22  26
ENDBRANCH   1  20
TORSDOF 7
ENDMDL
MODEL 5
REMARK VINA RESULT:      -6.9      3.501      8.079
REMARK  7 active torsions:
REMARK  status: ('A' for Active; 'I' for Inactive)
REMARK    1  A    between atoms: C_2  and  N_3 
REMARK    2  A    between atoms: C_8  and  C_9 
REMARK    3  A    between atoms: C_9  and  N_10 
REMARK       I    between atoms: N_10  and  C_11 
REMARK       I    between atoms: C_11  and  N_12 
REMARK    4  A    between atoms: N_12  and  C_13 
REMARK    5  A    between atoms: C_14  and  O_15 
REMARK    6  A    between atoms: C_18  and  O_19 
REMARK    7  A    between atoms: C_26  and  N_27 
ROOT
HETATM    1  C   UNL     1      44.306 -11.173   7.897  1.00  0.00     0.118 C 
HETATM    2  C   UNL     1      45.247 -10.215   7.170  1.00  0.00     0.037 C 
ENDROOT
BRANCH   1   3
HETATM    3  C   UNL     1      43.186 -11.686   7.001  1.00  0.00     0.006 C 
HETATM    4  C   UNL     1      43.094 -13.045   6.474  1.00  0.00    -0.031 C 
HETATM    5  C   UNL     1      42.055 -13.179   5.573  1.00  0.00     0.017 C 
HETATM    6  C   UNL     1      43.944 -14.238   6.831  1.00  0.00     0.068 C 
HETATM    7  C   UNL     1      41.696 -14.427   4.840  1.00  0.00     0.281 C 
HETATM    8  S   UNL     1      41.192 -11.747   5.346  1.00  0.00    -0.074 SA
HETATM    9  N   UNL     1      42.260 -15.653   5.549  1.00  0.00    -0.067 N 
HETATM   10  H   UNL     1      42.223 -16.422   4.868  1.00  0.00     0.280 HD
HETATM   11  C   UNL     1      43.741 -15.421   5.863  1.00  0.00     0.240 C 
HETATM   12  C   UNL     1      42.102 -10.939   6.541  1.00  0.00     0.089 C 
BRANCH   9  13
HETATM   13  C   UNL     1      41.467 -16.093   6.762  1.00  0.00     0.231 C 
HETATM   14  C   UNL     1      39.974 -16.028   6.496  1.00  0.00     0.034 C 
ENDBRANCH   9  13
BRANCH  12  15
HETATM   15  N   UNL     1      41.638  -9.665   6.940  1.00  0.00    -0.327 N 
HETATM   16  C   UNL     1      42.154  -8.428   6.576  1.00  0.00     0.097 A 
HETATM   17  C   UNL     1      41.396  -7.422   7.133  1.00  0.00     0.019 A 
HETATM   18  C   UNL     1      40.352  -8.038   7.844  1.00  0.00     0.019 A 
HETATM   19  C   UNL     1      40.509  -9.399   7.697  1.00  0.00     0.097 A 
ENDBRANCH  12  15
ENDBRANCH   1   3
BRANCH   1  20
HETATM   20  N   UNL     1      43.714 -10.533   9.067  1.00  0.00    -0.334 N 
HETATM   21  C   UNL     1      44.473 -10.345  10.199  1.00  0.00     0.321 C 
HETATM   22  N   UNL     1      43.937  -9.497  11.127  1.00  0.00    -0.306 N 
HETATM   23  O   UNL     1      45.600 -10.804  10.343  1.00  0.00    -0.247 OA
HETATM   24  H   UNL     1      44.631  -9.043  11.717  1.00  0.00     0.171 HD
HETATM   25  H   UNL     1      43.136  -9.726   8.879  1.00  0.00     0.165 HD
BRANCH  22  26
HETATM   26  C   UNL     1      42.599  -9.128  11.365  1.00  0.00     0.071 A 
HETATM   27  C   UNL     1      42.174  -7.846  10.980  1.00  0.00     0.097 A 
HETATM   28  C   UNL     1      40.851  -7.447  11.217  1.00  0.00     0.077 A 
HETATM   29  C   UNL     1      39.943  -8.322  11.831  1.00  0.00     0.092 A 
HETATM   30  C   UNL     1      40.392  -9.587  12.237  1.00  0.00     0.069 A 
HETATM   31 CL   UNL     1      39.348 -10.723  13.025  1.00  0.00    -0.081 Cl
HETATM   32  C   UNL     1      41.711  -9.981  12.017  1.00  0.00     0.059 A 
BRANCH  27  33
HETATM   33  O   UNL     1      43.125  -7.059  10.379  1.00  0.00    -0.354 OA
HETATM   34  C   UNL     1      42.789  -5.686  10.199  1.00  0.00     0.210 C 
ENDBRANCH  27  33
BRANCH  29  35
HETATM   35  O   UNL     1      38.630  -8.028  12.087  1.00  0.00    -0.354 OA
HETATM   36  C   UNL     1      38.347  -7.045  13.075  1.00  0.00     0.210 C 
ENDBRANCH  29  35
ENDBRANCH  22  26
ENDBRANCH   1  20
TORSDOF 7
ENDMDL
MODEL 6
REMARK VINA RESULT:      -6.8      3.110      7.361
REMARK  7 active torsions:
REMARK  status: ('A' for Active; 'I' for Inactive)
REMARK    1  A    between atoms: C_2  and  N_3 
REMARK    2  A    between atoms: C_8  and  C_9 
REMARK    3  A    between atoms: C_9  and  N_10 
REMARK       I    between atoms: N_10  and  C_11 
REMARK       I    between atoms: C_11  and  N_12 
REMARK    4  A    between atoms: N_12  and  C_13 
REMARK    5  A    between atoms: C_14  and  O_15 
REMARK    6  A    between atoms: C_18  and  O_19 
REMARK    7  A    between atoms: C_26  and  N_27 
ROOT
HETATM    1  C   UNL     1      41.996 -11.034   4.970  1.00  0.00     0.118 C 
HETATM    2  C   UNL     1      40.736 -11.051   4.106  1.00  0.00     0.037 C 
ENDROOT
BRANCH   1   3
HETATM    3  C   UNL     1      42.467 -12.433   5.344  1.00  0.00     0.006 C 
HETATM    4  C   UNL     1      41.943 -13.671   4.774  1.00  0.00    -0.031 C 
HETATM    5  C   UNL     1      42.452 -14.788   5.411  1.00  0.00     0.017 C 
HETATM    6  C   UNL     1      40.997 -13.830   3.611  1.00  0.00     0.068 C 
HETATM    7  C   UNL     1      42.112 -16.203   5.087  1.00  0.00     0.281 C 
HETATM    8  S   UNL     1      43.531 -14.404   6.650  1.00  0.00    -0.074 SA
HETATM    9  N   UNL     1      41.545 -16.316   3.677  1.00  0.00    -0.067 N 
HETATM   10  H   UNL     1      41.084 -17.233   3.624  1.00  0.00     0.280 HD
HETATM   11  C   UNL     1      40.447 -15.265   3.487  1.00  0.00     0.240 C 
HETATM   12  C   UNL     1      43.446 -12.739   6.289  1.00  0.00     0.089 C 
BRANCH   9  13
HETATM   13  C   UNL     1      42.588 -16.277   2.580  1.00  0.00     0.231 C 
HETATM   14  C   UNL     1      43.287 -17.617   2.437  1.00  0.00     0.034 C 
ENDBRANCH   9  13
BRANCH  12  15
HETATM   15  N   UNL     1      44.378 -11.900   6.939  1.00  0.00    -0.327 N 
HETATM   16  C   UNL     1      45.559 -11.387   6.417  1.00  0.00     0.097 A 
HETATM   17  C   UNL     1      46.167 -10.571   7.345  1.00  0.00     0.019 A 
HETATM   18  C   UNL     1      45.332 -10.540   8.476  1.00  0.00     0.019 A 
HETATM   19  C   UNL     1      44.244 -11.338   8.199  1.00  0.00     0.097 A 
ENDBRANCH  12  15
ENDBRANCH   1   3
BRANCH   1  20
HETATM   20  N   UNL     1      41.777 -10.270   6.193  1.00  0.00    -0.334 N 
HETATM   21  C   UNL     1      41.643  -8.903   6.128  1.00  0.00     0.321 C 
HETATM   22  N   UNL     1      41.164  -8.308   7.262  1.00  0.00    -0.306 N 
HETATM   23  O   UNL     1      41.825  -8.251   5.107  1.00  0.00    -0.247 OA
HETATM   24  H   UNL     1      40.682  -7.428   7.092  1.00  0.00     0.171 HD
HETATM   25  H   UNL     1      41.119 -10.669   6.848  1.00  0.00     0.165 HD
BRANCH  22  26
HETATM   26  C   UNL     1      41.197  -8.736   8.603  1.00  0.00     0.071 A 
HETATM   27  C   UNL     1      40.048  -9.332   9.151  1.00  0.00     0.097 A 
HETATM   28  C   UNL     1      40.049  -9.755  10.487  1.00  0.00     0.077 A 
HETATM   29  C   UNL     1      41.192  -9.595  11.284  1.00  0.00     0.092 A 
HETATM   30  C   UNL     1      42.320  -8.972  10.731  1.00  0.00     0.069 A 
HETATM   31 CL   UNL     1      43.766  -8.708  11.648  1.00  0.00    -0.081 Cl
HETATM   32  C   UNL     1      42.317  -8.535   9.407  1.00  0.00     0.059 A 
BRANCH  27  33
HETATM   33  O   UNL     1      38.979  -9.456   8.298  1.00  0.00    -0.354 OA
HETATM   34  C   UNL     1      38.792 -10.736   7.700  1.00  0.00     0.210 C 
ENDBRANCH  27  33
BRANCH  29  35
HETATM   35  O   UNL     1      41.292  -9.993  12.590  1.00  0.00    -0.354 OA
HETATM   36  C   UNL     1      40.670  -9.185  13.582  1.00  0.00     0.210 C 
ENDBRANCH  29  35
ENDBRANCH  22  26
ENDBRANCH   1  20
TORSDOF 7
ENDMDL
MODEL 7
REMARK VINA RESULT:      -6.8      3.131      8.012
REMARK  7 active torsions:
REMARK  status: ('A' for Active; 'I' for Inactive)
REMARK    1  A    between atoms: C_2  and  N_3 
REMARK    2  A    between atoms: C_8  and  C_9 
REMARK    3  A    between atoms: C_9  and  N_10 
REMARK       I    between atoms: N_10  and  C_11 
REMARK       I    between atoms: C_11  and  N_12 
REMARK    4  A    between atoms: N_12  and  C_13 
REMARK    5  A    between atoms: C_14  and  O_15 
REMARK    6  A    between atoms: C_18  and  O_19 
REMARK    7  A    between atoms: C_26  and  N_27 
ROOT
HETATM    1  C   UNL     1      40.466 -14.648   4.997  1.00  0.00     0.118 C 
HETATM    2  C   UNL     1      39.821 -15.342   6.195  1.00  0.00     0.037 C 
ENDROOT
BRANCH   1   3
HETATM    3  C   UNL     1      41.582 -15.476   4.372  1.00  0.00     0.006 C 
HETATM    4  C   UNL     1      42.490 -16.348   5.112  1.00  0.00    -0.031 C 
HETATM    5  C   UNL     1      43.491 -16.855   4.305  1.00  0.00     0.017 C 
HETATM    6  C   UNL     1      42.414 -16.750   6.563  1.00  0.00     0.068 C 
HETATM    7  C   UNL     1      44.589 -17.761   4.747  1.00  0.00     0.281 C 
HETATM    8  S   UNL     1      43.375 -16.329   2.706  1.00  0.00    -0.074 SA
HETATM    9  N   UNL     1      44.217 -18.471   6.044  1.00  0.00    -0.067 N 
HETATM   10  H   UNL     1      45.093 -18.846   6.429  1.00  0.00     0.280 HD
HETATM   11  C   UNL     1      43.701 -17.442   7.054  1.00  0.00     0.240 C 
HETATM   12  C   UNL     1      41.911 -15.512   3.017  1.00  0.00     0.089 C 
BRANCH   9  13
HETATM   13  C   UNL     1      43.272 -19.641   5.865  1.00  0.00     0.231 C 
HETATM   14  C   UNL     1      43.972 -20.819   5.213  1.00  0.00     0.034 C 
ENDBRANCH   9  13
BRANCH  12  15
HETATM   15  N   UNL     1      41.206 -15.021   1.895  1.00  0.00    -0.327 N 
HETATM   16  C   UNL     1      41.465 -13.861   1.177  1.00  0.00     0.097 A 
HETATM   17  C   UNL     1      40.585 -13.756   0.123  1.00  0.00     0.019 A 
HETATM   18  C   UNL     1      39.765 -14.897   0.155  1.00  0.00     0.019 A 
HETATM   19  C   UNL     1      40.173 -15.659   1.227  1.00  0.00     0.097 A 
ENDBRANCH  12  15
ENDBRANCH   1   3
BRANCH   1  20
HETATM   20  N   UNL     1      41.005 -13.347   5.377  1.00  0.00    -0.334 N 
HETATM   21  C   UNL     1      40.554 -12.212   4.745  1.00  0.00     0.321 C 
HETATM   22  N   UNL     1      40.893 -11.033   5.349  1.00  0.00    -0.306 N 
HETATM   23  O   UNL     1      39.807 -12.227   3.773  1.00  0.00    -0.247 OA
HETATM   24  H   UNL     1      40.247 -10.271   5.154  1.00  0.00     0.171 HD
HETATM   25  H   UNL     1      41.115 -13.191   6.369  1.00  0.00     0.165 HD
BRANCH  22  26
HETATM   26  C   UNL     1      41.958 -10.723   6.216  1.00  0.00     0.071 A 
HETATM   27  C   UNL     1      41.709  -9.893   7.322  1.00  0.00     0.097 A 
HETATM   28  C   UNL     1      42.753  -9.558   8.194  1.00  0.00     0.077 A 
HETATM   29  C   UNL     1      44.049 -10.049   7.977  1.00  0.00     0.092 A 
HETATM   30  C   UNL     1      44.287 -10.852   6.852  1.00  0.00     0.069 A 
HETATM   31 CL   UNL     1      45.859 -11.482   6.490  1.00  0.00    -0.081 Cl
HETATM   32  C   UNL     1      43.254 -11.175   5.973  1.00  0.00     0.059 A 
BRANCH  27  33
HETATM   33  O   UNL     1      40.412  -9.464   7.463  1.00  0.00    -0.354 OA
HETATM   34  C   UNL     1      39.912  -9.388   8.795  1.00  0.00     0.210 C 
ENDBRANCH  27  33
BRANCH  29  35
HETATM   35  O   UNL     1      45.125  -9.791   8.782  1.00  0.00    -0.354 OA
HETATM   36  C   UNL     1      46.033  -8.774   8.376  1.00  0.00     0.210 C 
ENDBRANCH  29  35
ENDBRANCH  22  26
ENDBRANCH   1  20
TORSDOF 7
ENDMDL
MODEL 8
REMARK VINA RESULT:      -6.8      2.413      3.938
REMARK  7 active torsions:
REMARK  status: ('A' for Active; 'I' for Inactive)
REMARK    1  A    between atoms: C_2  and  N_3 
REMARK    2  A    between atoms: C_8  and  C_9 
REMARK    3  A    between atoms: C_9  and  N_10 
REMARK       I    between atoms: N_10  and  C_11 
REMARK       I    between atoms: C_11  and  N_12 
REMARK    4  A    between atoms: N_12  and  C_13 
REMARK    5  A    between atoms: C_14  and  O_15 
REMARK    6  A    between atoms: C_18  and  O_19 
REMARK    7  A    between atoms: C_26  and  N_27 
ROOT
HETATM    1  C   UNL     1      43.880  -9.609   9.279  1.00  0.00     0.118 C 
HETATM    2  C   UNL     1      44.848 -10.010  10.391  1.00  0.00     0.037 C 
ENDROOT
BRANCH   1   3
HETATM    3  C   UNL     1      42.465  -9.377   9.792  1.00  0.00     0.006 C 
HETATM    4  C   UNL     1      42.095  -9.261  11.200  1.00  0.00    -0.031 C 
HETATM    5  C   UNL     1      40.724  -9.203  11.370  1.00  0.00     0.017 C 
HETATM    6  C   UNL     1      43.009  -9.165  12.395  1.00  0.00     0.068 C 
HETATM    7  C   UNL     1      40.015  -9.100  12.677  1.00  0.00     0.281 C 
HETATM    8  S   UNL     1      39.878  -9.274   9.912  1.00  0.00    -0.074 SA
HETATM    9  N   UNL     1      40.945  -8.563  13.758  1.00  0.00    -0.067 N 
HETATM   10  H   UNL     1      40.496  -8.778  14.658  1.00  0.00     0.280 HD
HETATM   11  C   UNL     1      42.260  -9.348  13.730  1.00  0.00     0.240 C 
HETATM   12  C   UNL     1      41.320  -9.257   9.003  1.00  0.00     0.089 C 
BRANCH   9  13
HETATM   13  C   UNL     1      41.156  -7.065  13.713  1.00  0.00     0.231 C 
HETATM   14  C   UNL     1      42.019  -6.595  14.869  1.00  0.00     0.034 C 
ENDBRANCH   9  13
BRANCH  12  15
HETATM   15  N   UNL     1      41.191  -9.087   7.607  1.00  0.00    -0.327 N 
HETATM   16  C   UNL     1      41.730  -8.072   6.827  1.00  0.00     0.097 A 
HETATM   17  C   UNL     1      41.420  -8.282   5.502  1.00  0.00     0.019 A 
HETATM   18  C   UNL     1      40.689  -9.481   5.436  1.00  0.00     0.019 A 
HETATM   19  C   UNL     1      40.579  -9.961   6.722  1.00  0.00     0.097 A 
ENDBRANCH  12  15
ENDBRANCH   1   3
BRANCH   1  20
HETATM   20  N   UNL     1      43.839 -10.626   8.234  1.00  0.00    -0.334 N 
HETATM   21  C   UNL     1      44.895 -10.749   7.361  1.00  0.00     0.321 C 
HETATM   22  N   UNL     1      44.901 -11.892   6.610  1.00  0.00    -0.306 N 
HETATM   23  O   UNL     1      45.834  -9.963   7.317  1.00  0.00    -0.247 OA
HETATM   24  H   UNL     1      45.829 -12.178   6.308  1.00  0.00     0.171 HD
HETATM   25  H   UNL     1      43.494 -11.532   8.517  1.00  0.00     0.165 HD
BRANCH  22  26
HETATM   26  C   UNL     1      43.845 -12.741   6.228  1.00  0.00     0.071 A 
HETATM   27  C   UNL     1      43.072 -12.395   5.107  1.00  0.00     0.097 A 
HETATM   28  C   UNL     1      42.006 -13.216   4.713  1.00  0.00     0.077 A 
HETATM   29  C   UNL     1      41.707 -14.386   5.425  1.00  0.00     0.092 A 
HETATM   30  C   UNL     1      42.470 -14.702   6.559  1.00  0.00     0.069 A 
HETATM   31 CL   UNL     1      42.156 -16.112   7.514  1.00  0.00    -0.081 Cl
HETATM   32  C   UNL     1      43.521 -13.879   6.964  1.00  0.00     0.059 A 
BRANCH  27  33
HETATM   33  O   UNL     1      43.439 -11.238   4.466  1.00  0.00    -0.354 OA
HETATM   34  C   UNL     1      42.967 -11.079   3.130  1.00  0.00     0.210 C 
ENDBRANCH  27  33
BRANCH  29  35
HETATM   35  O   UNL     1      40.700 -15.257   5.105  1.00  0.00    -0.354 OA
HETATM   36  C   UNL     1      40.898 -16.129   4.000  1.00  0.00     0.210 C 
ENDBRANCH  29  35
ENDBRANCH  22  26
ENDBRANCH   1  20
TORSDOF 7
ENDMDL
MODEL 9
REMARK VINA RESULT:      -6.7     19.339     21.400
REMARK  7 active torsions:
REMARK  status: ('A' for Active; 'I' for Inactive)
REMARK    1  A    between atoms: C_2  and  N_3 
REMARK    2  A    between atoms: C_8  and  C_9 
REMARK    3  A    between atoms: C_9  and  N_10 
REMARK       I    between atoms: N_10  and  C_11 
REMARK       I    between atoms: C_11  and  N_12 
REMARK    4  A    between atoms: N_12  and  C_13 
REMARK    5  A    between atoms: C_14  and  O_15 
REMARK    6  A    between atoms: C_18  and  O_19 
REMARK    7  A    between atoms: C_26  and  N_27 
ROOT
HETATM    1  C   UNL     1      45.651 -29.408  -1.377  1.00  0.00     0.118 C 
HETATM    2  C   UNL     1      44.980 -28.061  -1.117  1.00  0.00     0.037 C 
ENDROOT
BRANCH   1   3
HETATM    3  C   UNL     1      44.727 -30.585  -1.094  1.00  0.00     0.006 C 
HETATM    4  C   UNL     1      44.255 -30.978   0.231  1.00  0.00    -0.031 C 
HETATM    5  C   UNL     1      43.554 -32.169   0.196  1.00  0.00     0.017 C 
HETATM    6  C   UNL     1      44.416 -30.233   1.531  1.00  0.00     0.068 C 
HETATM    7  C   UNL     1      42.952 -32.856   1.374  1.00  0.00     0.281 C 
HETATM    8  S   UNL     1      43.439 -32.819  -1.356  1.00  0.00    -0.074 SA
HETATM    9  N   UNL     1      42.751 -31.880   2.528  1.00  0.00    -0.067 N 
HETATM   10  H   UNL     1      42.605 -32.454   3.368  1.00  0.00     0.280 HD
HETATM   11  C   UNL     1      44.044 -31.093   2.756  1.00  0.00     0.240 C 
HETATM   12  C   UNL     1      44.213 -31.466  -2.046  1.00  0.00     0.089 C 
BRANCH   9  13
HETATM   13  C   UNL     1      41.538 -30.986   2.384  1.00  0.00     0.231 C 
HETATM   14  C   UNL     1      40.326 -31.771   1.916  1.00  0.00     0.034 C 
ENDBRANCH   9  13
BRANCH  12  15
HETATM   15  N   UNL     1      44.204 -31.379  -3.456  1.00  0.00    -0.327 N 
HETATM   16  C   UNL     1      44.296 -32.424  -4.367  1.00  0.00     0.097 A 
HETATM   17  C   UNL     1      44.202 -31.936  -5.651  1.00  0.00     0.019 A 
HETATM   18  C   UNL     1      44.012 -30.547  -5.552  1.00  0.00     0.019 A 
HETATM   19  C   UNL     1      43.998 -30.235  -4.211  1.00  0.00     0.097 A 
ENDBRANCH  12  15
ENDBRANCH   1   3
BRANCH   1  20
HETATM   20  N   UNL     1      46.857 -29.553  -0.569  1.00  0.00    -0.334 N 
HETATM   21  C   UNL     1      48.058 -29.082  -1.046  1.00  0.00     0.321 C 
HETATM   22  N   UNL     1      49.063 -29.002  -0.122  1.00  0.00    -0.306 N 
HETATM   23  O   UNL     1      48.215 -28.653  -2.183  1.00  0.00    -0.247 OA
HETATM   24  H   UNL     1      49.765 -28.300  -0.340  1.00  0.00     0.171 HD
HETATM   25  H   UNL     1      46.752 -29.351   0.415  1.00  0.00     0.165 HD
BRANCH  22  26
HETATM   26  C   UNL     1      49.252 -29.702   1.085  1.00  0.00     0.071 A 
HETATM   27  C   UNL     1      50.390 -30.515   1.222  1.00  0.00     0.097 A 
HETATM   28  C   UNL     1      50.598 -31.233   2.408  1.00  0.00     0.077 A 
HETATM   29  C   UNL     1      49.681 -31.143   3.465  1.00  0.00     0.092 A 
HETATM   30  C   UNL     1      48.535 -30.351   3.301  1.00  0.00     0.069 A 
HETATM   31 CL   UNL     1      47.336 -30.201   4.542  1.00  0.00    -0.081 Cl
HETATM   32  C   UNL     1      48.317 -29.647   2.117  1.00  0.00     0.059 A 
BRANCH  27  33
HETATM   33  O   UNL     1      51.238 -30.538   0.143  1.00  0.00    -0.354 OA
HETATM   34  C   UNL     1      51.479 -31.814  -0.445  1.00  0.00     0.210 C 
ENDBRANCH  27  33
BRANCH  29  35
HETATM   35  O   UNL     1      49.808 -31.792   4.664  1.00  0.00    -0.354 OA
HETATM   36  C   UNL     1      51.007 -31.597   5.403  1.00  0.00     0.210 C 
ENDBRANCH  29  35
ENDBRANCH  22  26
ENDBRANCH   1  20
TORSDOF 7
ENDMDL
MODEL 10
REMARK VINA RESULT:      -6.6      2.572      4.551
REMARK  7 active torsions:
REMARK  status: ('A' for Active; 'I' for Inactive)
REMARK    1  A    between atoms: C_2  and  N_3 
REMARK    2  A    between atoms: C_8  and  C_9 
REMARK    3  A    between atoms: C_9  and  N_10 
REMARK       I    between atoms: N_10  and  C_11 
REMARK       I    between atoms: C_11  and  N_12 
REMARK    4  A    between atoms: N_12  and  C_13 
REMARK    5  A    between atoms: C_14  and  O_15 
REMARK    6  A    between atoms: C_18  and  O_19 
REMARK    7  A    between atoms: C_26  and  N_27 
ROOT
HETATM    1  C   UNL     1      42.173  -8.377   7.921  1.00  0.00     0.118 C 
HETATM    2  C   UNL     1      43.585  -7.917   8.281  1.00  0.00     0.037 C 
ENDROOT
BRANCH   1   3
HETATM    3  C   UNL     1      41.262  -8.474   9.138  1.00  0.00     0.006 C 
HETATM    4  C   UNL     1      41.625  -9.102  10.405  1.00  0.00    -0.031 C 
HETATM    5  C   UNL     1      40.550  -9.173  11.272  1.00  0.00     0.017 C 
HETATM    6  C   UNL     1      42.979  -9.604  10.838  1.00  0.00     0.068 C 
HETATM    7  C   UNL     1      40.574  -9.769  12.638  1.00  0.00     0.281 C 
HETATM    8  S   UNL     1      39.138  -8.513  10.624  1.00  0.00    -0.074 SA
HETATM    9  N   UNL     1      41.998  -9.835  13.177  1.00  0.00    -0.067 N 
HETATM   10  H   UNL     1      41.977 -10.490  13.969  1.00  0.00     0.280 HD
HETATM   11  C   UNL     1      42.911 -10.462  12.118  1.00  0.00     0.240 C 
HETATM   12  C   UNL     1      39.953  -7.999   9.217  1.00  0.00     0.089 C 
BRANCH   9  13
HETATM   13  C   UNL     1      42.529  -8.517  13.701  1.00  0.00     0.231 C 
HETATM   14  C   UNL     1      41.831  -8.116  14.988  1.00  0.00     0.034 C 
ENDBRANCH   9  13
BRANCH  12  15
HETATM   15  N   UNL     1      39.240  -7.144   8.347  1.00  0.00    -0.327 N 
HETATM   16  C   UNL     1      38.931  -5.805   8.546  1.00  0.00     0.097 A 
HETATM   17  C   UNL     1      38.268  -5.308   7.447  1.00  0.00     0.019 A 
HETATM   18  C   UNL     1      38.183  -6.352   6.510  1.00  0.00     0.019 A 
HETATM   19  C   UNL     1      38.796  -7.450   7.070  1.00  0.00     0.097 A 
ENDBRANCH  12  15
ENDBRANCH   1   3
BRANCH   1  20
HETATM   20  N   UNL     1      42.203  -9.673   7.252  1.00  0.00    -0.334 N 
HETATM   21  C   UNL     1      41.926  -9.752   5.907  1.00  0.00     0.321 C 
HETATM   22  N   UNL     1      42.251 -10.940   5.313  1.00  0.00    -0.306 N 
HETATM   23  O   UNL     1      41.522  -8.806   5.241  1.00  0.00    -0.247 OA
HETATM   24  H   UNL     1      42.446 -10.860   4.318  1.00  0.00     0.171 HD
HETATM   25  H   UNL     1      42.973 -10.277   7.502  1.00  0.00     0.165 HD
BRANCH  22  26
HETATM   26  C   UNL     1      42.395 -12.228   5.863  1.00  0.00     0.071 A 
HETATM   27  C   UNL     1      43.662 -12.629   6.319  1.00  0.00     0.097 A 
HETATM   28  C   UNL     1      43.837 -13.911   6.859  1.00  0.00     0.077 A 
HETATM   29  C   UNL     1      42.755 -14.798   6.954  1.00  0.00     0.092 A 
HETATM   30  C   UNL     1      41.504 -14.392   6.466  1.00  0.00     0.069 A 
HETATM   31 CL   UNL     1      40.118 -15.430   6.519  1.00  0.00    -0.081 Cl
HETATM   32  C   UNL     1      41.329 -13.124   5.914  1.00  0.00     0.059 A 
BRANCH  27  33
HETATM   33  O   UNL     1      44.662 -11.697   6.195  1.00  0.00    -0.354 OA
HETATM   34  C   UNL     1      45.326 -11.317   7.398  1.00  0.00     0.210 C 
ENDBRANCH  27  33
BRANCH  29  35
HETATM   35  O   UNL     1      42.826 -16.060   7.481  1.00  0.00    -0.354 OA
HETATM   36  C   UNL     1      43.726 -16.983   6.881  1.00  0.00     0.210 C 
ENDBRANCH  29  35
ENDBRANCH  22  26
ENDBRANCH   1  20
TORSDOF 7
ENDMDL
