MODEL 1
REMARK VINA RESULT:      -8.8      0.000      0.000
REMARK  7 active torsions:
REMARK  status: ('A' for Active; 'I' for Inactive)
REMARK    1  A    between atoms: C_5  and  O_6 
REMARK    2  A    between atoms: O_6  and  C_7 
REMARK    3  A    between atoms: C_7  and  C_8 
REMARK       I    between atoms: C_8  and  N_9 
REMARK    4  A    between atoms: N_9  and  N_10 
REMARK       I    between atoms: N_10  and  C_11 
REMARK    5  A    between atoms: C_11  and  C_12 
REMARK    6  A    between atoms: C_14  and  C_15 
REMARK    7  A    between atoms: C_22  and  C_23 
ROOT
HETATM    1  N   UNL     1      42.372 -13.374   3.539  1.00  0.00    -0.262 N 
HETATM    2  C   UNL     1      41.666 -13.147   4.710  1.00  0.00     0.291 C 
HETATM    3  O   UNL     1      40.444 -13.118   4.786  1.00  0.00    -0.264 OA
HETATM    4  H   UNL     1      43.381 -13.504   3.597  1.00  0.00     0.190 HD
ENDROOT
BRANCH   2   5
HETATM    5  C   UNL     1      42.553 -12.908   5.836  1.00  0.00     0.159 A 
HETATM    6  N   UNL     1      42.793 -11.635   6.343  1.00  0.00    -0.216 NA
HETATM    7  C   UNL     1      43.665 -11.840   7.314  1.00  0.00     0.180 A 
HETATM    8  O   UNL     1      43.953 -13.160   7.536  1.00  0.00    -0.293 OA
HETATM    9  C   UNL     1      43.231 -13.840   6.594  1.00  0.00     0.094 A 
BRANCH   7  10
HETATM   10  C   UNL     1      44.360 -10.865   8.152  1.00  0.00     0.017 A 
HETATM   11  C   UNL     1      45.433 -10.132   7.622  1.00  0.00     0.016 A 
HETATM   12  C   UNL     1      46.132  -9.212   8.409  1.00  0.00     0.001 A 
HETATM   13  C   UNL     1      45.766  -9.012   9.738  1.00  0.00     0.000 A 
HETATM   14  C   UNL     1      44.700  -9.729  10.280  1.00  0.00     0.001 A 
HETATM   15  C   UNL     1      44.003 -10.649   9.492  1.00  0.00     0.016 A 
ENDBRANCH   7  10
BRANCH   9  16
HETATM   16  C   UNL     1      43.173 -15.352   6.481  1.00  0.00     0.046 A 
HETATM   17  C   UNL     1      43.318 -16.173   7.744  1.00  0.00     0.012 A 
HETATM   18  C   UNL     1      41.980 -16.052   7.101  1.00  0.00     0.012 A 
ENDBRANCH   9  16
ENDBRANCH   2   5
BRANCH   1  19
HETATM   19  N   UNL     1      41.721 -13.693   2.349  1.00  0.00    -0.265 N 
HETATM   20  C   UNL     1      42.030 -14.764   1.544  1.00  0.00     0.260 C 
HETATM   21  O   UNL     1      41.329 -14.981   0.551  1.00  0.00    -0.269 OA
HETATM   22  H   UNL     1      40.978 -13.081   2.028  1.00  0.00     0.190 HD
BRANCH  20  23
HETATM   23  C   UNL     1      43.226 -15.648   1.893  1.00  0.00     0.280 C 
BRANCH  23  24
HETATM   24  O   UNL     1      42.883 -16.979   1.523  1.00  0.00    -0.342 OA
BRANCH  24  25
HETATM   25  C   UNL     1      43.234 -17.989   2.372  1.00  0.00     0.069 A 
HETATM   26  C   UNL     1      43.567 -17.573   3.662  1.00  0.00     0.037 A 
HETATM   27  C   UNL     1      43.944 -18.499   4.636  1.00  0.00     0.009 A 
HETATM   28  C   UNL     1      44.008 -19.860   4.325  1.00  0.00    -0.062 A 
HETATM   29  C   UNL     1      44.377 -20.861   5.379  1.00  0.00     0.048 C 
HETATM   30  C   UNL     1      43.671 -20.275   3.031  1.00  0.00     0.009 A 
HETATM   31  C   UNL     1      43.297 -19.344   2.054  1.00  0.00     0.037 A 
ENDBRANCH  24  25
ENDBRANCH  23  24
ENDBRANCH  20  23
ENDBRANCH   1  19
TORSDOF 7
ENDMDL
MODEL 2
REMARK VINA RESULT:      -8.6      3.325      6.723
REMARK  7 active torsions:
REMARK  status: ('A' for Active; 'I' for Inactive)
REMARK    1  A    between atoms: C_5  and  O_6 
REMARK    2  A    between atoms: O_6  and  C_7 
REMARK    3  A    between atoms: C_7  and  C_8 
REMARK       I    between atoms: C_8  and  N_9 
REMARK    4  A    between atoms: N_9  and  N_10 
REMARK       I    between atoms: N_10  and  C_11 
REMARK    5  A    between atoms: C_11  and  C_12 
REMARK    6  A    between atoms: C_14  and  C_15 
REMARK    7  A    between atoms: C_22  and  C_23 
ROOT
HETATM    1  N   UNL     1      42.053 -13.575   5.911  1.00  0.00    -0.262 N 
HETATM    2  C   UNL     1      40.698 -13.438   5.654  1.00  0.00     0.291 C 
HETATM    3  O   UNL     1      39.811 -13.725   6.448  1.00  0.00    -0.264 OA
HETATM    4  H   UNL     1      42.716 -13.193   5.237  1.00  0.00     0.190 HD
ENDROOT
BRANCH   2   5
HETATM    5  C   UNL     1      40.451 -12.946   4.308  1.00  0.00     0.159 A 
HETATM    6  N   UNL     1      40.447 -13.781   3.196  1.00  0.00    -0.216 NA
HETATM    7  C   UNL     1      40.229 -12.959   2.184  1.00  0.00     0.180 A 
HETATM    8  O   UNL     1      40.007 -11.661   2.558  1.00  0.00    -0.293 OA
HETATM    9  C   UNL     1      40.140 -11.659   3.920  1.00  0.00     0.094 A 
BRANCH   7  10
HETATM   10  C   UNL     1      40.210 -13.243   0.751  1.00  0.00     0.017 A 
HETATM   11  C   UNL     1      40.607 -12.251  -0.160  1.00  0.00     0.016 A 
HETATM   12  C   UNL     1      40.573 -12.487  -1.537  1.00  0.00     0.001 A 
HETATM   13  C   UNL     1      40.144 -13.720  -2.023  1.00  0.00     0.000 A 
HETATM   14  C   UNL     1      39.749 -14.717  -1.133  1.00  0.00     0.001 A 
HETATM   15  C   UNL     1      39.782 -14.480   0.244  1.00  0.00     0.016 A 
ENDBRANCH   7  10
BRANCH   9  16
HETATM   16  C   UNL     1      39.919 -10.447   4.805  1.00  0.00     0.046 A 
HETATM   17  C   UNL     1      39.303  -9.210   4.188  1.00  0.00     0.012 A 
HETATM   18  C   UNL     1      38.486 -10.054   5.102  1.00  0.00     0.012 A 
ENDBRANCH   9  16
ENDBRANCH   2   5
BRANCH   1  19
HETATM   19  N   UNL     1      42.519 -13.966   7.163  1.00  0.00    -0.265 N 
HETATM   20  C   UNL     1      42.786 -15.263   7.536  1.00  0.00     0.260 C 
HETATM   21  O   UNL     1      43.265 -15.471   8.655  1.00  0.00    -0.269 OA
HETATM   22  H   UNL     1      42.649 -13.252   7.873  1.00  0.00     0.190 HD
BRANCH  20  23
HETATM   23  C   UNL     1      42.481 -16.403   6.566  1.00  0.00     0.280 C 
BRANCH  23  24
HETATM   24  O   UNL     1      43.136 -16.093   5.341  1.00  0.00    -0.342 OA
BRANCH  24  25
HETATM   25  C   UNL     1      43.239 -17.080   4.404  1.00  0.00     0.069 A 
HETATM   26  C   UNL     1      43.914 -18.223   4.837  1.00  0.00     0.037 A 
HETATM   27  C   UNL     1      44.093 -19.314   3.985  1.00  0.00     0.009 A 
HETATM   28  C   UNL     1      43.609 -19.268   2.675  1.00  0.00    -0.062 A 
HETATM   29  C   UNL     1      43.767 -20.452   1.768  1.00  0.00     0.048 C 
HETATM   30  C   UNL     1      42.929 -18.123   2.243  1.00  0.00     0.009 A 
HETATM   31  C   UNL     1      42.756 -17.027   3.099  1.00  0.00     0.037 A 
ENDBRANCH  24  25
ENDBRANCH  23  24
ENDBRANCH  20  23
ENDBRANCH   1  19
TORSDOF 7
ENDMDL
MODEL 3
REMARK VINA RESULT:      -8.5      2.054      3.084
REMARK  7 active torsions:
REMARK  status: ('A' for Active; 'I' for Inactive)
REMARK    1  A    between atoms: C_5  and  O_6 
REMARK    2  A    between atoms: O_6  and  C_7 
REMARK    3  A    between atoms: C_7  and  C_8 
REMARK       I    between atoms: C_8  and  N_9 
REMARK    4  A    between atoms: N_9  and  N_10 
REMARK       I    between atoms: N_10  and  C_11 
REMARK    5  A    between atoms: C_11  and  C_12 
REMARK    6  A    between atoms: C_14  and  C_15 
REMARK    7  A    between atoms: C_22  and  C_23 
ROOT
HETATM    1  N   UNL     1      40.268 -13.439   3.871  1.00  0.00    -0.262 N 
HETATM    2  C   UNL     1      40.551 -13.617   5.216  1.00  0.00     0.291 C 
HETATM    3  O   UNL     1      40.275 -14.627   5.852  1.00  0.00    -0.264 OA
HETATM    4  H   UNL     1      40.647 -12.619   3.400  1.00  0.00     0.190 HD
ENDROOT
BRANCH   2   5
HETATM    5  C   UNL     1      41.182 -12.443   5.794  1.00  0.00     0.159 A 
HETATM    6  N   UNL     1      42.546 -12.381   6.060  1.00  0.00    -0.216 NA
HETATM    7  C   UNL     1      42.708 -11.189   6.606  1.00  0.00     0.180 A 
HETATM    8  O   UNL     1      41.568 -10.432   6.643  1.00  0.00    -0.293 OA
HETATM    9  C   UNL     1      40.596 -11.235   6.113  1.00  0.00     0.094 A 
BRANCH   7  10
HETATM   10  C   UNL     1      43.913 -10.591   7.177  1.00  0.00     0.017 A 
HETATM   11  C   UNL     1      43.820  -9.381   7.885  1.00  0.00     0.016 A 
HETATM   12  C   UNL     1      44.960  -8.774   8.420  1.00  0.00     0.001 A 
HETATM   13  C   UNL     1      46.209  -9.368   8.256  1.00  0.00     0.000 A 
HETATM   14  C   UNL     1      46.319 -10.571   7.559  1.00  0.00     0.001 A 
HETATM   15  C   UNL     1      45.179 -11.177   7.024  1.00  0.00     0.016 A 
ENDBRANCH   7  10
BRANCH   9  16
HETATM   16  C   UNL     1      39.158 -10.809   5.883  1.00  0.00     0.046 A 
HETATM   17  C   UNL     1      38.833  -9.331   5.912  1.00  0.00     0.012 A 
HETATM   18  C   UNL     1      38.852 -10.049   4.608  1.00  0.00     0.012 A 
ENDBRANCH   9  16
ENDBRANCH   2   5
BRANCH   1  19
HETATM   19  N   UNL     1      39.724 -14.464   3.101  1.00  0.00    -0.265 N 
HETATM   20  C   UNL     1      40.348 -15.064   2.032  1.00  0.00     0.260 C 
HETATM   21  O   UNL     1      39.788 -16.014   1.476  1.00  0.00    -0.269 OA
HETATM   22  H   UNL     1      38.785 -14.783   3.318  1.00  0.00     0.190 HD
BRANCH  20  23
HETATM   23  C   UNL     1      41.704 -14.542   1.561  1.00  0.00     0.280 C 
BRANCH  23  24
HETATM   24  O   UNL     1      42.596 -14.644   2.666  1.00  0.00    -0.342 OA
BRANCH  24  25
HETATM   25  C   UNL     1      43.010 -15.890   3.039  1.00  0.00     0.069 A 
HETATM   26  C   UNL     1      43.246 -16.037   4.407  1.00  0.00     0.037 A 
HETATM   27  C   UNL     1      43.673 -17.259   4.931  1.00  0.00     0.009 A 
HETATM   28  C   UNL     1      43.885 -18.351   4.085  1.00  0.00    -0.062 A 
HETATM   29  C   UNL     1      44.308 -19.674   4.649  1.00  0.00     0.048 C 
HETATM   30  C   UNL     1      43.645 -18.202   2.714  1.00  0.00     0.009 A 
HETATM   31  C   UNL     1      43.221 -16.973   2.190  1.00  0.00     0.037 A 
ENDBRANCH  24  25
ENDBRANCH  23  24
ENDBRANCH  20  23
ENDBRANCH   1  19
TORSDOF 7
ENDMDL
MODEL 4
REMARK VINA RESULT:      -8.4      2.394      7.054
REMARK  7 active torsions:
REMARK  status: ('A' for Active; 'I' for Inactive)
REMARK    1  A    between atoms: C_5  and  O_6 
REMARK    2  A    between atoms: O_6  and  C_7 
REMARK    3  A    between atoms: C_7  and  C_8 
REMARK       I    between atoms: C_8  and  N_9 
REMARK    4  A    between atoms: N_9  and  N_10 
REMARK       I    between atoms: N_10  and  C_11 
REMARK    5  A    between atoms: C_11  and  C_12 
REMARK    6  A    between atoms: C_14  and  C_15 
REMARK    7  A    between atoms: C_22  and  C_23 
ROOT
HETATM    1  N   UNL     1      41.660 -12.019   3.356  1.00  0.00    -0.262 N 
HETATM    2  C   UNL     1      42.870 -12.583   2.983  1.00  0.00     0.291 C 
HETATM    3  O   UNL     1      43.935 -11.980   2.956  1.00  0.00    -0.264 OA
HETATM    4  H   UNL     1      40.853 -12.631   3.468  1.00  0.00     0.190 HD
ENDROOT
BRANCH   2   5
HETATM    5  C   UNL     1      42.717 -13.974   2.589  1.00  0.00     0.159 A 
HETATM    6  N   UNL     1      43.234 -15.025   3.340  1.00  0.00    -0.216 NA
HETATM    7  C   UNL     1      42.922 -16.099   2.636  1.00  0.00     0.180 A 
HETATM    8  O   UNL     1      42.168 -15.839   1.524  1.00  0.00    -0.293 OA
HETATM    9  C   UNL     1      42.031 -14.477   1.504  1.00  0.00     0.094 A 
BRANCH   7  10
HETATM   10  C   UNL     1      43.280 -17.496   2.875  1.00  0.00     0.017 A 
HETATM   11  C   UNL     1      42.819 -18.491   1.998  1.00  0.00     0.016 A 
HETATM   12  C   UNL     1      43.125 -19.837   2.217  1.00  0.00     0.001 A 
HETATM   13  C   UNL     1      43.899 -20.207   3.315  1.00  0.00     0.000 A 
HETATM   14  C   UNL     1      44.368 -19.232   4.193  1.00  0.00     0.001 A 
HETATM   15  C   UNL     1      44.061 -17.886   3.974  1.00  0.00     0.016 A 
ENDBRANCH   7  10
BRANCH   9  16
HETATM   16  C   UNL     1      41.212 -13.710   0.482  1.00  0.00     0.046 A 
HETATM   17  C   UNL     1      40.167 -14.462  -0.313  1.00  0.00     0.012 A 
HETATM   18  C   UNL     1      39.734 -13.532   0.766  1.00  0.00     0.012 A 
ENDBRANCH   9  16
ENDBRANCH   2   5
BRANCH   1  19
HETATM   19  N   UNL     1      41.585 -10.714   3.836  1.00  0.00    -0.265 N 
HETATM   20  C   UNL     1      41.916 -10.321   5.112  1.00  0.00     0.260 C 
HETATM   21  O   UNL     1      41.875  -9.120   5.392  1.00  0.00    -0.269 OA
HETATM   22  H   UNL     1      41.235  -9.991   3.214  1.00  0.00     0.190 HD
BRANCH  20  23
HETATM   23  C   UNL     1      42.318 -11.375   6.142  1.00  0.00     0.280 C 
BRANCH  23  24
HETATM   24  O   UNL     1      41.318 -12.388   6.114  1.00  0.00    -0.342 OA
BRANCH  24  25
HETATM   25  C   UNL     1      41.704 -13.673   6.362  1.00  0.00     0.069 A 
HETATM   26  C   UNL     1      43.044 -13.817   6.729  1.00  0.00     0.037 A 
HETATM   27  C   UNL     1      43.575 -15.075   7.014  1.00  0.00     0.009 A 
HETATM   28  C   UNL     1      42.773 -16.215   6.920  1.00  0.00    -0.062 A 
HETATM   29  C   UNL     1      43.331 -17.565   7.261  1.00  0.00     0.048 C 
HETATM   30  C   UNL     1      41.429 -16.069   6.555  1.00  0.00     0.009 A 
HETATM   31  C   UNL     1      40.899 -14.805   6.264  1.00  0.00     0.037 A 
ENDBRANCH  24  25
ENDBRANCH  23  24
ENDBRANCH  20  23
ENDBRANCH   1  19
TORSDOF 7
ENDMDL
MODEL 5
REMARK VINA RESULT:      -8.4      2.401      7.448
REMARK  7 active torsions:
REMARK  status: ('A' for Active; 'I' for Inactive)
REMARK    1  A    between atoms: C_5  and  O_6 
REMARK    2  A    between atoms: O_6  and  C_7 
REMARK    3  A    between atoms: C_7  and  C_8 
REMARK       I    between atoms: C_8  and  N_9 
REMARK    4  A    between atoms: N_9  and  N_10 
REMARK       I    between atoms: N_10  and  C_11 
REMARK    5  A    between atoms: C_11  and  C_12 
REMARK    6  A    between atoms: C_14  and  C_15 
REMARK    7  A    between atoms: C_22  and  C_23 
ROOT
HETATM    1  N   UNL     1      41.783 -13.617   0.966  1.00  0.00    -0.262 N 
HETATM    2  C   UNL     1      40.901 -14.347   1.747  1.00  0.00     0.291 C 
HETATM    3  O   UNL     1      39.687 -14.188   1.752  1.00  0.00    -0.264 OA
HETATM    4  H   UNL     1      42.760 -13.906   0.936  1.00  0.00     0.190 HD
ENDROOT
BRANCH   2   5
HETATM    5  C   UNL     1      41.596 -15.303   2.594  1.00  0.00     0.159 A 
HETATM    6  N   UNL     1      42.088 -16.511   2.111  1.00  0.00    -0.216 NA
HETATM    7  C   UNL     1      42.602 -17.093   3.180  1.00  0.00     0.180 A 
HETATM    8  O   UNL     1      42.559 -16.322   4.310  1.00  0.00    -0.293 OA
HETATM    9  C   UNL     1      41.923 -15.173   3.928  1.00  0.00     0.094 A 
BRANCH   7  10
HETATM   10  C   UNL     1      43.184 -18.426   3.315  1.00  0.00     0.017 A 
HETATM   11  C   UNL     1      43.158 -19.310   2.224  1.00  0.00     0.016 A 
HETATM   12  C   UNL     1      43.684 -20.601   2.334  1.00  0.00     0.001 A 
HETATM   13  C   UNL     1      44.246 -21.024   3.536  1.00  0.00     0.000 A 
HETATM   14  C   UNL     1      44.284 -20.159   4.628  1.00  0.00     0.001 A 
HETATM   15  C   UNL     1      43.757 -18.869   4.518  1.00  0.00     0.016 A 
ENDBRANCH   7  10
BRANCH   9  16
HETATM   16  C   UNL     1      41.693 -13.975   4.831  1.00  0.00     0.046 A 
HETATM   17  C   UNL     1      40.268 -13.586   5.159  1.00  0.00     0.012 A 
HETATM   18  C   UNL     1      41.105 -14.240   6.202  1.00  0.00     0.012 A 
ENDBRANCH   9  16
ENDBRANCH   2   5
BRANCH   1  19
HETATM   19  N   UNL     1      41.328 -12.692   0.029  1.00  0.00    -0.265 N 
HETATM   20  C   UNL     1      41.029 -11.376   0.300  1.00  0.00     0.260 C 
HETATM   21  O   UNL     1      40.704 -10.639  -0.635  1.00  0.00    -0.269 OA
HETATM   22  H   UNL     1      41.176 -13.007  -0.924  1.00  0.00     0.190 HD
BRANCH  20  23
HETATM   23  C   UNL     1      41.102 -10.869   1.739  1.00  0.00     0.280 C 
BRANCH  23  24
HETATM   24  O   UNL     1      42.478 -10.853   2.105  1.00  0.00    -0.342 OA
BRANCH  24  25
HETATM   25  C   UNL     1      42.785 -10.877   3.434  1.00  0.00     0.069 A 
HETATM   26  C   UNL     1      43.951 -11.577   3.747  1.00  0.00     0.037 A 
HETATM   27  C   UNL     1      44.389 -11.682   5.069  1.00  0.00     0.009 A 
HETATM   28  C   UNL     1      43.651 -11.097   6.102  1.00  0.00    -0.062 A 
HETATM   29  C   UNL     1      44.138 -11.177   7.518  1.00  0.00     0.048 C 
HETATM   30  C   UNL     1      42.483 -10.393   5.786  1.00  0.00     0.009 A 
HETATM   31  C   UNL     1      42.044 -10.293   4.459  1.00  0.00     0.037 A 
ENDBRANCH  24  25
ENDBRANCH  23  24
ENDBRANCH  20  23
ENDBRANCH   1  19
TORSDOF 7
ENDMDL
MODEL 6
REMARK VINA RESULT:      -8.3      3.155      7.233
REMARK  7 active torsions:
REMARK  status: ('A' for Active; 'I' for Inactive)
REMARK    1  A    between atoms: C_5  and  O_6 
REMARK    2  A    between atoms: O_6  and  C_7 
REMARK    3  A    between atoms: C_7  and  C_8 
REMARK       I    between atoms: C_8  and  N_9 
REMARK    4  A    between atoms: N_9  and  N_10 
REMARK       I    between atoms: N_10  and  C_11 
REMARK    5  A    between atoms: C_11  and  C_12 
REMARK    6  A    between atoms: C_14  and  C_15 
REMARK    7  A    between atoms: C_22  and  C_23 
ROOT
HETATM    1  N   UNL     1      40.285 -11.878   4.124  1.00  0.00    -0.262 N 
HETATM    2  C   UNL     1      40.211 -12.868   5.091  1.00  0.00     0.291 C 
HETATM    3  O   UNL     1      39.330 -12.943   5.939  1.00  0.00    -0.264 OA
HETATM    4  H   UNL     1      40.981 -11.970   3.386  1.00  0.00     0.190 HD
ENDROOT
BRANCH   2   5
HETATM    5  C   UNL     1      41.329 -13.792   5.002  1.00  0.00     0.159 A 
HETATM    6  N   UNL     1      41.294 -14.937   4.213  1.00  0.00    -0.216 NA
HETATM    7  C   UNL     1      42.463 -15.511   4.436  1.00  0.00     0.180 A 
HETATM    8  O   UNL     1      43.295 -14.788   5.248  1.00  0.00    -0.293 OA
HETATM    9  C   UNL     1      42.568 -13.683   5.600  1.00  0.00     0.094 A 
BRANCH   7  10
HETATM   10  C   UNL     1      42.968 -16.795   3.954  1.00  0.00     0.017 A 
HETATM   11  C   UNL     1      43.892 -17.514   4.730  1.00  0.00     0.016 A 
HETATM   12  C   UNL     1      44.411 -18.732   4.282  1.00  0.00     0.001 A 
HETATM   13  C   UNL     1      44.012 -19.249   3.052  1.00  0.00     0.000 A 
HETATM   14  C   UNL     1      43.093 -18.551   2.270  1.00  0.00     0.001 A 
HETATM   15  C   UNL     1      42.575 -17.333   2.719  1.00  0.00     0.016 A 
ENDBRANCH   7  10
BRANCH   9  16
HETATM   16  C   UNL     1      43.095 -12.542   6.450  1.00  0.00     0.046 A 
HETATM   17  C   UNL     1      44.587 -12.448   6.682  1.00  0.00     0.012 A 
HETATM   18  C   UNL     1      43.931 -11.485   5.755  1.00  0.00     0.012 A 
ENDBRANCH   9  16
ENDBRANCH   2   5
BRANCH   1  19
HETATM   19  N   UNL     1      39.278 -10.925   3.983  1.00  0.00    -0.265 N 
HETATM   20  C   UNL     1      38.897 -10.351   2.792  1.00  0.00     0.260 C 
HETATM   21  O   UNL     1      37.940  -9.572   2.790  1.00  0.00    -0.269 OA
HETATM   22  H   UNL     1      38.800 -10.602   4.818  1.00  0.00     0.190 HD
BRANCH  20  23
HETATM   23  C   UNL     1      39.664 -10.688   1.515  1.00  0.00     0.280 C 
BRANCH  23  24
HETATM   24  O   UNL     1      39.672 -12.106   1.395  1.00  0.00    -0.342 OA
BRANCH  24  25
HETATM   25  C   UNL     1      39.267 -12.649   0.210  1.00  0.00     0.069 A 
HETATM   26  C   UNL     1      39.860 -13.874  -0.099  1.00  0.00     0.037 A 
HETATM   27  C   UNL     1      39.538 -14.547  -1.279  1.00  0.00     0.009 A 
HETATM   28  C   UNL     1      38.623 -13.991  -2.178  1.00  0.00    -0.062 A 
HETATM   29  C   UNL     1      38.247 -14.727  -3.428  1.00  0.00     0.048 C 
HETATM   30  C   UNL     1      38.027 -12.763  -1.864  1.00  0.00     0.009 A 
HETATM   31  C   UNL     1      38.355 -12.088  -0.681  1.00  0.00     0.037 A 
ENDBRANCH  24  25
ENDBRANCH  23  24
ENDBRANCH  20  23
ENDBRANCH   1  19
TORSDOF 7
ENDMDL
MODEL 7
REMARK VINA RESULT:      -8.3      2.424      4.046
REMARK  7 active torsions:
REMARK  status: ('A' for Active; 'I' for Inactive)
REMARK    1  A    between atoms: C_5  and  O_6 
REMARK    2  A    between atoms: O_6  and  C_7 
REMARK    3  A    between atoms: C_7  and  C_8 
REMARK       I    between atoms: C_8  and  N_9 
REMARK    4  A    between atoms: N_9  and  N_10 
REMARK       I    between atoms: N_10  and  C_11 
REMARK    5  A    between atoms: C_11  and  C_12 
REMARK    6  A    between atoms: C_14  and  C_15 
REMARK    7  A    between atoms: C_22  and  C_23 
ROOT
HETATM    1  N   UNL     1      41.474 -11.641   6.594  1.00  0.00    -0.262 N 
HETATM    2  C   UNL     1      42.137 -10.428   6.495  1.00  0.00     0.291 C 
HETATM    3  O   UNL     1      42.241  -9.779   5.461  1.00  0.00    -0.264 OA
HETATM    4  H   UNL     1      41.333 -12.043   7.520  1.00  0.00     0.190 HD
ENDROOT
BRANCH   2   5
HETATM    5  C   UNL     1      42.732 -10.034   7.761  1.00  0.00     0.159 A 
HETATM    6  N   UNL     1      42.071  -9.223   8.678  1.00  0.00    -0.216 NA
HETATM    7  C   UNL     1      42.948  -9.070   9.654  1.00  0.00     0.180 A 
HETATM    8  O   UNL     1      44.101  -9.788   9.487  1.00  0.00    -0.293 OA
HETATM    9  C   UNL     1      43.954 -10.411   8.277  1.00  0.00     0.094 A 
BRANCH   7  10
HETATM   10  C   UNL     1      42.857  -8.244  10.856  1.00  0.00     0.017 A 
HETATM   11  C   UNL     1      43.362  -8.729  12.073  1.00  0.00     0.016 A 
HETATM   12  C   UNL     1      43.266  -7.970  13.243  1.00  0.00     0.001 A 
HETATM   13  C   UNL     1      42.664  -6.715  13.212  1.00  0.00     0.000 A 
HETATM   14  C   UNL     1      42.159  -6.216  12.012  1.00  0.00     0.001 A 
HETATM   15  C   UNL     1      42.255  -6.975  10.843  1.00  0.00     0.016 A 
ENDBRANCH   7  10
BRANCH   9  16
HETATM   16  C   UNL     1      44.958 -11.380   7.681  1.00  0.00     0.046 A 
HETATM   17  C   UNL     1      45.417 -11.152   6.257  1.00  0.00     0.012 A 
HETATM   18  C   UNL     1      46.345 -10.848   7.381  1.00  0.00     0.012 A 
ENDBRANCH   9  16
ENDBRANCH   2   5
BRANCH   1  19
HETATM   19  N   UNL     1      40.772 -12.175   5.516  1.00  0.00    -0.265 N 
HETATM   20  C   UNL     1      40.999 -13.413   4.962  1.00  0.00     0.260 C 
HETATM   21  O   UNL     1      40.258 -13.801   4.054  1.00  0.00    -0.269 OA
HETATM   22  H   UNL     1      40.053 -11.606   5.080  1.00  0.00     0.190 HD
BRANCH  20  23
HETATM   23  C   UNL     1      42.156 -14.268   5.477  1.00  0.00     0.280 C 
BRANCH  23  24
HETATM   24  O   UNL     1      43.018 -14.511   4.371  1.00  0.00    -0.342 OA
BRANCH  24  25
HETATM   25  C   UNL     1      43.230 -15.807   4.000  1.00  0.00     0.069 A 
HETATM   26  C   UNL     1      42.771 -16.126   2.720  1.00  0.00     0.037 A 
HETATM   27  C   UNL     1      42.923 -17.416   2.208  1.00  0.00     0.009 A 
HETATM   28  C   UNL     1      43.526 -18.413   2.980  1.00  0.00    -0.062 A 
HETATM   29  C   UNL     1      43.723 -19.789   2.419  1.00  0.00     0.048 C 
HETATM   30  C   UNL     1      43.988 -18.090   4.262  1.00  0.00     0.009 A 
HETATM   31  C   UNL     1      43.830 -16.796   4.775  1.00  0.00     0.037 A 
ENDBRANCH  24  25
ENDBRANCH  23  24
ENDBRANCH  20  23
ENDBRANCH   1  19
TORSDOF 7
ENDMDL
MODEL 8
REMARK VINA RESULT:      -8.2      2.431      5.947
REMARK  7 active torsions:
REMARK  status: ('A' for Active; 'I' for Inactive)
REMARK    1  A    between atoms: C_5  and  O_6 
REMARK    2  A    between atoms: O_6  and  C_7 
REMARK    3  A    between atoms: C_7  and  C_8 
REMARK       I    between atoms: C_8  and  N_9 
REMARK    4  A    between atoms: N_9  and  N_10 
REMARK       I    between atoms: N_10  and  C_11 
REMARK    5  A    between atoms: C_11  and  C_12 
REMARK    6  A    between atoms: C_14  and  C_15 
REMARK    7  A    between atoms: C_22  and  C_23 
ROOT
HETATM    1  N   UNL     1      40.608 -11.772   4.920  1.00  0.00    -0.262 N 
HETATM    2  C   UNL     1      40.448 -12.768   5.869  1.00  0.00     0.291 C 
HETATM    3  O   UNL     1      39.492 -12.851   6.631  1.00  0.00    -0.264 OA
HETATM    4  H   UNL     1      41.370 -11.857   4.249  1.00  0.00     0.190 HD
ENDROOT
BRANCH   2   5
HETATM    5  C   UNL     1      41.574 -13.688   5.880  1.00  0.00     0.159 A 
HETATM    6  N   UNL     1      41.470 -15.003   5.438  1.00  0.00    -0.216 NA
HETATM    7  C   UNL     1      42.675 -15.502   5.646  1.00  0.00     0.180 A 
HETATM    8  O   UNL     1      43.584 -14.591   6.113  1.00  0.00    -0.293 OA
HETATM    9  C   UNL     1      42.877 -13.429   6.252  1.00  0.00     0.094 A 
BRANCH   7  10
HETATM   10  C   UNL     1      43.153 -16.871   5.461  1.00  0.00     0.017 A 
HETATM   11  C   UNL     1      42.965 -17.816   6.482  1.00  0.00     0.016 A 
HETATM   12  C   UNL     1      43.434 -19.126   6.343  1.00  0.00     0.001 A 
HETATM   13  C   UNL     1      44.096 -19.509   5.179  1.00  0.00     0.000 A 
HETATM   14  C   UNL     1      44.288 -18.584   4.154  1.00  0.00     0.001 A 
HETATM   15  C   UNL     1      43.820 -17.275   4.294  1.00  0.00     0.016 A 
ENDBRANCH   7  10
BRANCH   9  16
HETATM   16  C   UNL     1      43.475 -12.103   6.686  1.00  0.00     0.046 A 
HETATM   17  C   UNL     1      44.981 -11.989   6.771  1.00  0.00     0.012 A 
HETATM   18  C   UNL     1      44.260 -11.322   5.652  1.00  0.00     0.012 A 
ENDBRANCH   9  16
ENDBRANCH   2   5
BRANCH   1  19
HETATM   19  N   UNL     1      39.616 -10.822   4.690  1.00  0.00    -0.265 N 
HETATM   20  C   UNL     1      38.941 -10.656   3.503  1.00  0.00     0.260 C 
HETATM   21  O   UNL     1      38.030  -9.825   3.450  1.00  0.00    -0.269 OA
HETATM   22  H   UNL     1      39.382 -10.178   5.440  1.00  0.00     0.190 HD
BRANCH  20  23
HETATM   23  C   UNL     1      39.336 -11.496   2.289  1.00  0.00     0.280 C 
BRANCH  23  24
HETATM   24  O   UNL     1      39.063 -12.854   2.617  1.00  0.00    -0.342 OA
BRANCH  24  25
HETATM   25  C   UNL     1      40.006 -13.789   2.302  1.00  0.00     0.069 A 
HETATM   26  C   UNL     1      41.263 -13.264   1.994  1.00  0.00     0.037 A 
HETATM   27  C   UNL     1      42.325 -14.105   1.655  1.00  0.00     0.009 A 
HETATM   28  C   UNL     1      42.137 -15.489   1.605  1.00  0.00    -0.062 A 
HETATM   29  C   UNL     1      43.285 -16.397   1.277  1.00  0.00     0.048 C 
HETATM   30  C   UNL     1      40.877 -16.013   1.917  1.00  0.00     0.009 A 
HETATM   31  C   UNL     1      39.812 -15.168   2.252  1.00  0.00     0.037 A 
ENDBRANCH  24  25
ENDBRANCH  23  24
ENDBRANCH  20  23
ENDBRANCH   1  19
TORSDOF 7
ENDMDL
MODEL 9
REMARK VINA RESULT:      -8.2      3.326      7.542
REMARK  7 active torsions:
REMARK  status: ('A' for Active; 'I' for Inactive)
REMARK    1  A    between atoms: C_5  and  O_6 
REMARK    2  A    between atoms: O_6  and  C_7 
REMARK    3  A    between atoms: C_7  and  C_8 
REMARK       I    between atoms: C_8  and  N_9 
REMARK    4  A    between atoms: N_9  and  N_10 
REMARK       I    between atoms: N_10  and  C_11 
REMARK    5  A    between atoms: C_11  and  C_12 
REMARK    6  A    between atoms: C_14  and  C_15 
REMARK    7  A    between atoms: C_22  and  C_23 
ROOT
HETATM    1  N   UNL     1      41.802 -12.276   4.311  1.00  0.00    -0.262 N 
HETATM    2  C   UNL     1      42.154 -11.757   3.075  1.00  0.00     0.291 C 
HETATM    3  O   UNL     1      43.257 -11.298   2.806  1.00  0.00    -0.264 OA
HETATM    4  H   UNL     1      40.904 -12.749   4.401  1.00  0.00     0.190 HD
ENDROOT
BRANCH   2   5
HETATM    5  C   UNL     1      41.041 -11.788   2.140  1.00  0.00     0.159 A 
HETATM    6  N   UNL     1      40.906 -12.775   1.169  1.00  0.00    -0.216 NA
HETATM    7  C   UNL     1      39.811 -12.429   0.516  1.00  0.00     0.180 A 
HETATM    8  O   UNL     1      39.171 -11.337   1.039  1.00  0.00    -0.293 OA
HETATM    9  C   UNL     1      39.957 -10.937   2.085  1.00  0.00     0.094 A 
BRANCH   7  10
HETATM   10  C   UNL     1      39.214 -13.035  -0.672  1.00  0.00     0.017 A 
HETATM   11  C   UNL     1      39.761 -14.216  -1.200  1.00  0.00     0.016 A 
HETATM   12  C   UNL     1      39.226 -14.802  -2.350  1.00  0.00     0.001 A 
HETATM   13  C   UNL     1      38.135 -14.216  -2.988  1.00  0.00     0.000 A 
HETATM   14  C   UNL     1      37.577 -13.046  -2.477  1.00  0.00     0.001 A 
HETATM   15  C   UNL     1      38.114 -12.459  -1.327  1.00  0.00     0.016 A 
ENDBRANCH   7  10
BRANCH   9  16
HETATM   16  C   UNL     1      39.623  -9.791   3.022  1.00  0.00     0.046 A 
HETATM   17  C   UNL     1      38.194  -9.295   3.071  1.00  0.00     0.012 A 
HETATM   18  C   UNL     1      38.728 -10.098   4.206  1.00  0.00     0.012 A 
ENDBRANCH   9  16
ENDBRANCH   2   5
BRANCH   1  19
HETATM   19  N   UNL     1      42.735 -12.407   5.336  1.00  0.00    -0.265 N 
HETATM   20  C   UNL     1      43.143 -13.601   5.885  1.00  0.00     0.260 C 
HETATM   21  O   UNL     1      44.033 -13.586   6.740  1.00  0.00    -0.269 OA
HETATM   22  H   UNL     1      43.133 -11.562   5.735  1.00  0.00     0.190 HD
BRANCH  20  23
HETATM   23  C   UNL     1      42.486 -14.902   5.429  1.00  0.00     0.280 C 
BRANCH  23  24
HETATM   24  O   UNL     1      42.932 -15.151   4.101  1.00  0.00    -0.342 OA
BRANCH  24  25
HETATM   25  C   UNL     1      43.199 -16.442   3.749  1.00  0.00     0.069 A 
HETATM   26  C   UNL     1      42.591 -16.857   2.562  1.00  0.00     0.037 A 
HETATM   27  C   UNL     1      42.779 -18.153   2.079  1.00  0.00     0.009 A 
HETATM   28  C   UNL     1      43.569 -19.061   2.789  1.00  0.00    -0.062 A 
HETATM   29  C   UNL     1      43.802 -20.442   2.254  1.00  0.00     0.048 C 
HETATM   30  C   UNL     1      44.181 -18.642   3.977  1.00  0.00     0.009 A 
HETATM   31  C   UNL     1      43.987 -17.342   4.462  1.00  0.00     0.037 A 
ENDBRANCH  24  25
ENDBRANCH  23  24
ENDBRANCH  20  23
ENDBRANCH   1  19
TORSDOF 7
ENDMDL
MODEL 10
REMARK VINA RESULT:      -8.2      2.679      7.477
REMARK  7 active torsions:
REMARK  status: ('A' for Active; 'I' for Inactive)
REMARK    1  A    between atoms: C_5  and  O_6 
REMARK    2  A    between atoms: O_6  and  C_7 
REMARK    3  A    between atoms: C_7  and  C_8 
REMARK       I    between atoms: C_8  and  N_9 
REMARK    4  A    between atoms: N_9  and  N_10 
REMARK       I    between atoms: N_10  and  C_11 
REMARK    5  A    between atoms: C_11  and  C_12 
REMARK    6  A    between atoms: C_14  and  C_15 
REMARK    7  A    between atoms: C_22  and  C_23 
ROOT
HETATM    1  N   UNL     1      41.377 -12.000   4.152  1.00  0.00    -0.262 N 
HETATM    2  C   UNL     1      40.578 -13.132   4.179  1.00  0.00     0.291 C 
HETATM    3  O   UNL     1      40.055 -13.585   5.189  1.00  0.00    -0.264 OA
HETATM    4  H   UNL     1      41.663 -11.628   3.247  1.00  0.00     0.190 HD
ENDROOT
BRANCH   2   5
HETATM    5  C   UNL     1      40.464 -13.742   2.865  1.00  0.00     0.159 A 
HETATM    6  N   UNL     1      39.852 -13.102   1.792  1.00  0.00    -0.216 NA
HETATM    7  C   UNL     1      39.918 -13.988   0.815  1.00  0.00     0.180 A 
HETATM    8  O   UNL     1      40.602 -15.129   1.141  1.00  0.00    -0.293 OA
HETATM    9  C   UNL     1      40.958 -14.962   2.451  1.00  0.00     0.094 A 
BRANCH   7  10
HETATM   10  C   UNL     1      39.359 -13.920  -0.534  1.00  0.00     0.017 A 
HETATM   11  C   UNL     1      38.726 -12.743  -0.965  1.00  0.00     0.016 A 
HETATM   12  C   UNL     1      38.160 -12.659  -2.240  1.00  0.00     0.001 A 
HETATM   13  C   UNL     1      38.219 -13.751  -3.102  1.00  0.00     0.000 A 
HETATM   14  C   UNL     1      38.846 -14.926  -2.692  1.00  0.00     0.001 A 
HETATM   15  C   UNL     1      39.411 -15.010  -1.417  1.00  0.00     0.016 A 
ENDBRANCH   7  10
BRANCH   9  16
HETATM   16  C   UNL     1      41.796 -15.946   3.247  1.00  0.00     0.046 A 
HETATM   17  C   UNL     1      42.328 -17.173   2.539  1.00  0.00     0.012 A 
HETATM   18  C   UNL     1      43.262 -16.065   2.883  1.00  0.00     0.012 A 
ENDBRANCH   9  16
ENDBRANCH   2   5
BRANCH   1  19
HETATM   19  N   UNL     1      41.566 -11.218   5.289  1.00  0.00    -0.265 N 
HETATM   20  C   UNL     1      42.589 -11.377   6.195  1.00  0.00     0.260 C 
HETATM   21  O   UNL     1      42.688 -10.570   7.124  1.00  0.00    -0.269 OA
HETATM   22  H   UNL     1      40.889 -10.489   5.490  1.00  0.00     0.190 HD
BRANCH  20  23
HETATM   23  C   UNL     1      43.565 -12.540   6.030  1.00  0.00     0.280 C 
BRANCH  23  24
HETATM   24  O   UNL     1      43.286 -13.468   7.073  1.00  0.00    -0.342 OA
BRANCH  24  25
HETATM   25  C   UNL     1      43.434 -14.798   6.801  1.00  0.00     0.069 A 
HETATM   26  C   UNL     1      42.291 -15.566   7.024  1.00  0.00     0.037 A 
HETATM   27  C   UNL     1      42.296 -16.942   6.786  1.00  0.00     0.009 A 
HETATM   28  C   UNL     1      43.459 -17.572   6.334  1.00  0.00    -0.062 A 
HETATM   29  C   UNL     1      43.458 -19.043   6.042  1.00  0.00     0.048 C 
HETATM   30  C   UNL     1      44.604 -16.798   6.108  1.00  0.00     0.009 A 
HETATM   31  C   UNL     1      44.597 -15.419   6.352  1.00  0.00     0.037 A 
ENDBRANCH  24  25
ENDBRANCH  23  24
ENDBRANCH  20  23
ENDBRANCH   1  19
TORSDOF 7
ENDMDL
