MODEL 1
REMARK VINA RESULT:      -8.2      0.000      0.000
REMARK  8 active torsions:
REMARK  status: ('A' for Active; 'I' for Inactive)
REMARK    1  A    between atoms: C_2  and  C_3 
REMARK    2  A    between atoms: C_3  and  C_4 
REMARK    3  A    between atoms: C_4  and  N_5 
REMARK       I    between atoms: N_5  and  C_6 
REMARK    4  A    between atoms: C_6  and  C_7 
REMARK    5  A    between atoms: C_14  and  S_15 
REMARK    6  A    between atoms: S_15  and  N_16 
REMARK    7  A    between atoms: N_16  and  C_17 
REMARK    8  A    between atoms: C_19  and  O_20 
ROOT
HETATM    1  C   UNL     1      42.395 -14.583   5.142  1.00  0.00     0.098 A 
HETATM    2  C   UNL     1      43.304 -13.993   6.166  1.00  0.00     0.201 A 
HETATM    3  O   UNL     1      44.126 -14.674   6.774  1.00  0.00    -0.286 OA
HETATM    4  C   UNL     1      43.184 -12.538   6.457  1.00  0.00     0.043 A 
HETATM    5  C   UNL     1      42.221 -11.783   5.766  1.00  0.00     0.046 A 
HETATM    6  N   UNL     1      41.385 -12.412   4.838  1.00  0.00    -0.364 N 
HETATM    7  C   UNL     1      44.016 -11.945   7.411  1.00  0.00     0.043 A 
HETATM    8  C   UNL     1      43.861 -10.585   7.693  1.00  0.00     0.081 A 
HETATM    9  C   UNL     1      42.908  -9.817   7.015  1.00  0.00     0.027 A 
HETATM   10  C   UNL     1      42.085 -10.423   6.058  1.00  0.00     0.032 A 
HETATM   11  C   UNL     1      41.518 -13.748   4.558  1.00  0.00     0.109 A 
HETATM   12  H   UNL     1      40.754 -11.856   4.270  1.00  0.00     0.165 HD
ENDROOT
BRANCH   8  13
HETATM   13  S   UNL     1      44.929  -9.831   8.901  1.00  0.00     0.263 S 
HETATM   14  O   UNL     1      45.089 -10.785   9.976  1.00  0.00    -0.200 OA
HETATM   15  O   UNL     1      46.073  -9.279   8.207  1.00  0.00    -0.200 OA
BRANCH  13  16
HETATM   16  N   UNL     1      43.974  -8.577   9.509  1.00  0.00    -0.281 N 
HETATM   17  H   UNL     1      44.428  -7.670   9.428  1.00  0.00     0.179 HD
BRANCH  16  18
HETATM   18  C   UNL     1      43.181  -8.818  10.666  1.00  0.00     0.045 A 
HETATM   19  C   UNL     1      41.936  -9.438  10.533  1.00  0.00     0.066 A 
HETATM   20  C   UNL     1      41.158  -9.689  11.662  1.00  0.00     0.070 A 
HETATM   21  C   UNL     1      41.654  -9.349  12.924  1.00  0.00     0.037 A 
HETATM   22  C   UNL     1      42.903  -8.742  13.057  1.00  0.00     0.005 A 
HETATM   23  C   UNL     1      43.669  -8.471  11.925  1.00  0.00     0.030 A 
BRANCH  20  24
HETATM   24  O   UNL     1      39.916 -10.262  11.669  1.00  0.00    -0.356 OA
HETATM   25  C   UNL     1      39.451 -10.764  12.918  1.00  0.00     0.210 C 
ENDBRANCH  20  24
ENDBRANCH  16  18
ENDBRANCH  13  16
ENDBRANCH   8  13
BRANCH   1  26
HETATM   26  C   UNL     1      42.383 -16.021   4.747  1.00  0.00     0.257 C 
HETATM   27  N   UNL     1      43.590 -16.665   4.837  1.00  0.00    -0.357 N 
HETATM   28  H   UNL     1      44.408 -16.127   5.127  1.00  0.00     0.162 HD
HETATM   29  O   UNL     1      41.351 -16.579   4.382  1.00  0.00    -0.267 OA
BRANCH  27  30
HETATM   30  C   UNL     1      43.756 -18.072   4.545  1.00  0.00     0.123 C 
BRANCH  30  31
HETATM   31  C   UNL     1      44.199 -18.312   3.104  1.00  0.00     0.019 C 
BRANCH  31  32
HETATM   32  C   UNL     1      43.053 -18.875   2.264  1.00  0.00    -0.003 C 
HETATM   33  C   UNL     1      43.276 -20.338   1.918  1.00  0.00     0.005 C 
ENDBRANCH  31  32
ENDBRANCH  30  31
ENDBRANCH  27  30
ENDBRANCH   1  26
TORSDOF 8
ENDMDL
MODEL 2
REMARK VINA RESULT:      -8.0      2.849      8.977
REMARK  8 active torsions:
REMARK  status: ('A' for Active; 'I' for Inactive)
REMARK    1  A    between atoms: C_2  and  C_3 
REMARK    2  A    between atoms: C_3  and  C_4 
REMARK    3  A    between atoms: C_4  and  N_5 
REMARK       I    between atoms: N_5  and  C_6 
REMARK    4  A    between atoms: C_6  and  C_7 
REMARK    5  A    between atoms: C_14  and  S_15 
REMARK    6  A    between atoms: S_15  and  N_16 
REMARK    7  A    between atoms: N_16  and  C_17 
REMARK    8  A    between atoms: C_19  and  O_20 
ROOT
HETATM    1  C   UNL     1      42.395 -10.482   6.594  1.00  0.00     0.098 A 
HETATM    2  C   UNL     1      42.905 -11.411   5.545  1.00  0.00     0.201 A 
HETATM    3  O   UNL     1      44.106 -11.548   5.329  1.00  0.00    -0.286 OA
HETATM    4  C   UNL     1      41.913 -12.173   4.739  1.00  0.00     0.043 A 
HETATM    5  C   UNL     1      40.542 -11.983   4.989  1.00  0.00     0.046 A 
HETATM    6  N   UNL     1      40.139 -11.073   5.972  1.00  0.00    -0.364 N 
HETATM    7  C   UNL     1      42.347 -13.054   3.744  1.00  0.00     0.043 A 
HETATM    8  C   UNL     1      41.397 -13.731   2.976  1.00  0.00     0.081 A 
HETATM    9  C   UNL     1      40.029 -13.555   3.211  1.00  0.00     0.027 A 
HETATM   10  C   UNL     1      39.607 -12.674   4.214  1.00  0.00     0.032 A 
HETATM   11  C   UNL     1      41.060 -10.393   6.728  1.00  0.00     0.109 A 
HETATM   12  H   UNL     1      39.158 -11.002   6.221  1.00  0.00     0.165 HD
ENDROOT
BRANCH   8  13
HETATM   13  S   UNL     1      41.955 -14.860   1.718  1.00  0.00     0.263 S 
HETATM   14  O   UNL     1      41.120 -14.644   0.557  1.00  0.00    -0.200 OA
HETATM   15  O   UNL     1      43.396 -14.765   1.637  1.00  0.00    -0.200 OA
BRANCH  13  16
HETATM   16  N   UNL     1      41.519 -16.364   2.351  1.00  0.00    -0.281 N 
HETATM   17  H   UNL     1      40.576 -16.364   2.737  1.00  0.00     0.179 HD
BRANCH  16  18
HETATM   18  C   UNL     1      42.506 -17.139   3.023  1.00  0.00     0.045 A 
HETATM   19  C   UNL     1      42.823 -16.850   4.352  1.00  0.00     0.066 A 
HETATM   20  C   UNL     1      43.780 -17.611   5.022  1.00  0.00     0.070 A 
HETATM   21  C   UNL     1      44.386 -18.684   4.361  1.00  0.00     0.037 A 
HETATM   22  C   UNL     1      44.059 -18.980   3.038  1.00  0.00     0.005 A 
HETATM   23  C   UNL     1      43.119 -18.203   2.363  1.00  0.00     0.030 A 
BRANCH  20  24
HETATM   24  O   UNL     1      44.201 -17.419   6.309  1.00  0.00    -0.356 OA
HETATM   25  C   UNL     1      43.304 -16.736   7.179  1.00  0.00     0.210 C 
ENDBRANCH  20  24
ENDBRANCH  16  18
ENDBRANCH  13  16
ENDBRANCH   8  13
BRANCH   1  26
HETATM   26  C   UNL     1      43.257  -9.642   7.475  1.00  0.00     0.257 C 
HETATM   27  N   UNL     1      44.387 -10.257   7.949  1.00  0.00    -0.357 N 
HETATM   28  H   UNL     1      44.547 -11.235   7.705  1.00  0.00     0.162 HD
HETATM   29  O   UNL     1      42.967  -8.477   7.736  1.00  0.00    -0.267 OA
BRANCH  27  30
HETATM   30  C   UNL     1      45.365  -9.581   8.772  1.00  0.00     0.123 C 
BRANCH  30  31
HETATM   31  C   UNL     1      45.295 -10.026  10.231  1.00  0.00     0.019 C 
BRANCH  31  32
HETATM   32  C   UNL     1      44.299  -9.175  11.017  1.00  0.00    -0.003 C 
HETATM   33  C   UNL     1      43.027  -9.946  11.331  1.00  0.00     0.005 C 
ENDBRANCH  31  32
ENDBRANCH  30  31
ENDBRANCH  27  30
ENDBRANCH   1  26
TORSDOF 8
ENDMDL
MODEL 3
REMARK VINA RESULT:      -7.8      5.287      8.699
REMARK  8 active torsions:
REMARK  status: ('A' for Active; 'I' for Inactive)
REMARK    1  A    between atoms: C_2  and  C_3 
REMARK    2  A    between atoms: C_3  and  C_4 
REMARK    3  A    between atoms: C_4  and  N_5 
REMARK       I    between atoms: N_5  and  C_6 
REMARK    4  A    between atoms: C_6  and  C_7 
REMARK    5  A    between atoms: C_14  and  S_15 
REMARK    6  A    between atoms: S_15  and  N_16 
REMARK    7  A    between atoms: N_16  and  C_17 
REMARK    8  A    between atoms: C_19  and  O_20 
ROOT
HETATM    1  C   UNL     1      43.410 -16.677   5.651  1.00  0.00     0.098 A 
HETATM    2  C   UNL     1      42.804 -16.094   4.420  1.00  0.00     0.201 A 
HETATM    3  O   UNL     1      42.430 -16.796   3.484  1.00  0.00    -0.286 OA
HETATM    4  C   UNL     1      42.671 -14.613   4.338  1.00  0.00     0.043 A 
HETATM    5  C   UNL     1      43.127 -13.828   5.411  1.00  0.00     0.046 A 
HETATM    6  N   UNL     1      43.710 -14.447   6.521  1.00  0.00    -0.364 N 
HETATM    7  C   UNL     1      42.109 -14.023   3.201  1.00  0.00     0.043 A 
HETATM    8  C   UNL     1      42.028 -12.630   3.131  1.00  0.00     0.081 A 
HETATM    9  C   UNL     1      42.476 -11.833   4.189  1.00  0.00     0.027 A 
HETATM   10  C   UNL     1      43.031 -12.436   5.324  1.00  0.00     0.032 A 
HETATM   11  C   UNL     1      43.806 -15.813   6.601  1.00  0.00     0.109 A 
HETATM   12  H   UNL     1      43.953 -13.893   7.336  1.00  0.00     0.165 HD
ENDROOT
BRANCH   8  13
HETATM   13  S   UNL     1      41.302 -11.884   1.688  1.00  0.00     0.263 S 
HETATM   14  O   UNL     1      39.882 -11.774   1.938  1.00  0.00    -0.200 OA
HETATM   15  O   UNL     1      42.095 -10.728   1.332  1.00  0.00    -0.200 OA
BRANCH  13  16
HETATM   16  N   UNL     1      41.491 -13.086   0.515  1.00  0.00    -0.281 N 
HETATM   17  H   UNL     1      42.469 -13.271   0.304  1.00  0.00     0.179 HD
BRANCH  16  18
HETATM   18  C   UNL     1      40.560 -13.148  -0.560  1.00  0.00     0.045 A 
HETATM   19  C   UNL     1      40.408 -12.046  -1.405  1.00  0.00     0.066 A 
HETATM   20  C   UNL     1      39.507 -12.102  -2.468  1.00  0.00     0.070 A 
HETATM   21  C   UNL     1      38.793 -13.281  -2.698  1.00  0.00     0.037 A 
HETATM   22  C   UNL     1      38.957 -14.386  -1.862  1.00  0.00     0.005 A 
HETATM   23  C   UNL     1      39.839 -14.320  -0.786  1.00  0.00     0.030 A 
BRANCH  20  24
HETATM   24  O   UNL     1      39.243 -11.090  -3.349  1.00  0.00    -0.356 OA
HETATM   25  C   UNL     1      38.043 -10.353  -3.134  1.00  0.00     0.210 C 
ENDBRANCH  20  24
ENDBRANCH  16  18
ENDBRANCH  13  16
ENDBRANCH   8  13
BRANCH   1  26
HETATM   26  C   UNL     1      43.623 -18.136   5.881  1.00  0.00     0.257 C 
HETATM   27  N   UNL     1      44.231 -18.810   4.854  1.00  0.00    -0.357 N 
HETATM   28  H   UNL     1      44.463 -18.294   4.004  1.00  0.00     0.162 HD
HETATM   29  O   UNL     1      43.284 -18.677   6.930  1.00  0.00    -0.267 OA
BRANCH  27  30
HETATM   30  C   UNL     1      44.564 -20.216   4.922  1.00  0.00     0.123 C 
BRANCH  30  31
HETATM   31  C   UNL     1      43.705 -21.057   3.981  1.00  0.00     0.019 C 
BRANCH  31  32
HETATM   32  C   UNL     1      44.032 -20.752   2.520  1.00  0.00    -0.003 C 
HETATM   33  C   UNL     1      42.880 -20.050   1.821  1.00  0.00     0.005 C 
ENDBRANCH  31  32
ENDBRANCH  30  31
ENDBRANCH  27  30
ENDBRANCH   1  26
TORSDOF 8
ENDMDL
MODEL 4
REMARK VINA RESULT:      -7.8      2.599      9.437
REMARK  8 active torsions:
REMARK  status: ('A' for Active; 'I' for Inactive)
REMARK    1  A    between atoms: C_2  and  C_3 
REMARK    2  A    between atoms: C_3  and  C_4 
REMARK    3  A    between atoms: C_4  and  N_5 
REMARK       I    between atoms: N_5  and  C_6 
REMARK    4  A    between atoms: C_6  and  C_7 
REMARK    5  A    between atoms: C_14  and  S_15 
REMARK    6  A    between atoms: S_15  and  N_16 
REMARK    7  A    between atoms: N_16  and  C_17 
REMARK    8  A    between atoms: C_19  and  O_20 
ROOT
HETATM    1  C   UNL     1      42.498 -10.431   7.161  1.00  0.00     0.098 A 
HETATM    2  C   UNL     1      42.788 -11.671   6.386  1.00  0.00     0.201 A 
HETATM    3  O   UNL     1      43.798 -12.341   6.586  1.00  0.00    -0.286 OA
HETATM    4  C   UNL     1      41.819 -12.084   5.335  1.00  0.00     0.043 A 
HETATM    5  C   UNL     1      40.681 -11.291   5.108  1.00  0.00     0.046 A 
HETATM    6  N   UNL     1      40.490 -10.125   5.856  1.00  0.00    -0.364 N 
HETATM    7  C   UNL     1      42.052 -13.241   4.583  1.00  0.00     0.043 A 
HETATM    8  C   UNL     1      41.147 -13.589   3.577  1.00  0.00     0.081 A 
HETATM    9  C   UNL     1      40.009 -12.812   3.337  1.00  0.00     0.027 A 
HETATM   10  C   UNL     1      39.784 -11.660   4.100  1.00  0.00     0.032 A 
HETATM   11  C   UNL     1      41.375  -9.765   6.841  1.00  0.00     0.109 A 
HETATM   12  H   UNL     1      39.627  -9.602   5.763  1.00  0.00     0.165 HD
ENDROOT
BRANCH   8  13
HETATM   13  S   UNL     1      41.443 -15.067   2.631  1.00  0.00     0.263 S 
HETATM   14  O   UNL     1      40.668 -16.123   3.245  1.00  0.00    -0.200 OA
HETATM   15  O   UNL     1      41.293 -14.741   1.229  1.00  0.00    -0.200 OA
BRANCH  13  16
HETATM   16  N   UNL     1      43.064 -15.404   2.967  1.00  0.00    -0.281 N 
HETATM   17  H   UNL     1      43.684 -15.109   2.215  1.00  0.00     0.179 HD
BRANCH  16  18
HETATM   18  C   UNL     1      43.387 -16.607   3.656  1.00  0.00     0.045 A 
HETATM   19  C   UNL     1      43.495 -17.803   2.942  1.00  0.00     0.066 A 
HETATM   20  C   UNL     1      43.823 -18.984   3.606  1.00  0.00     0.070 A 
HETATM   21  C   UNL     1      44.077 -18.948   4.980  1.00  0.00     0.037 A 
HETATM   22  C   UNL     1      43.982 -17.750   5.690  1.00  0.00     0.005 A 
HETATM   23  C   UNL     1      43.631 -16.575   5.028  1.00  0.00     0.030 A 
BRANCH  20  24
HETATM   24  O   UNL     1      43.934 -20.221   3.035  1.00  0.00    -0.356 OA
HETATM   25  C   UNL     1      43.410 -20.366   1.718  1.00  0.00     0.210 C 
ENDBRANCH  20  24
ENDBRANCH  16  18
ENDBRANCH  13  16
ENDBRANCH   8  13
BRANCH   1  26
HETATM   26  C   UNL     1      43.372  -9.879   8.237  1.00  0.00     0.257 C 
HETATM   27  N   UNL     1      43.421 -10.618   9.390  1.00  0.00    -0.357 N 
HETATM   28  H   UNL     1      42.845 -11.459   9.454  1.00  0.00     0.162 HD
HETATM   29  O   UNL     1      44.009  -8.841   8.078  1.00  0.00    -0.267 OA
BRANCH  27  30
HETATM   30  C   UNL     1      44.255 -10.265  10.517  1.00  0.00     0.123 C 
BRANCH  30  31
HETATM   31  C   UNL     1      43.433  -9.832  11.728  1.00  0.00     0.019 C 
BRANCH  31  32
HETATM   32  C   UNL     1      43.337  -8.309  11.811  1.00  0.00    -0.003 C 
HETATM   33  C   UNL     1      43.168  -7.833  13.244  1.00  0.00     0.005 C 
ENDBRANCH  31  32
ENDBRANCH  30  31
ENDBRANCH  27  30
ENDBRANCH   1  26
TORSDOF 8
ENDMDL
MODEL 5
REMARK VINA RESULT:      -7.8      3.137      8.747
REMARK  8 active torsions:
REMARK  status: ('A' for Active; 'I' for Inactive)
REMARK    1  A    between atoms: C_2  and  C_3 
REMARK    2  A    between atoms: C_3  and  C_4 
REMARK    3  A    between atoms: C_4  and  N_5 
REMARK       I    between atoms: N_5  and  C_6 
REMARK    4  A    between atoms: C_6  and  C_7 
REMARK    5  A    between atoms: C_14  and  S_15 
REMARK    6  A    between atoms: S_15  and  N_16 
REMARK    7  A    between atoms: N_16  and  C_17 
REMARK    8  A    between atoms: C_19  and  O_20 
ROOT
HETATM    1  C   UNL     1      41.618 -10.319   6.788  1.00  0.00     0.098 A 
HETATM    2  C   UNL     1      42.282 -11.243   5.825  1.00  0.00     0.201 A 
HETATM    3  O   UNL     1      43.501 -11.395   5.806  1.00  0.00    -0.286 OA
HETATM    4  C   UNL     1      41.426 -11.982   4.857  1.00  0.00     0.043 A 
HETATM    5  C   UNL     1      40.035 -11.776   4.883  1.00  0.00     0.046 A 
HETATM    6  N   UNL     1      39.487 -10.872   5.798  1.00  0.00    -0.364 N 
HETATM    7  C   UNL     1      42.007 -12.859   3.936  1.00  0.00     0.043 A 
HETATM    8  C   UNL     1      41.187 -13.514   3.013  1.00  0.00     0.081 A 
HETATM    9  C   UNL     1      39.802 -13.321   3.024  1.00  0.00     0.027 A 
HETATM   10  C   UNL     1      39.232 -12.446   3.955  1.00  0.00     0.032 A 
HETATM   11  C   UNL     1      40.281 -10.214   6.703  1.00  0.00     0.109 A 
HETATM   12  H   UNL     1      38.480 -10.791   5.884  1.00  0.00     0.165 HD
ENDROOT
BRANCH   8  13
HETATM   13  S   UNL     1      41.930 -14.636   1.849  1.00  0.00     0.263 S 
HETATM   14  O   UNL     1      41.232 -14.466   0.594  1.00  0.00    -0.200 OA
HETATM   15  O   UNL     1      43.367 -14.489   1.937  1.00  0.00    -0.200 OA
BRANCH  13  16
HETATM   16  N   UNL     1      41.476 -16.148   2.450  1.00  0.00    -0.281 N 
HETATM   17  H   UNL     1      40.532 -16.145   2.832  1.00  0.00     0.179 HD
BRANCH  16  18
HETATM   18  C   UNL     1      42.453 -16.946   3.111  1.00  0.00     0.045 A 
HETATM   19  C   UNL     1      42.681 -16.765   4.477  1.00  0.00     0.066 A 
HETATM   20  C   UNL     1      43.627 -17.551   5.135  1.00  0.00     0.070 A 
HETATM   21  C   UNL     1      44.311 -18.539   4.422  1.00  0.00     0.037 A 
HETATM   22  C   UNL     1      44.072 -18.728   3.060  1.00  0.00     0.005 A 
HETATM   23  C   UNL     1      43.143 -17.926   2.399  1.00  0.00     0.030 A 
BRANCH  20  24
HETATM   24  O   UNL     1      43.966 -17.459   6.457  1.00  0.00    -0.356 OA
HETATM   25  C   UNL     1      43.205 -16.553   7.250  1.00  0.00     0.210 C 
ENDBRANCH  20  24
ENDBRANCH  16  18
ENDBRANCH  13  16
ENDBRANCH   8  13
BRANCH   1  26
HETATM   26  C   UNL     1      42.334  -9.501   7.810  1.00  0.00     0.257 C 
HETATM   27  N   UNL     1      42.996 -10.216   8.775  1.00  0.00    -0.357 N 
HETATM   28  H   UNL     1      42.931 -11.235   8.756  1.00  0.00     0.162 HD
HETATM   29  O   UNL     1      42.333  -8.274   7.766  1.00  0.00    -0.267 OA
BRANCH  27  30
HETATM   30  C   UNL     1      43.786  -9.592   9.813  1.00  0.00     0.123 C 
BRANCH  30  31
HETATM   31  C   UNL     1      45.261  -9.977   9.722  1.00  0.00     0.019 C 
BRANCH  31  32
HETATM   32  C   UNL     1      45.886  -9.454   8.430  1.00  0.00    -0.003 C 
HETATM   33  C   UNL     1      46.376 -10.588   7.545  1.00  0.00     0.005 C 
ENDBRANCH  31  32
ENDBRANCH  30  31
ENDBRANCH  27  30
ENDBRANCH   1  26
TORSDOF 8
ENDMDL
MODEL 6
REMARK VINA RESULT:      -7.7      6.275      9.475
REMARK  8 active torsions:
REMARK  status: ('A' for Active; 'I' for Inactive)
REMARK    1  A    between atoms: C_2  and  C_3 
REMARK    2  A    between atoms: C_3  and  C_4 
REMARK    3  A    between atoms: C_4  and  N_5 
REMARK       I    between atoms: N_5  and  C_6 
REMARK    4  A    between atoms: C_6  and  C_7 
REMARK    5  A    between atoms: C_14  and  S_15 
REMARK    6  A    between atoms: S_15  and  N_16 
REMARK    7  A    between atoms: N_16  and  C_17 
REMARK    8  A    between atoms: C_19  and  O_20 
ROOT
HETATM    1  C   UNL     1      41.303 -15.484   4.192  1.00  0.00     0.098 A 
HETATM    2  C   UNL     1      41.169 -15.503   2.708  1.00  0.00     0.201 A 
HETATM    3  O   UNL     1      41.699 -16.371   2.018  1.00  0.00    -0.286 OA
HETATM    4  C   UNL     1      40.378 -14.421   2.061  1.00  0.00     0.043 A 
HETATM    5  C   UNL     1      39.799 -13.425   2.868  1.00  0.00     0.046 A 
HETATM    6  N   UNL     1      39.992 -13.459   4.252  1.00  0.00    -0.364 N 
HETATM    7  C   UNL     1      40.227 -14.399   0.671  1.00  0.00     0.043 A 
HETATM    8  C   UNL     1      39.511 -13.353   0.084  1.00  0.00     0.081 A 
HETATM    9  C   UNL     1      38.928 -12.354   0.870  1.00  0.00     0.027 A 
HETATM   10  C   UNL     1      39.081 -12.390   2.261  1.00  0.00     0.032 A 
HETATM   11  C   UNL     1      40.701 -14.474   4.843  1.00  0.00     0.109 A 
HETATM   12  H   UNL     1      39.500 -12.800   4.846  1.00  0.00     0.165 HD
ENDROOT
BRANCH   8  13
HETATM   13  S   UNL     1      39.313 -13.335  -1.685  1.00  0.00     0.263 S 
HETATM   14  O   UNL     1      39.180 -14.712  -2.109  1.00  0.00    -0.200 OA
HETATM   15  O   UNL     1      38.309 -12.347  -2.016  1.00  0.00    -0.200 OA
BRANCH  13  16
HETATM   16  N   UNL     1      40.826 -12.811  -2.222  1.00  0.00    -0.281 N 
HETATM   17  H   UNL     1      41.587 -13.372  -1.844  1.00  0.00     0.179 HD
BRANCH  16  18
HETATM   18  C   UNL     1      41.052 -11.414  -2.382  1.00  0.00     0.045 A 
HETATM   19  C   UNL     1      41.680 -10.696  -1.361  1.00  0.00     0.066 A 
HETATM   20  C   UNL     1      41.916  -9.330  -1.513  1.00  0.00     0.070 A 
HETATM   21  C   UNL     1      41.553  -8.703  -2.708  1.00  0.00     0.037 A 
HETATM   22  C   UNL     1      40.938  -9.424  -3.732  1.00  0.00     0.005 A 
HETATM   23  C   UNL     1      40.682 -10.784  -3.569  1.00  0.00     0.030 A 
BRANCH  20  24
HETATM   24  O   UNL     1      42.495  -8.508  -0.586  1.00  0.00    -0.356 OA
HETATM   25  C   UNL     1      42.227  -7.115  -0.712  1.00  0.00     0.210 C 
ENDBRANCH  20  24
ENDBRANCH  16  18
ENDBRANCH  13  16
ENDBRANCH   8  13
BRANCH   1  26
HETATM   26  C   UNL     1      42.069 -16.488   4.987  1.00  0.00     0.257 C 
HETATM   27  N   UNL     1      43.183 -16.998   4.371  1.00  0.00    -0.357 N 
HETATM   28  H   UNL     1      43.395 -16.694   3.419  1.00  0.00     0.162 HD
HETATM   29  O   UNL     1      41.721 -16.813   6.119  1.00  0.00    -0.267 OA
BRANCH  27  30
HETATM   30  C   UNL     1      44.075 -17.940   5.010  1.00  0.00     0.123 C 
BRANCH  30  31
HETATM   31  C   UNL     1      44.219 -19.230   4.207  1.00  0.00     0.019 C 
BRANCH  31  32
HETATM   32  C   UNL     1      43.870 -19.005   2.737  1.00  0.00    -0.003 C 
HETATM   33  C   UNL     1      43.358 -20.276   2.080  1.00  0.00     0.005 C 
ENDBRANCH  31  32
ENDBRANCH  30  31
ENDBRANCH  27  30
ENDBRANCH   1  26
TORSDOF 8
ENDMDL
MODEL 7
REMARK VINA RESULT:      -7.6      2.855      9.060
REMARK  8 active torsions:
REMARK  status: ('A' for Active; 'I' for Inactive)
REMARK    1  A    between atoms: C_2  and  C_3 
REMARK    2  A    between atoms: C_3  and  C_4 
REMARK    3  A    between atoms: C_4  and  N_5 
REMARK       I    between atoms: N_5  and  C_6 
REMARK    4  A    between atoms: C_6  and  C_7 
REMARK    5  A    between atoms: C_14  and  S_15 
REMARK    6  A    between atoms: S_15  and  N_16 
REMARK    7  A    between atoms: N_16  and  C_17 
REMARK    8  A    between atoms: C_19  and  O_20 
ROOT
HETATM    1  C   UNL     1      42.739 -10.193   7.141  1.00  0.00     0.098 A 
HETATM    2  C   UNL     1      41.606 -10.799   6.385  1.00  0.00     0.201 A 
HETATM    3  O   UNL     1      40.439 -10.654   6.737  1.00  0.00    -0.286 OA
HETATM    4  C   UNL     1      41.923 -11.612   5.178  1.00  0.00     0.043 A 
HETATM    5  C   UNL     1      43.267 -11.784   4.806  1.00  0.00     0.046 A 
HETATM    6  N   UNL     1      44.278 -11.207   5.582  1.00  0.00    -0.364 N 
HETATM    7  C   UNL     1      40.891 -12.200   4.440  1.00  0.00     0.043 A 
HETATM    8  C   UNL     1      41.214 -12.989   3.333  1.00  0.00     0.081 A 
HETATM    9  C   UNL     1      42.546 -13.170   2.947  1.00  0.00     0.027 A 
HETATM   10  C   UNL     1      43.569 -12.572   3.691  1.00  0.00     0.032 A 
HETATM   11  C   UNL     1      43.977 -10.438   6.677  1.00  0.00     0.109 A 
HETATM   12  H   UNL     1      45.241 -11.248   5.265  1.00  0.00     0.165 HD
ENDROOT
BRANCH   8  13
HETATM   13  S   UNL     1      39.896 -13.726   2.390  1.00  0.00     0.263 S 
HETATM   14  O   UNL     1      38.700 -12.962   2.668  1.00  0.00    -0.200 OA
HETATM   15  O   UNL     1      40.367 -13.921   1.036  1.00  0.00    -0.200 OA
BRANCH  13  16
HETATM   16  N   UNL     1      39.695 -15.224   3.144  1.00  0.00    -0.281 N 
HETATM   17  H   UNL     1      38.869 -15.251   3.738  1.00  0.00     0.179 HD
BRANCH  16  18
HETATM   18  C   UNL     1      40.849 -15.931   3.585  1.00  0.00     0.045 A 
HETATM   19  C   UNL     1      41.128 -16.011   4.952  1.00  0.00     0.066 A 
HETATM   20  C   UNL     1      42.249 -16.712   5.395  1.00  0.00     0.070 A 
HETATM   21  C   UNL     1      43.063 -17.360   4.462  1.00  0.00     0.037 A 
HETATM   22  C   UNL     1      42.776 -17.290   3.098  1.00  0.00     0.005 A 
HETATM   23  C   UNL     1      41.668 -16.570   2.656  1.00  0.00     0.030 A 
BRANCH  20  24
HETATM   24  O   UNL     1      42.650 -16.844   6.696  1.00  0.00    -0.356 OA
HETATM   25  C   UNL     1      44.052 -16.804   6.939  1.00  0.00     0.210 C 
ENDBRANCH  20  24
ENDBRANCH  16  18
ENDBRANCH  13  16
ENDBRANCH   8  13
BRANCH   1  26
HETATM   26  C   UNL     1      42.590  -9.364   8.372  1.00  0.00     0.257 C 
HETATM   27  N   UNL     1      41.819  -9.918   9.362  1.00  0.00    -0.357 N 
HETATM   28  H   UNL     1      41.379 -10.822   9.187  1.00  0.00     0.162 HD
HETATM   29  O   UNL     1      43.138  -8.271   8.481  1.00  0.00    -0.267 OA
BRANCH  27  30
HETATM   30  C   UNL     1      41.608  -9.282  10.643  1.00  0.00     0.123 C 
BRANCH  30  31
HETATM   31  C   UNL     1      42.644  -9.715  11.678  1.00  0.00     0.019 C 
BRANCH  31  32
HETATM   32  C   UNL     1      43.592  -8.567  12.019  1.00  0.00    -0.003 C 
HETATM   33  C   UNL     1      43.164  -7.842  13.284  1.00  0.00     0.005 C 
ENDBRANCH  31  32
ENDBRANCH  30  31
ENDBRANCH  27  30
ENDBRANCH   1  26
TORSDOF 8
ENDMDL
MODEL 8
REMARK VINA RESULT:      -7.5      6.642     10.584
REMARK  8 active torsions:
REMARK  status: ('A' for Active; 'I' for Inactive)
REMARK    1  A    between atoms: C_2  and  C_3 
REMARK    2  A    between atoms: C_3  and  C_4 
REMARK    3  A    between atoms: C_4  and  N_5 
REMARK       I    between atoms: N_5  and  C_6 
REMARK    4  A    between atoms: C_6  and  C_7 
REMARK    5  A    between atoms: C_14  and  S_15 
REMARK    6  A    between atoms: S_15  and  N_16 
REMARK    7  A    between atoms: N_16  and  C_17 
REMARK    8  A    between atoms: C_19  and  O_20 
ROOT
HETATM    1  C   UNL     1      41.140 -10.144  -1.835  1.00  0.00     0.098 A 
HETATM    2  C   UNL     1      41.389 -10.708  -0.478  1.00  0.00     0.201 A 
HETATM    3  O   UNL     1      41.960 -10.064   0.399  1.00  0.00    -0.286 OA
HETATM    4  C   UNL     1      40.938 -12.100  -0.204  1.00  0.00     0.043 A 
HETATM    5  C   UNL     1      40.307 -12.826  -1.229  1.00  0.00     0.046 A 
HETATM    6  N   UNL     1      40.133 -12.238  -2.486  1.00  0.00    -0.364 N 
HETATM    7  C   UNL     1      41.152 -12.670   1.055  1.00  0.00     0.043 A 
HETATM    8  C   UNL     1      40.753 -13.990   1.278  1.00  0.00     0.081 A 
HETATM    9  C   UNL     1      40.124 -14.728   0.270  1.00  0.00     0.027 A 
HETATM   10  C   UNL     1      39.910 -14.144  -0.984  1.00  0.00     0.032 A 
HETATM   11  C   UNL     1      40.529 -10.946  -2.723  1.00  0.00     0.109 A 
HETATM   12  H   UNL     1      39.596 -12.721  -3.198  1.00  0.00     0.165 HD
ENDROOT
BRANCH   8  13
HETATM   13  S   UNL     1      41.018 -14.707   2.885  1.00  0.00     0.263 S 
HETATM   14  O   UNL     1      40.798 -13.658   3.857  1.00  0.00    -0.200 OA
HETATM   15  O   UNL     1      40.288 -15.955   2.947  1.00  0.00    -0.200 OA
BRANCH  13  16
HETATM   16  N   UNL     1      42.678 -15.019   2.883  1.00  0.00    -0.281 N 
HETATM   17  H   UNL     1      43.122 -14.748   2.007  1.00  0.00     0.179 HD
BRANCH  16  18
HETATM   18  C   UNL     1      43.157 -16.193   3.529  1.00  0.00     0.045 A 
HETATM   19  C   UNL     1      43.390 -17.348   2.778  1.00  0.00     0.066 A 
HETATM   20  C   UNL     1      43.871 -18.499   3.401  1.00  0.00     0.070 A 
HETATM   21  C   UNL     1      44.151 -18.470   4.769  1.00  0.00     0.037 A 
HETATM   22  C   UNL     1      43.930 -17.312   5.516  1.00  0.00     0.005 A 
HETATM   23  C   UNL     1      43.428 -16.170   4.897  1.00  0.00     0.030 A 
BRANCH  20  24
HETATM   24  O   UNL     1      44.115 -19.699   2.790  1.00  0.00    -0.356 OA
HETATM   25  C   UNL     1      43.103 -20.188   1.916  1.00  0.00     0.210 C 
ENDBRANCH  20  24
ENDBRANCH  16  18
ENDBRANCH  13  16
ENDBRANCH   8  13
BRANCH   1  26
HETATM   26  C   UNL     1      41.540  -8.773  -2.270  1.00  0.00     0.257 C 
HETATM   27  N   UNL     1      42.722  -8.314  -1.749  1.00  0.00    -0.357 N 
HETATM   28  H   UNL     1      43.225  -8.907  -1.087  1.00  0.00     0.162 HD
HETATM   29  O   UNL     1      40.853  -8.121  -3.052  1.00  0.00    -0.267 OA
BRANCH  27  30
HETATM   30  C   UNL     1      43.292  -7.032  -2.100  1.00  0.00     0.123 C 
BRANCH  30  31
HETATM   31  C   UNL     1      43.314  -6.069  -0.915  1.00  0.00     0.019 C 
BRANCH  31  32
HETATM   32  C   UNL     1      43.541  -4.632  -1.380  1.00  0.00    -0.003 C 
HETATM   33  C   UNL     1      44.843  -4.065  -0.839  1.00  0.00     0.005 C 
ENDBRANCH  31  32
ENDBRANCH  30  31
ENDBRANCH  27  30
ENDBRANCH   1  26
TORSDOF 8
ENDMDL
MODEL 9
REMARK VINA RESULT:      -7.5      1.201      1.463
REMARK  8 active torsions:
REMARK  status: ('A' for Active; 'I' for Inactive)
REMARK    1  A    between atoms: C_2  and  C_3 
REMARK    2  A    between atoms: C_3  and  C_4 
REMARK    3  A    between atoms: C_4  and  N_5 
REMARK       I    between atoms: N_5  and  C_6 
REMARK    4  A    between atoms: C_6  and  C_7 
REMARK    5  A    between atoms: C_14  and  S_15 
REMARK    6  A    between atoms: S_15  and  N_16 
REMARK    7  A    between atoms: N_16  and  C_17 
REMARK    8  A    between atoms: C_19  and  O_20 
ROOT
HETATM    1  C   UNL     1      41.842 -13.656   5.525  1.00  0.00     0.098 A 
HETATM    2  C   UNL     1      42.826 -12.981   6.419  1.00  0.00     0.201 A 
HETATM    3  O   UNL     1      43.704 -13.606   7.008  1.00  0.00    -0.286 OA
HETATM    4  C   UNL     1      42.713 -11.508   6.600  1.00  0.00     0.043 A 
HETATM    5  C   UNL     1      41.686 -10.816   5.934  1.00  0.00     0.046 A 
HETATM    6  N   UNL     1      40.784 -11.523   5.133  1.00  0.00    -0.364 N 
HETATM    7  C   UNL     1      43.614 -10.834   7.431  1.00  0.00     0.043 A 
HETATM    8  C   UNL     1      43.466  -9.457   7.614  1.00  0.00     0.081 A 
HETATM    9  C   UNL     1      42.451  -8.752   6.960  1.00  0.00     0.027 A 
HETATM   10  C   UNL     1      41.559  -9.437   6.127  1.00  0.00     0.032 A 
HETATM   11  C   UNL     1      40.910 -12.877   4.951  1.00  0.00     0.109 A 
HETATM   12  H   UNL     1      40.101 -11.018   4.577  1.00  0.00     0.165 HD
ENDROOT
BRANCH   8  13
HETATM   13  S   UNL     1      44.622  -8.601   8.664  1.00  0.00     0.263 S 
HETATM   14  O   UNL     1      45.940  -8.827   8.111  1.00  0.00    -0.200 OA
HETATM   15  O   UNL     1      44.119  -7.264   8.890  1.00  0.00    -0.200 OA
BRANCH  13  16
HETATM   16  N   UNL     1      44.545  -9.488  10.099  1.00  0.00    -0.281 N 
HETATM   17  H   UNL     1      44.782 -10.469   9.962  1.00  0.00     0.179 HD
BRANCH  16  18
HETATM   18  C   UNL     1      43.523  -9.182  11.041  1.00  0.00     0.045 A 
HETATM   19  C   UNL     1      42.261  -9.766  10.904  1.00  0.00     0.066 A 
HETATM   20  C   UNL     1      41.257  -9.482  11.829  1.00  0.00     0.070 A 
HETATM   21  C   UNL     1      41.540  -8.641  12.908  1.00  0.00     0.037 A 
HETATM   22  C   UNL     1      42.804  -8.069  13.052  1.00  0.00     0.005 A 
HETATM   23  C   UNL     1      43.799  -8.336  12.114  1.00  0.00     0.030 A 
BRANCH  20  24
HETATM   24  O   UNL     1      39.977  -9.963  11.796  1.00  0.00    -0.356 OA
HETATM   25  C   UNL     1      39.565 -10.761  12.901  1.00  0.00     0.210 C 
ENDBRANCH  20  24
ENDBRANCH  16  18
ENDBRANCH  13  16
ENDBRANCH   8  13
BRANCH   1  26
HETATM   26  C   UNL     1      41.815 -15.122   5.249  1.00  0.00     0.257 C 
HETATM   27  N   UNL     1      43.043 -15.722   5.142  1.00  0.00    -0.357 N 
HETATM   28  H   UNL     1      43.878 -15.139   5.222  1.00  0.00     0.162 HD
HETATM   29  O   UNL     1      40.757 -15.736   5.141  1.00  0.00    -0.267 OA
BRANCH  27  30
HETATM   30  C   UNL     1      43.209 -17.143   4.930  1.00  0.00     0.123 C 
BRANCH  30  31
HETATM   31  C   UNL     1      43.777 -17.455   3.548  1.00  0.00     0.019 C 
BRANCH  31  32
HETATM   32  C   UNL     1      42.741 -17.195   2.456  1.00  0.00    -0.003 C 
HETATM   33  C   UNL     1      43.163 -16.057   1.541  1.00  0.00     0.005 C 
ENDBRANCH  31  32
ENDBRANCH  30  31
ENDBRANCH  27  30
ENDBRANCH   1  26
TORSDOF 8
ENDMDL
MODEL 10
REMARK VINA RESULT:      -7.4      6.793      9.345
REMARK  8 active torsions:
REMARK  status: ('A' for Active; 'I' for Inactive)
REMARK    1  A    between atoms: C_2  and  C_3 
REMARK    2  A    between atoms: C_3  and  C_4 
REMARK    3  A    between atoms: C_4  and  N_5 
REMARK       I    between atoms: N_5  and  C_6 
REMARK    4  A    between atoms: C_6  and  C_7 
REMARK    5  A    between atoms: C_14  and  S_15 
REMARK    6  A    between atoms: S_15  and  N_16 
REMARK    7  A    between atoms: N_16  and  C_17 
REMARK    8  A    between atoms: C_19  and  O_20 
ROOT
HETATM    1  C   UNL     1      42.239 -15.897   3.559  1.00  0.00     0.098 A 
HETATM    2  C   UNL     1      42.465 -14.851   2.521  1.00  0.00     0.201 A 
HETATM    3  O   UNL     1      43.488 -14.821   1.841  1.00  0.00    -0.286 OA
HETATM    4  C   UNL     1      41.415 -13.813   2.330  1.00  0.00     0.043 A 
HETATM    5  C   UNL     1      40.264 -13.854   3.135  1.00  0.00     0.046 A 
HETATM    6  N   UNL     1      40.135 -14.851   4.107  1.00  0.00    -0.364 N 
HETATM    7  C   UNL     1      41.587 -12.813   1.368  1.00  0.00     0.043 A 
HETATM    8  C   UNL     1      40.605 -11.828   1.232  1.00  0.00     0.081 A 
HETATM    9  C   UNL     1      39.452 -11.853   2.024  1.00  0.00     0.027 A 
HETATM   10  C   UNL     1      39.289 -12.863   2.979  1.00  0.00     0.032 A 
HETATM   11  C   UNL     1      41.095 -15.818   4.260  1.00  0.00     0.109 A 
HETATM   12  H   UNL     1      39.266 -14.941   4.624  1.00  0.00     0.165 HD
ENDROOT
BRANCH   8  13
HETATM   13  S   UNL     1      40.823 -10.563  -0.001  1.00  0.00     0.263 S 
HETATM   14  O   UNL     1      39.565  -9.855  -0.106  1.00  0.00    -0.200 OA
HETATM   15  O   UNL     1      42.057  -9.865   0.284  1.00  0.00    -0.200 OA
BRANCH  13  16
HETATM   16  N   UNL     1      40.991 -11.458  -1.424  1.00  0.00    -0.281 N 
HETATM   17  H   UNL     1      41.490 -10.944  -2.148  1.00  0.00     0.179 HD
BRANCH  16  18
HETATM   18  C   UNL     1      39.922 -12.304  -1.833  1.00  0.00     0.045 A 
HETATM   19  C   UNL     1      38.716 -11.737  -2.253  1.00  0.00     0.066 A 
HETATM   20  C   UNL     1      37.667 -12.558  -2.668  1.00  0.00     0.070 A 
HETATM   21  C   UNL     1      37.852 -13.943  -2.692  1.00  0.00     0.037 A 
HETATM   22  C   UNL     1      39.061 -14.507  -2.285  1.00  0.00     0.005 A 
HETATM   23  C   UNL     1      40.100 -13.686  -1.849  1.00  0.00     0.030 A 
BRANCH  20  24
HETATM   24  O   UNL     1      36.432 -12.137  -3.076  1.00  0.00    -0.356 OA
HETATM   25  C   UNL     1      36.121 -10.764  -2.856  1.00  0.00     0.210 C 
ENDBRANCH  20  24
ENDBRANCH  16  18
ENDBRANCH  13  16
ENDBRANCH   8  13
BRANCH   1  26
HETATM   26  C   UNL     1      43.197 -16.996   3.878  1.00  0.00     0.257 C 
HETATM   27  N   UNL     1      43.438 -17.879   2.857  1.00  0.00    -0.357 N 
HETATM   28  H   UNL     1      42.936 -17.754   1.977  1.00  0.00     0.162 HD
HETATM   29  O   UNL     1      43.733 -17.080   4.980  1.00  0.00    -0.267 OA
BRANCH  27  30
HETATM   30  C   UNL     1      44.377 -18.973   2.969  1.00  0.00     0.123 C 
BRANCH  30  31
HETATM   31  C   UNL     1      43.718 -20.244   3.498  1.00  0.00     0.019 C 
BRANCH  31  32
HETATM   32  C   UNL     1      44.359 -20.689   4.812  1.00  0.00    -0.003 C 
HETATM   33  C   UNL     1      43.520 -20.284   6.012  1.00  0.00     0.005 C 
ENDBRANCH  31  32
ENDBRANCH  30  31
ENDBRANCH  27  30
ENDBRANCH   1  26
TORSDOF 8
ENDMDL
