MODEL 1
REMARK VINA RESULT:      -9.0      0.000      0.000
REMARK  10 active torsions:
REMARK  status: ('A' for Active; 'I' for Inactive)
REMARK    1  A    between atoms: C_6  and  C_7 
REMARK    2  A    between atoms: C_9  and  C_10 
REMARK    3  A    between atoms: C_10  and  C_11 
REMARK       I    between atoms: C_11  and  N_12 
REMARK    4  A    between atoms: N_12  and  C_13 
REMARK    5  A    between atoms: C_13  and  C_14 
REMARK    6  A    between atoms: C_14  and  N_15 
REMARK    7  A    between atoms: C_26  and  C_27 
REMARK    8  A    between atoms: C_27  and  O_28 
REMARK    9  A    between atoms: O_28  and  C_29 
REMARK   10  A    between atoms: C_29  and  C_30 
ROOT
HETATM    1  C   UNL     1      41.654 -13.295   4.601  1.00  0.00     0.166 C 
HETATM    2  N   UNL     1      40.567 -12.299   4.671  1.00  0.00    -0.318 N 
HETATM    3  C   UNL     1      40.057 -11.423   3.868  1.00  0.00     0.011 C 
HETATM    4  C   UNL     1      39.652 -12.477   5.914  1.00  0.00     0.170 C 
HETATM    5  S   UNL     1      38.627 -11.097   6.151  1.00  0.00    -0.086 SA
HETATM    6  C   UNL     1      38.995 -10.522   4.467  1.00  0.00     0.135 C 
HETATM    7  N   UNL     1      39.576 -13.546   6.624  1.00  0.00    -0.229 NA
HETATM    8  C   UNL     1      40.245 -14.664   6.160  1.00  0.00     0.048 C 
HETATM    9  C   UNL     1      39.771 -15.955   6.786  1.00  0.00     0.071 C 
HETATM   10  C   UNL     1      41.183 -14.596   5.190  1.00  0.00     0.069 C 
ENDROOT
BRANCH   3  11
HETATM   11  C   UNL     1      40.372 -11.394   2.403  1.00  0.00     0.156 C 
BRANCH  11  12
HETATM   12  C   UNL     1      39.653 -12.382   1.522  1.00  0.00     0.223 C 
HETATM   13  N   UNL     1      40.354 -13.546   1.321  1.00  0.00    -0.359 N 
HETATM   14  H   UNL     1      41.295 -13.602   1.708  1.00  0.00     0.162 HD
HETATM   15  O   UNL     1      38.565 -12.143   1.010  1.00  0.00    -0.273 OA
BRANCH  13  16
HETATM   16  C   UNL     1      40.077 -14.548   0.289  1.00  0.00     0.150 C 
BRANCH  16  17
HETATM   17  C   UNL     1      39.936 -14.047  -1.162  1.00  0.00     0.253 C 
BRANCH  17  18
HETATM   18  N   UNL     1      38.539 -14.228  -1.719  1.00  0.00    -0.077 N 
HETATM   19  H   UNL     1      37.975 -14.676  -0.971  1.00  0.00     0.279 HD
HETATM   20  C   UNL     1      37.846 -12.939  -2.072  1.00  0.00     0.269 C 
HETATM   21  C   UNL     1      38.533 -15.173  -2.889  1.00  0.00     0.269 C 
ENDBRANCH  17  18
ENDBRANCH  16  17
ENDBRANCH  13  16
ENDBRANCH  11  12
ENDBRANCH   3  11
BRANCH   1  22
HETATM   22  C   UNL     1      43.006 -12.845   5.215  1.00  0.00    -0.024 C 
HETATM   23  C   UNL     1      43.967 -11.971   4.648  1.00  0.00    -0.053 C 
HETATM   24  C   UNL     1      44.918 -11.346   5.491  1.00  0.00     0.014 C 
HETATM   25  C   UNL     1      44.074 -11.573   3.203  1.00  0.00     0.049 C 
HETATM   26  C   UNL     1      44.987 -11.602   6.859  1.00  0.00    -0.061 C 
HETATM   27  C   UNL     1      45.899 -10.805   7.746  1.00  0.00     0.048 C 
HETATM   28  C   UNL     1      44.146 -12.570   7.389  1.00  0.00     0.007 C 
HETATM   29  C   UNL     1      43.188 -13.189   6.580  1.00  0.00     0.011 C 
ENDBRANCH   1  22
BRANCH  10  30
HETATM   30  C   UNL     1      41.543 -15.826   4.451  1.00  0.00     0.294 C 
HETATM   31  O   UNL     1      41.059 -16.080   3.361  1.00  0.00    -0.259 OA
BRANCH  30  32
HETATM   32  O   UNL     1      42.539 -16.485   5.070  1.00  0.00    -0.313 OA
BRANCH  32  33
HETATM   33  C   UNL     1      43.703 -16.757   4.269  1.00  0.00     0.217 C 
BRANCH  33  34
HETATM   34  C   UNL     1      43.775 -18.235   3.967  1.00  0.00    -0.034 A 
HETATM   35  C   UNL     1      44.079 -19.161   4.976  1.00  0.00     0.009 A 
HETATM   36  C   UNL     1      44.118 -20.530   4.696  1.00  0.00     0.001 A 
HETATM   37  C   UNL     1      43.859 -20.986   3.405  1.00  0.00     0.000 A 
HETATM   38  C   UNL     1      43.567 -20.075   2.391  1.00  0.00     0.001 A 
HETATM   39  C   UNL     1      43.529 -18.707   2.669  1.00  0.00     0.009 A 
ENDBRANCH  33  34
ENDBRANCH  32  33
ENDBRANCH  30  32
ENDBRANCH  10  30
TORSDOF 10
ENDMDL
MODEL 2
REMARK VINA RESULT:      -8.5      3.028      6.850
REMARK  10 active torsions:
REMARK  status: ('A' for Active; 'I' for Inactive)
REMARK    1  A    between atoms: C_6  and  C_7 
REMARK    2  A    between atoms: C_9  and  C_10 
REMARK    3  A    between atoms: C_10  and  C_11 
REMARK       I    between atoms: C_11  and  N_12 
REMARK    4  A    between atoms: N_12  and  C_13 
REMARK    5  A    between atoms: C_13  and  C_14 
REMARK    6  A    between atoms: C_14  and  N_15 
REMARK    7  A    between atoms: C_26  and  C_27 
REMARK    8  A    between atoms: C_27  and  O_28 
REMARK    9  A    between atoms: O_28  and  C_29 
REMARK   10  A    between atoms: C_29  and  C_30 
ROOT
HETATM    1  C   UNL     1      41.827 -12.778   5.556  1.00  0.00     0.166 C 
HETATM    2  N   UNL     1      41.189 -11.500   5.183  1.00  0.00    -0.318 N 
HETATM    3  C   UNL     1      40.120 -10.860   5.530  1.00  0.00     0.011 C 
HETATM    4  C   UNL     1      42.111 -10.577   4.341  1.00  0.00     0.170 C 
HETATM    5  S   UNL     1      41.222  -9.269   3.629  1.00  0.00    -0.086 SA
HETATM    6  C   UNL     1      39.826  -9.598   4.744  1.00  0.00     0.135 C 
HETATM    7  N   UNL     1      43.389 -10.692   4.258  1.00  0.00    -0.229 NA
HETATM    8  C   UNL     1      43.999 -11.610   5.094  1.00  0.00     0.048 C 
HETATM    9  C   UNL     1      45.485 -11.389   5.254  1.00  0.00     0.071 C 
HETATM   10  C   UNL     1      43.303 -12.564   5.751  1.00  0.00     0.069 C 
ENDROOT
BRANCH   3  11
HETATM   11  C   UNL     1      39.306 -11.242   6.729  1.00  0.00     0.156 C 
BRANCH  11  12
HETATM   12  C   UNL     1      39.407 -10.357   7.944  1.00  0.00     0.223 C 
HETATM   13  N   UNL     1      40.614  -9.709   8.049  1.00  0.00    -0.359 N 
HETATM   14  H   UNL     1      41.333  -9.938   7.364  1.00  0.00     0.162 HD
HETATM   15  O   UNL     1      38.506 -10.262   8.770  1.00  0.00    -0.273 OA
BRANCH  13  16
HETATM   16  C   UNL     1      41.128  -9.041   9.247  1.00  0.00     0.150 C 
BRANCH  16  17
HETATM   17  C   UNL     1      42.527  -9.456   9.741  1.00  0.00     0.253 C 
BRANCH  17  18
HETATM   18  N   UNL     1      42.484 -10.399  10.925  1.00  0.00    -0.077 N 
HETATM   19  H   UNL     1      41.981 -11.252  10.610  1.00  0.00     0.279 HD
HETATM   20  C   UNL     1      43.837 -10.845  11.407  1.00  0.00     0.269 C 
HETATM   21  C   UNL     1      41.680  -9.820  12.058  1.00  0.00     0.269 C 
ENDBRANCH  17  18
ENDBRANCH  16  17
ENDBRANCH  13  16
ENDBRANCH  11  12
ENDBRANCH   3  11
BRANCH   1  22
HETATM   22  C   UNL     1      41.543 -13.965   4.599  1.00  0.00    -0.024 C 
HETATM   23  C   UNL     1      40.720 -15.095   4.840  1.00  0.00    -0.053 C 
HETATM   24  C   UNL     1      40.241 -15.851   3.743  1.00  0.00     0.014 C 
HETATM   25  C   UNL     1      40.235 -15.580   6.177  1.00  0.00     0.049 C 
HETATM   26  C   UNL     1      40.596 -15.563   2.427  1.00  0.00    -0.061 C 
HETATM   27  C   UNL     1      39.947 -16.284   1.280  1.00  0.00     0.048 C 
HETATM   28  C   UNL     1      41.520 -14.553   2.200  1.00  0.00     0.007 C 
HETATM   29  C   UNL     1      41.995 -13.783   3.266  1.00  0.00     0.011 C 
ENDBRANCH   1  22
BRANCH  10  30
HETATM   30  C   UNL     1      43.917 -13.220   6.927  1.00  0.00     0.294 C 
HETATM   31  O   UNL     1      43.885 -12.707   8.032  1.00  0.00    -0.259 OA
BRANCH  30  32
HETATM   32  O   UNL     1      44.344 -14.458   6.618  1.00  0.00    -0.313 OA
BRANCH  32  33
HETATM   33  C   UNL     1      43.626 -15.540   7.237  1.00  0.00     0.217 C 
BRANCH  33  34
HETATM   34  C   UNL     1      43.687 -16.761   6.349  1.00  0.00    -0.034 A 
HETATM   35  C   UNL     1      43.977 -16.641   4.982  1.00  0.00     0.009 A 
HETATM   36  C   UNL     1      44.059 -17.778   4.172  1.00  0.00     0.001 A 
HETATM   37  C   UNL     1      43.847 -19.042   4.719  1.00  0.00     0.000 A 
HETATM   38  C   UNL     1      43.547 -19.172   6.073  1.00  0.00     0.001 A 
HETATM   39  C   UNL     1      43.463 -18.039   6.884  1.00  0.00     0.009 A 
ENDBRANCH  33  34
ENDBRANCH  32  33
ENDBRANCH  30  32
ENDBRANCH  10  30
TORSDOF 10
ENDMDL
MODEL 3
REMARK VINA RESULT:      -8.4      1.476      1.892
REMARK  10 active torsions:
REMARK  status: ('A' for Active; 'I' for Inactive)
REMARK    1  A    between atoms: C_6  and  C_7 
REMARK    2  A    between atoms: C_9  and  C_10 
REMARK    3  A    between atoms: C_10  and  C_11 
REMARK       I    between atoms: C_11  and  N_12 
REMARK    4  A    between atoms: N_12  and  C_13 
REMARK    5  A    between atoms: C_13  and  C_14 
REMARK    6  A    between atoms: C_14  and  N_15 
REMARK    7  A    between atoms: C_26  and  C_27 
REMARK    8  A    between atoms: C_27  and  O_28 
REMARK    9  A    between atoms: O_28  and  C_29 
REMARK   10  A    between atoms: C_29  and  C_30 
ROOT
HETATM    1  C   UNL     1      42.371 -12.287   4.876  1.00  0.00     0.166 C 
HETATM    2  N   UNL     1      41.225 -11.619   4.228  1.00  0.00    -0.318 N 
HETATM    3  C   UNL     1      41.007 -11.044   3.090  1.00  0.00     0.011 C 
HETATM    4  C   UNL     1      39.883 -11.841   4.978  1.00  0.00     0.170 C 
HETATM    5  S   UNL     1      38.649 -10.765   4.403  1.00  0.00    -0.086 SA
HETATM    6  C   UNL     1      39.654 -10.378   2.940  1.00  0.00     0.135 C 
HETATM    7  N   UNL     1      39.667 -12.769   5.840  1.00  0.00    -0.229 NA
HETATM    8  C   UNL     1      40.652 -13.726   6.002  1.00  0.00     0.048 C 
HETATM    9  C   UNL     1      40.167 -14.985   6.682  1.00  0.00     0.071 C 
HETATM   10  C   UNL     1      41.907 -13.560   5.529  1.00  0.00     0.069 C 
ENDROOT
BRANCH   3  11
HETATM   11  C   UNL     1      41.956 -11.158   1.936  1.00  0.00     0.156 C 
BRANCH  11  12
HETATM   12  C   UNL     1      41.359 -11.243   0.556  1.00  0.00     0.223 C 
HETATM   13  N   UNL     1      40.765 -12.453   0.291  1.00  0.00    -0.359 N 
HETATM   14  H   UNL     1      40.847 -13.183   0.998  1.00  0.00     0.162 HD
HETATM   15  O   UNL     1      41.435 -10.328  -0.256  1.00  0.00    -0.273 OA
BRANCH  13  16
HETATM   16  C   UNL     1      40.381 -12.950  -1.032  1.00  0.00     0.150 C 
BRANCH  16  17
HETATM   17  C   UNL     1      39.635 -14.297  -1.091  1.00  0.00     0.253 C 
BRANCH  17  18
HETATM   18  N   UNL     1      38.323 -14.218  -1.843  1.00  0.00    -0.077 N 
HETATM   19  H   UNL     1      37.648 -14.820  -1.331  1.00  0.00     0.279 HD
HETATM   20  C   UNL     1      37.724 -12.838  -1.890  1.00  0.00     0.269 C 
HETATM   21  C   UNL     1      38.449 -14.792  -3.228  1.00  0.00     0.269 C 
ENDBRANCH  17  18
ENDBRANCH  16  17
ENDBRANCH  13  16
ENDBRANCH  11  12
ENDBRANCH   3  11
BRANCH   1  22
HETATM   22  C   UNL     1      43.185 -11.405   5.858  1.00  0.00    -0.024 C 
HETATM   23  C   UNL     1      42.685 -10.553   6.876  1.00  0.00    -0.053 C 
HETATM   24  C   UNL     1      43.541 -10.157   7.932  1.00  0.00     0.014 C 
HETATM   25  C   UNL     1      41.280 -10.035   7.000  1.00  0.00     0.049 C 
HETATM   26  C   UNL     1      44.884 -10.526   7.982  1.00  0.00    -0.061 C 
HETATM   27  C   UNL     1      45.721 -10.223   9.191  1.00  0.00     0.048 C 
HETATM   28  C   UNL     1      45.413 -11.233   6.911  1.00  0.00     0.007 C 
HETATM   29  C   UNL     1      44.583 -11.648   5.865  1.00  0.00     0.011 C 
ENDBRANCH   1  22
BRANCH  10  30
HETATM   30  C   UNL     1      42.770 -14.748   5.350  1.00  0.00     0.294 C 
HETATM   31  O   UNL     1      43.676 -15.002   6.125  1.00  0.00    -0.259 OA
BRANCH  30  32
HETATM   32  O   UNL     1      42.316 -15.526   4.349  1.00  0.00    -0.313 OA
BRANCH  32  33
HETATM   33  C   UNL     1      43.277 -15.860   3.332  1.00  0.00     0.217 C 
BRANCH  33  34
HETATM   34  C   UNL     1      43.469 -17.357   3.288  1.00  0.00    -0.034 A 
HETATM   35  C   UNL     1      44.073 -18.035   4.357  1.00  0.00     0.009 A 
HETATM   36  C   UNL     1      44.223 -19.425   4.322  1.00  0.00     0.001 A 
HETATM   37  C   UNL     1      43.777 -20.148   3.218  1.00  0.00     0.000 A 
HETATM   38  C   UNL     1      43.185 -19.484   2.145  1.00  0.00     0.001 A 
HETATM   39  C   UNL     1      43.036 -18.096   2.177  1.00  0.00     0.009 A 
ENDBRANCH  33  34
ENDBRANCH  32  33
ENDBRANCH  30  32
ENDBRANCH  10  30
TORSDOF 10
ENDMDL
MODEL 4
REMARK VINA RESULT:      -8.2      3.520      7.204
REMARK  10 active torsions:
REMARK  status: ('A' for Active; 'I' for Inactive)
REMARK    1  A    between atoms: C_6  and  C_7 
REMARK    2  A    between atoms: C_9  and  C_10 
REMARK    3  A    between atoms: C_10  and  C_11 
REMARK       I    between atoms: C_11  and  N_12 
REMARK    4  A    between atoms: N_12  and  C_13 
REMARK    5  A    between atoms: C_13  and  C_14 
REMARK    6  A    between atoms: C_14  and  N_15 
REMARK    7  A    between atoms: C_26  and  C_27 
REMARK    8  A    between atoms: C_27  and  O_28 
REMARK    9  A    between atoms: O_28  and  C_29 
REMARK   10  A    between atoms: C_29  and  C_30 
ROOT
HETATM    1  C   UNL     1      41.964 -11.179   5.182  1.00  0.00     0.166 C 
HETATM    2  N   UNL     1      41.357 -10.496   6.341  1.00  0.00    -0.318 N 
HETATM    3  C   UNL     1      41.752  -9.639   7.225  1.00  0.00     0.011 C 
HETATM    4  C   UNL     1      39.812 -10.652   6.404  1.00  0.00     0.170 C 
HETATM    5  S   UNL     1      39.186 -10.154   7.943  1.00  0.00    -0.086 SA
HETATM    6  C   UNL     1      40.757  -9.326   8.326  1.00  0.00     0.135 C 
HETATM    7  N   UNL     1      39.068 -11.003   5.416  1.00  0.00    -0.229 NA
HETATM    8  C   UNL     1      39.668 -11.104   4.174  1.00  0.00     0.048 C 
HETATM    9  C   UNL     1      38.686 -11.090   3.026  1.00  0.00     0.071 C 
HETATM   10  C   UNL     1      41.009 -11.142   4.020  1.00  0.00     0.069 C 
ENDROOT
BRANCH   3  11
HETATM   11  C   UNL     1      43.038  -8.883   7.095  1.00  0.00     0.156 C 
BRANCH  11  12
HETATM   12  C   UNL     1      43.862  -8.699   8.343  1.00  0.00     0.223 C 
HETATM   13  N   UNL     1      44.055  -9.863   9.046  1.00  0.00    -0.359 N 
HETATM   14  H   UNL     1      43.577 -10.700   8.713  1.00  0.00     0.162 HD
HETATM   15  O   UNL     1      44.280  -7.606   8.705  1.00  0.00    -0.273 OA
BRANCH  13  16
HETATM   16  C   UNL     1      44.531  -9.963  10.427  1.00  0.00     0.150 C 
BRANCH  16  17
HETATM   17  C   UNL     1      43.630 -10.705  11.433  1.00  0.00     0.253 C 
BRANCH  17  18
HETATM   18  N   UNL     1      42.912  -9.773  12.388  1.00  0.00    -0.077 N 
HETATM   19  H   UNL     1      43.141 -10.096  13.349  1.00  0.00     0.279 HD
HETATM   20  C   UNL     1      43.354  -8.338  12.294  1.00  0.00     0.269 C 
HETATM   21  C   UNL     1      41.419  -9.882  12.242  1.00  0.00     0.269 C 
ENDBRANCH  17  18
ENDBRANCH  16  17
ENDBRANCH  13  16
ENDBRANCH  11  12
ENDBRANCH   3  11
BRANCH   1  22
HETATM   22  C   UNL     1      42.477 -12.617   5.454  1.00  0.00    -0.024 C 
HETATM   23  C   UNL     1      43.643 -13.001   6.165  1.00  0.00    -0.053 C 
HETATM   24  C   UNL     1      43.742 -14.318   6.675  1.00  0.00     0.014 C 
HETATM   25  C   UNL     1      44.817 -12.126   6.498  1.00  0.00     0.049 C 
HETATM   26  C   UNL     1      42.758 -15.280   6.454  1.00  0.00    -0.061 C 
HETATM   27  C   UNL     1      42.819 -16.614   7.140  1.00  0.00     0.048 C 
HETATM   28  C   UNL     1      41.689 -14.951   5.632  1.00  0.00     0.007 C 
HETATM   29  C   UNL     1      41.562 -13.652   5.130  1.00  0.00     0.011 C 
ENDBRANCH   1  22
BRANCH  10  30
HETATM   30  C   UNL     1      41.590 -10.823   2.697  1.00  0.00     0.294 C 
HETATM   31  O   UNL     1      41.505  -9.706   2.215  1.00  0.00    -0.259 OA
BRANCH  30  32
HETATM   32  O   UNL     1      42.309 -11.858   2.225  1.00  0.00    -0.313 OA
BRANCH  32  33
HETATM   33  C   UNL     1      41.634 -12.710   1.282  1.00  0.00     0.217 C 
BRANCH  33  34
HETATM   34  C   UNL     1      41.852 -14.155   1.660  1.00  0.00    -0.034 A 
HETATM   35  C   UNL     1      43.145 -14.653   1.880  1.00  0.00     0.009 A 
HETATM   36  C   UNL     1      43.338 -15.986   2.256  1.00  0.00     0.001 A 
HETATM   37  C   UNL     1      42.243 -16.834   2.409  1.00  0.00     0.000 A 
HETATM   38  C   UNL     1      40.955 -16.354   2.182  1.00  0.00     0.001 A 
HETATM   39  C   UNL     1      40.760 -15.024   1.805  1.00  0.00     0.009 A 
ENDBRANCH  33  34
ENDBRANCH  32  33
ENDBRANCH  30  32
ENDBRANCH  10  30
TORSDOF 10
ENDMDL
MODEL 5
REMARK VINA RESULT:      -8.2      2.579      4.363
REMARK  10 active torsions:
REMARK  status: ('A' for Active; 'I' for Inactive)
REMARK    1  A    between atoms: C_6  and  C_7 
REMARK    2  A    between atoms: C_9  and  C_10 
REMARK    3  A    between atoms: C_10  and  C_11 
REMARK       I    between atoms: C_11  and  N_12 
REMARK    4  A    between atoms: N_12  and  C_13 
REMARK    5  A    between atoms: C_13  and  C_14 
REMARK    6  A    between atoms: C_14  and  N_15 
REMARK    7  A    between atoms: C_26  and  C_27 
REMARK    8  A    between atoms: C_27  and  O_28 
REMARK    9  A    between atoms: O_28  and  C_29 
REMARK   10  A    between atoms: C_29  and  C_30 
ROOT
HETATM    1  C   UNL     1      40.165 -12.479   3.399  1.00  0.00     0.166 C 
HETATM    2  N   UNL     1      40.089 -11.281   2.540  1.00  0.00    -0.318 N 
HETATM    3  C   UNL     1      39.244 -10.804   1.685  1.00  0.00     0.011 C 
HETATM    4  C   UNL     1      41.155 -10.208   2.890  1.00  0.00     0.170 C 
HETATM    5  S   UNL     1      41.268  -8.997   1.653  1.00  0.00    -0.086 SA
HETATM    6  C   UNL     1      39.690  -9.557   0.947  1.00  0.00     0.135 C 
HETATM    7  N   UNL     1      41.805 -10.150   3.998  1.00  0.00    -0.229 NA
HETATM    8  C   UNL     1      41.419 -11.016   5.005  1.00  0.00     0.048 C 
HETATM    9  C   UNL     1      41.911 -10.609   6.374  1.00  0.00     0.071 C 
HETATM   10  C   UNL     1      40.621 -12.082   4.776  1.00  0.00     0.069 C 
ENDROOT
BRANCH   3  11
HETATM   11  C   UNL     1      37.854 -11.344   1.540  1.00  0.00     0.156 C 
BRANCH  11  12
HETATM   12  C   UNL     1      37.237 -11.305   0.166  1.00  0.00     0.223 C 
HETATM   13  N   UNL     1      37.649 -12.333  -0.647  1.00  0.00    -0.359 N 
HETATM   14  H   UNL     1      38.366 -12.961  -0.286  1.00  0.00     0.162 HD
HETATM   15  O   UNL     1      36.473 -10.416  -0.192  1.00  0.00    -0.273 OA
BRANCH  13  16
HETATM   16  C   UNL     1      37.481 -12.399  -2.100  1.00  0.00     0.150 C 
BRANCH  16  17
HETATM   17  C   UNL     1      38.711 -12.069  -2.969  1.00  0.00     0.253 C 
BRANCH  17  18
HETATM   18  N   UNL     1      39.996 -12.660  -2.427  1.00  0.00    -0.077 N 
HETATM   19  H   UNL     1      40.013 -12.456  -1.409  1.00  0.00     0.279 HD
HETATM   20  C   UNL     1      40.096 -14.154  -2.573  1.00  0.00     0.269 C 
HETATM   21  C   UNL     1      41.203 -11.985  -3.021  1.00  0.00     0.269 C 
ENDBRANCH  17  18
ENDBRANCH  16  17
ENDBRANCH  13  16
ENDBRANCH  11  12
ENDBRANCH   3  11
BRANCH   1  22
HETATM   22  C   UNL     1      41.011 -13.649   2.832  1.00  0.00    -0.024 C 
HETATM   23  C   UNL     1      42.423 -13.779   2.834  1.00  0.00    -0.053 C 
HETATM   24  C   UNL     1      43.002 -15.060   2.668  1.00  0.00     0.014 C 
HETATM   25  C   UNL     1      43.422 -12.678   3.049  1.00  0.00     0.049 C 
HETATM   26  C   UNL     1      42.236 -16.202   2.441  1.00  0.00    -0.061 C 
HETATM   27  C   UNL     1      42.870 -17.563   2.427  1.00  0.00     0.048 C 
HETATM   28  C   UNL     1      40.865 -16.055   2.288  1.00  0.00     0.007 C 
HETATM   29  C   UNL     1      40.269 -14.802   2.464  1.00  0.00     0.011 C 
ENDBRANCH   1  22
BRANCH  10  30
HETATM   30  C   UNL     1      39.908 -12.704   5.914  1.00  0.00     0.294 C 
HETATM   31  O   UNL     1      38.715 -12.531   6.091  1.00  0.00    -0.259 OA
BRANCH  30  32
HETATM   32  O   UNL     1      40.712 -13.554   6.578  1.00  0.00    -0.313 OA
BRANCH  32  33
HETATM   33  C   UNL     1      40.590 -14.942   6.217  1.00  0.00     0.217 C 
BRANCH  33  34
HETATM   34  C   UNL     1      41.958 -15.582   6.197  1.00  0.00    -0.034 A 
HETATM   35  C   UNL     1      42.100 -16.968   6.033  1.00  0.00     0.009 A 
HETATM   36  C   UNL     1      43.370 -17.550   5.988  1.00  0.00     0.001 A 
HETATM   37  C   UNL     1      44.508 -16.755   6.113  1.00  0.00     0.000 A 
HETATM   38  C   UNL     1      44.379 -15.379   6.287  1.00  0.00     0.001 A 
HETATM   39  C   UNL     1      43.112 -14.795   6.334  1.00  0.00     0.009 A 
ENDBRANCH  33  34
ENDBRANCH  32  33
ENDBRANCH  30  32
ENDBRANCH  10  30
TORSDOF 10
ENDMDL
MODEL 6
REMARK VINA RESULT:      -8.2      2.949      6.658
REMARK  10 active torsions:
REMARK  status: ('A' for Active; 'I' for Inactive)
REMARK    1  A    between atoms: C_6  and  C_7 
REMARK    2  A    between atoms: C_9  and  C_10 
REMARK    3  A    between atoms: C_10  and  C_11 
REMARK       I    between atoms: C_11  and  N_12 
REMARK    4  A    between atoms: N_12  and  C_13 
REMARK    5  A    between atoms: C_13  and  C_14 
REMARK    6  A    between atoms: C_14  and  N_15 
REMARK    7  A    between atoms: C_26  and  C_27 
REMARK    8  A    between atoms: C_27  and  O_28 
REMARK    9  A    between atoms: O_28  and  C_29 
REMARK   10  A    between atoms: C_29  and  C_30 
ROOT
HETATM    1  C   UNL     1      42.566 -13.765   4.848  1.00  0.00     0.166 C 
HETATM    2  N   UNL     1      41.765 -12.612   5.304  1.00  0.00    -0.318 N 
HETATM    3  C   UNL     1      42.012 -11.477   5.873  1.00  0.00     0.011 C 
HETATM    4  C   UNL     1      40.299 -12.642   4.790  1.00  0.00     0.170 C 
HETATM    5  S   UNL     1      39.309 -11.488   5.625  1.00  0.00    -0.086 SA
HETATM    6  C   UNL     1      40.795 -10.661   6.265  1.00  0.00     0.135 C 
HETATM    7  N   UNL     1      39.881 -13.349   3.802  1.00  0.00    -0.229 NA
HETATM    8  C   UNL     1      40.833 -14.016   3.051  1.00  0.00     0.048 C 
HETATM    9  C   UNL     1      40.335 -14.453   1.694  1.00  0.00     0.071 C 
HETATM   10  C   UNL     1      42.102 -14.189   3.481  1.00  0.00     0.069 C 
ENDROOT
BRANCH   3  11
HETATM   11  C   UNL     1      43.398 -10.924   5.998  1.00  0.00     0.156 C 
BRANCH  11  12
HETATM   12  C   UNL     1      44.110 -11.131   7.309  1.00  0.00     0.223 C 
HETATM   13  N   UNL     1      43.406 -10.664   8.393  1.00  0.00    -0.359 N 
HETATM   14  H   UNL     1      42.534 -10.168   8.210  1.00  0.00     0.162 HD
HETATM   15  O   UNL     1      45.225 -11.635   7.385  1.00  0.00    -0.273 OA
BRANCH  13  16
HETATM   16  C   UNL     1      43.946 -10.437   9.735  1.00  0.00     0.150 C 
BRANCH  16  17
HETATM   17  C   UNL     1      43.532  -9.138  10.453  1.00  0.00     0.253 C 
BRANCH  17  18
HETATM   18  N   UNL     1      43.154  -9.356  11.904  1.00  0.00    -0.077 N 
HETATM   19  H   UNL     1      43.789 -10.092  12.270  1.00  0.00     0.279 HD
HETATM   20  C   UNL     1      43.343  -8.145  12.776  1.00  0.00     0.269 C 
HETATM   21  C   UNL     1      41.754  -9.891  12.031  1.00  0.00     0.269 C 
ENDBRANCH  17  18
ENDBRANCH  16  17
ENDBRANCH  13  16
ENDBRANCH  11  12
ENDBRANCH   3  11
BRANCH   1  22
HETATM   22  C   UNL     1      42.623 -14.964   5.830  1.00  0.00    -0.024 C 
HETATM   23  C   UNL     1      41.632 -15.955   6.046  1.00  0.00    -0.053 C 
HETATM   24  C   UNL     1      41.999 -17.184   6.646  1.00  0.00     0.014 C 
HETATM   25  C   UNL     1      40.183 -15.873   5.655  1.00  0.00     0.049 C 
HETATM   26  C   UNL     1      43.295 -17.440   7.091  1.00  0.00    -0.061 C 
HETATM   27  C   UNL     1      43.686 -18.806   7.575  1.00  0.00     0.048 C 
HETATM   28  C   UNL     1      44.229 -16.417   7.017  1.00  0.00     0.007 C 
HETATM   29  C   UNL     1      43.894 -15.200   6.415  1.00  0.00     0.011 C 
ENDBRANCH   1  22
BRANCH  10  30
HETATM   30  C   UNL     1      43.157 -14.512   2.495  1.00  0.00     0.294 C 
HETATM   31  O   UNL     1      43.586 -13.674   1.722  1.00  0.00    -0.259 OA
BRANCH  30  32
HETATM   32  O   UNL     1      43.634 -15.755   2.692  1.00  0.00    -0.313 OA
BRANCH  32  33
HETATM   33  C   UNL     1      42.939 -16.809   2.001  1.00  0.00     0.217 C 
BRANCH  33  34
HETATM   34  C   UNL     1      43.342 -18.144   2.580  1.00  0.00    -0.034 A 
HETATM   35  C   UNL     1      44.062 -18.220   3.781  1.00  0.00     0.009 A 
HETATM   36  C   UNL     1      44.407 -19.460   4.325  1.00  0.00     0.001 A 
HETATM   37  C   UNL     1      44.042 -20.636   3.671  1.00  0.00     0.000 A 
HETATM   38  C   UNL     1      43.337 -20.573   2.471  1.00  0.00     0.001 A 
HETATM   39  C   UNL     1      42.992 -19.336   1.925  1.00  0.00     0.009 A 
ENDBRANCH  33  34
ENDBRANCH  32  33
ENDBRANCH  30  32
ENDBRANCH  10  30
TORSDOF 10
ENDMDL
MODEL 7
REMARK VINA RESULT:      -7.9      4.004      7.606
REMARK  10 active torsions:
REMARK  status: ('A' for Active; 'I' for Inactive)
REMARK    1  A    between atoms: C_6  and  C_7 
REMARK    2  A    between atoms: C_9  and  C_10 
REMARK    3  A    between atoms: C_10  and  C_11 
REMARK       I    between atoms: C_11  and  N_12 
REMARK    4  A    between atoms: N_12  and  C_13 
REMARK    5  A    between atoms: C_13  and  C_14 
REMARK    6  A    between atoms: C_14  and  N_15 
REMARK    7  A    between atoms: C_26  and  C_27 
REMARK    8  A    between atoms: C_27  and  O_28 
REMARK    9  A    between atoms: O_28  and  C_29 
REMARK   10  A    between atoms: C_29  and  C_30 
ROOT
HETATM    1  C   UNL     1      41.653 -12.046   5.875  1.00  0.00     0.166 C 
HETATM    2  N   UNL     1      42.574 -11.185   6.642  1.00  0.00    -0.318 N 
HETATM    3  C   UNL     1      42.458 -10.140   7.395  1.00  0.00     0.011 C 
HETATM    4  C   UNL     1      44.001 -11.784   6.780  1.00  0.00     0.170 C 
HETATM    5  S   UNL     1      45.132 -10.604   7.363  1.00  0.00    -0.086 SA
HETATM    6  C   UNL     1      43.760  -9.527   7.873  1.00  0.00     0.135 C 
HETATM    7  N   UNL     1      44.301 -13.020   6.592  1.00  0.00    -0.229 NA
HETATM    8  C   UNL     1      43.255 -13.904   6.399  1.00  0.00     0.048 C 
HETATM    9  C   UNL     1      43.638 -15.349   6.617  1.00  0.00     0.071 C 
HETATM   10  C   UNL     1      42.002 -13.491   6.111  1.00  0.00     0.069 C 
ENDROOT
BRANCH   3  11
HETATM   11  C   UNL     1      41.134  -9.652   7.896  1.00  0.00     0.156 C 
BRANCH  11  12
HETATM   12  C   UNL     1      41.119  -8.926   9.216  1.00  0.00     0.223 C 
HETATM   13  N   UNL     1      41.066  -9.766  10.302  1.00  0.00    -0.359 N 
HETATM   14  H   UNL     1      40.968 -10.764  10.120  1.00  0.00     0.162 HD
HETATM   15  O   UNL     1      41.116  -7.703   9.299  1.00  0.00    -0.273 OA
BRANCH  13  16
HETATM   16  C   UNL     1      40.732  -9.377  11.673  1.00  0.00     0.150 C 
BRANCH  16  17
HETATM   17  C   UNL     1      41.481 -10.094  12.813  1.00  0.00     0.253 C 
BRANCH  17  18
HETATM   18  N   UNL     1      42.353  -9.163  13.629  1.00  0.00    -0.077 N 
HETATM   19  H   UNL     1      43.090  -9.751  14.067  1.00  0.00     0.279 HD
HETATM   20  C   UNL     1      43.061  -8.113  12.817  1.00  0.00     0.269 C 
HETATM   21  C   UNL     1      41.579  -8.533  14.756  1.00  0.00     0.269 C 
ENDBRANCH  17  18
ENDBRANCH  16  17
ENDBRANCH  13  16
ENDBRANCH  11  12
ENDBRANCH   3  11
BRANCH   1  22
HETATM   22  C   UNL     1      41.548 -11.723   4.362  1.00  0.00    -0.024 C 
HETATM   23  C   UNL     1      42.589 -11.731   3.400  1.00  0.00    -0.053 C 
HETATM   24  C   UNL     1      42.262 -11.826   2.025  1.00  0.00     0.014 C 
HETATM   25  C   UNL     1      44.065 -11.696   3.677  1.00  0.00     0.049 C 
HETATM   26  C   UNL     1      40.945 -11.853   1.571  1.00  0.00    -0.061 C 
HETATM   27  C   UNL     1      40.635 -12.114   0.125  1.00  0.00     0.048 C 
HETATM   28  C   UNL     1      39.926 -11.694   2.499  1.00  0.00     0.007 C 
HETATM   29  C   UNL     1      40.224 -11.614   3.863  1.00  0.00     0.011 C 
ENDBRANCH   1  22
BRANCH  10  30
HETATM   30  C   UNL     1      40.870 -14.416   6.336  1.00  0.00     0.294 C 
HETATM   31  O   UNL     1      39.772 -14.011   6.674  1.00  0.00    -0.259 OA
BRANCH  30  32
HETATM   32  O   UNL     1      41.197 -15.671   5.976  1.00  0.00    -0.313 OA
BRANCH  32  33
HETATM   33  C   UNL     1      40.498 -16.197   4.834  1.00  0.00     0.217 C 
BRANCH  33  34
HETATM   34  C   UNL     1      41.420 -16.207   3.638  1.00  0.00    -0.034 A 
HETATM   35  C   UNL     1      41.170 -15.381   2.531  1.00  0.00     0.009 A 
HETATM   36  C   UNL     1      42.042 -15.376   1.439  1.00  0.00     0.001 A 
HETATM   37  C   UNL     1      43.167 -16.198   1.439  1.00  0.00     0.000 A 
HETATM   38  C   UNL     1      43.419 -17.031   2.527  1.00  0.00     0.001 A 
HETATM   39  C   UNL     1      42.549 -17.040   3.618  1.00  0.00     0.009 A 
ENDBRANCH  33  34
ENDBRANCH  32  33
ENDBRANCH  30  32
ENDBRANCH  10  30
TORSDOF 10
ENDMDL
MODEL 8
REMARK VINA RESULT:      -7.9      8.133     11.849
REMARK  10 active torsions:
REMARK  status: ('A' for Active; 'I' for Inactive)
REMARK    1  A    between atoms: C_6  and  C_7 
REMARK    2  A    between atoms: C_9  and  C_10 
REMARK    3  A    between atoms: C_10  and  C_11 
REMARK       I    between atoms: C_11  and  N_12 
REMARK    4  A    between atoms: N_12  and  C_13 
REMARK    5  A    between atoms: C_13  and  C_14 
REMARK    6  A    between atoms: C_14  and  N_15 
REMARK    7  A    between atoms: C_26  and  C_27 
REMARK    8  A    between atoms: C_27  and  O_28 
REMARK    9  A    between atoms: O_28  and  C_29 
REMARK   10  A    between atoms: C_29  and  C_30 
ROOT
HETATM    1  C   UNL     1      41.071  -7.690  11.684  1.00  0.00     0.166 C 
HETATM    2  N   UNL     1      41.035  -8.071  10.259  1.00  0.00    -0.318 N 
HETATM    3  C   UNL     1      41.799  -7.896   9.231  1.00  0.00     0.011 C 
HETATM    4  C   UNL     1      39.941  -9.126   9.934  1.00  0.00     0.170 C 
HETATM    5  S   UNL     1      39.692  -9.277   8.224  1.00  0.00    -0.086 SA
HETATM    6  C   UNL     1      41.247  -8.392   7.909  1.00  0.00     0.135 C 
HETATM    7  N   UNL     1      39.362  -9.875  10.803  1.00  0.00    -0.229 NA
HETATM    8  C   UNL     1      39.852  -9.843  12.096  1.00  0.00     0.048 C 
HETATM    9  C   UNL     1      39.429 -11.028  12.933  1.00  0.00     0.071 C 
HETATM   10  C   UNL     1      40.684  -8.872  12.531  1.00  0.00     0.069 C 
ENDROOT
BRANCH   3  11
HETATM   11  C   UNL     1      43.202  -7.383   9.349  1.00  0.00     0.156 C 
BRANCH  11  12
HETATM   12  C   UNL     1      44.300  -8.231   8.763  1.00  0.00     0.223 C 
HETATM   13  N   UNL     1      44.015  -9.575   8.768  1.00  0.00    -0.359 N 
HETATM   14  H   UNL     1      43.151  -9.871   9.222  1.00  0.00     0.162 HD
HETATM   15  O   UNL     1      45.357  -7.759   8.359  1.00  0.00    -0.273 OA
BRANCH  13  16
HETATM   16  C   UNL     1      44.978 -10.658   8.563  1.00  0.00     0.150 C 
BRANCH  16  17
HETATM   17  C   UNL     1      44.793 -11.540   7.312  1.00  0.00     0.253 C 
BRANCH  17  18
HETATM   18  N   UNL     1      43.429 -12.192   7.241  1.00  0.00    -0.077 N 
HETATM   19  H   UNL     1      43.002 -12.095   8.183  1.00  0.00     0.279 HD
HETATM   20  C   UNL     1      42.485 -11.541   6.267  1.00  0.00     0.269 C 
HETATM   21  C   UNL     1      43.540 -13.668   6.969  1.00  0.00     0.269 C 
ENDBRANCH  17  18
ENDBRANCH  16  17
ENDBRANCH  13  16
ENDBRANCH  11  12
ENDBRANCH   3  11
BRANCH   1  22
HETATM   22  C   UNL     1      40.249  -6.429  12.055  1.00  0.00    -0.024 C 
HETATM   23  C   UNL     1      40.594  -5.072  11.828  1.00  0.00    -0.053 C 
HETATM   24  C   UNL     1      39.577  -4.087  11.839  1.00  0.00     0.014 C 
HETATM   25  C   UNL     1      41.962  -4.536  11.516  1.00  0.00     0.049 C 
HETATM   26  C   UNL     1      38.247  -4.389  12.125  1.00  0.00    -0.061 C 
HETATM   27  C   UNL     1      37.172  -3.352  11.973  1.00  0.00     0.048 C 
HETATM   28  C   UNL     1      37.934  -5.689  12.495  1.00  0.00     0.007 C 
HETATM   29  C   UNL     1      38.918  -6.682  12.476  1.00  0.00     0.011 C 
ENDBRANCH   1  22
BRANCH  10  30
HETATM   30  C   UNL     1      41.497  -9.112  13.744  1.00  0.00     0.294 C 
HETATM   31  O   UNL     1      42.649  -9.505  13.673  1.00  0.00    -0.259 OA
BRANCH  30  32
HETATM   32  O   UNL     1      40.846  -8.701  14.847  1.00  0.00    -0.313 OA
BRANCH  32  33
HETATM   33  C   UNL     1      41.532  -7.725  15.652  1.00  0.00     0.217 C 
BRANCH  33  34
HETATM   34  C   UNL     1      40.735  -6.443  15.681  1.00  0.00    -0.034 A 
HETATM   35  C   UNL     1      39.382  -6.447  16.051  1.00  0.00     0.009 A 
HETATM   36  C   UNL     1      38.657  -5.252  16.102  1.00  0.00     0.001 A 
HETATM   37  C   UNL     1      39.275  -4.046  15.779  1.00  0.00     0.000 A 
HETATM   38  C   UNL     1      40.615  -4.031  15.399  1.00  0.00     0.001 A 
HETATM   39  C   UNL     1      41.341  -5.223  15.346  1.00  0.00     0.009 A 
ENDBRANCH  33  34
ENDBRANCH  32  33
ENDBRANCH  30  32
ENDBRANCH  10  30
TORSDOF 10
ENDMDL
MODEL 9
REMARK VINA RESULT:      -7.9      2.284      2.582
REMARK  10 active torsions:
REMARK  status: ('A' for Active; 'I' for Inactive)
REMARK    1  A    between atoms: C_6  and  C_7 
REMARK    2  A    between atoms: C_9  and  C_10 
REMARK    3  A    between atoms: C_10  and  C_11 
REMARK       I    between atoms: C_11  and  N_12 
REMARK    4  A    between atoms: N_12  and  C_13 
REMARK    5  A    between atoms: C_13  and  C_14 
REMARK    6  A    between atoms: C_14  and  N_15 
REMARK    7  A    between atoms: C_26  and  C_27 
REMARK    8  A    between atoms: C_27  and  O_28 
REMARK    9  A    between atoms: O_28  and  C_29 
REMARK   10  A    between atoms: C_29  and  C_30 
ROOT
HETATM    1  C   UNL     1      41.577 -13.345   4.527  1.00  0.00     0.166 C 
HETATM    2  N   UNL     1      40.489 -12.353   4.624  1.00  0.00    -0.318 N 
HETATM    3  C   UNL     1      39.952 -11.483   3.831  1.00  0.00     0.011 C 
HETATM    4  C   UNL     1      39.615 -12.525   5.896  1.00  0.00     0.170 C 
HETATM    5  S   UNL     1      38.593 -11.147   6.156  1.00  0.00    -0.086 SA
HETATM    6  C   UNL     1      38.906 -10.582   4.458  1.00  0.00     0.135 C 
HETATM    7  N   UNL     1      39.564 -13.589   6.615  1.00  0.00    -0.229 NA
HETATM    8  C   UNL     1      40.222 -14.709   6.138  1.00  0.00     0.048 C 
HETATM    9  C   UNL     1      39.772 -15.997   6.787  1.00  0.00     0.071 C 
HETATM   10  C   UNL     1      41.129 -14.644   5.139  1.00  0.00     0.069 C 
ENDROOT
BRANCH   3  11
HETATM   11  C   UNL     1      40.220 -11.463   2.357  1.00  0.00     0.156 C 
BRANCH  11  12
HETATM   12  C   UNL     1      40.781 -10.193   1.774  1.00  0.00     0.223 C 
HETATM   13  N   UNL     1      40.965 -10.251   0.414  1.00  0.00    -0.359 N 
HETATM   14  H   UNL     1      40.784 -11.141  -0.049  1.00  0.00     0.162 HD
HETATM   15  O   UNL     1      41.077  -9.223   2.462  1.00  0.00    -0.273 OA
BRANCH  13  16
HETATM   16  C   UNL     1      41.765  -9.320  -0.386  1.00  0.00     0.150 C 
BRANCH  16  17
HETATM   17  C   UNL     1      41.027  -8.498  -1.460  1.00  0.00     0.253 C 
BRANCH  17  18
HETATM   18  N   UNL     1      41.708  -8.539  -2.812  1.00  0.00    -0.077 N 
HETATM   19  H   UNL     1      42.561  -9.121  -2.699  1.00  0.00     0.279 HD
HETATM   20  C   UNL     1      40.885  -9.179  -3.896  1.00  0.00     0.269 C 
HETATM   21  C   UNL     1      42.173  -7.171  -3.233  1.00  0.00     0.269 C 
ENDBRANCH  17  18
ENDBRANCH  16  17
ENDBRANCH  13  16
ENDBRANCH  11  12
ENDBRANCH   3  11
BRANCH   1  22
HETATM   22  C   UNL     1      42.945 -12.888   5.095  1.00  0.00    -0.024 C 
HETATM   23  C   UNL     1      43.859 -11.968   4.520  1.00  0.00    -0.053 C 
HETATM   24  C   UNL     1      44.834 -11.354   5.342  1.00  0.00     0.014 C 
HETATM   25  C   UNL     1      43.888 -11.511   3.089  1.00  0.00     0.049 C 
HETATM   26  C   UNL     1      44.973 -11.662   6.694  1.00  0.00    -0.061 C 
HETATM   27  C   UNL     1      45.909 -10.879   7.569  1.00  0.00     0.048 C 
HETATM   28  C   UNL     1      44.181 -12.670   7.223  1.00  0.00     0.007 C 
HETATM   29  C   UNL     1      43.200 -13.280   6.435  1.00  0.00     0.011 C 
ENDBRANCH   1  22
BRANCH  10  30
HETATM   30  C   UNL     1      41.469 -15.878   4.396  1.00  0.00     0.294 C 
HETATM   31  O   UNL     1      40.801 -16.259   3.451  1.00  0.00    -0.259 OA
BRANCH  30  32
HETATM   32  O   UNL     1      42.645 -16.382   4.815  1.00  0.00    -0.313 OA
BRANCH  32  33
HETATM   33  C   UNL     1      43.578 -16.735   3.779  1.00  0.00     0.217 C 
BRANCH  33  34
HETATM   34  C   UNL     1      43.708 -18.238   3.706  1.00  0.00    -0.034 A 
HETATM   35  C   UNL     1      44.076 -18.983   4.836  1.00  0.00     0.009 A 
HETATM   36  C   UNL     1      44.168 -20.377   4.768  1.00  0.00     0.001 A 
HETATM   37  C   UNL     1      43.899 -21.037   3.571  1.00  0.00     0.000 A 
HETATM   38  C   UNL     1      43.544 -20.307   2.439  1.00  0.00     0.001 A 
HETATM   39  C   UNL     1      43.453 -18.915   2.504  1.00  0.00     0.009 A 
ENDBRANCH  33  34
ENDBRANCH  32  33
ENDBRANCH  30  32
ENDBRANCH  10  30
TORSDOF 10
ENDMDL
MODEL 10
REMARK VINA RESULT:      -7.8      3.799      7.400
REMARK  10 active torsions:
REMARK  status: ('A' for Active; 'I' for Inactive)
REMARK    1  A    between atoms: C_6  and  C_7 
REMARK    2  A    between atoms: C_9  and  C_10 
REMARK    3  A    between atoms: C_10  and  C_11 
REMARK       I    between atoms: C_11  and  N_12 
REMARK    4  A    between atoms: N_12  and  C_13 
REMARK    5  A    between atoms: C_13  and  C_14 
REMARK    6  A    between atoms: C_14  and  N_15 
REMARK    7  A    between atoms: C_26  and  C_27 
REMARK    8  A    between atoms: C_27  and  O_28 
REMARK    9  A    between atoms: O_28  and  C_29 
REMARK   10  A    between atoms: C_29  and  C_30 
ROOT
HETATM    1  C   UNL     1      41.147 -12.249   5.661  1.00  0.00     0.166 C 
HETATM    2  N   UNL     1      41.723 -11.152   6.463  1.00  0.00    -0.318 N 
HETATM    3  C   UNL     1      41.261 -10.131   7.108  1.00  0.00     0.011 C 
HETATM    4  C   UNL     1      43.217 -11.377   6.824  1.00  0.00     0.170 C 
HETATM    5  S   UNL     1      43.946  -9.930   7.444  1.00  0.00    -0.086 SA
HETATM    6  C   UNL     1      42.302  -9.197   7.692  1.00  0.00     0.135 C 
HETATM    7  N   UNL     1      43.823 -12.510   6.775  1.00  0.00    -0.229 NA
HETATM    8  C   UNL     1      43.052 -13.631   6.527  1.00  0.00     0.048 C 
HETATM    9  C   UNL     1      43.730 -14.927   6.907  1.00  0.00     0.071 C 
HETATM   10  C   UNL     1      41.790 -13.551   6.054  1.00  0.00     0.069 C 
ENDROOT
BRANCH   3  11
HETATM   11  C   UNL     1      39.802  -9.958   7.401  1.00  0.00     0.156 C 
BRANCH  11  12
HETATM   12  C   UNL     1      39.432  -9.331   8.720  1.00  0.00     0.223 C 
HETATM   13  N   UNL     1      39.959  -9.988   9.805  1.00  0.00    -0.359 N 
HETATM   14  H   UNL     1      40.469 -10.853   9.629  1.00  0.00     0.162 HD
HETATM   15  O   UNL     1      38.699  -8.352   8.805  1.00  0.00    -0.273 OA
BRANCH  13  16
HETATM   16  C   UNL     1      39.540  -9.820  11.198  1.00  0.00     0.150 C 
BRANCH  16  17
HETATM   17  C   UNL     1      40.634  -9.903  12.280  1.00  0.00     0.253 C 
BRANCH  17  18
HETATM   18  N   UNL     1      40.947  -8.562  12.912  1.00  0.00    -0.077 N 
HETATM   19  H   UNL     1      41.344  -8.761  13.851  1.00  0.00     0.279 HD
HETATM   20  C   UNL     1      41.975  -7.756  12.167  1.00  0.00     0.269 C 
HETATM   21  C   UNL     1      39.696  -7.756  13.135  1.00  0.00     0.269 C 
ENDBRANCH  17  18
ENDBRANCH  16  17
ENDBRANCH  13  16
ENDBRANCH  11  12
ENDBRANCH   3  11
BRANCH   1  22
HETATM   22  C   UNL     1      41.180 -12.036   4.125  1.00  0.00    -0.024 C 
HETATM   23  C   UNL     1      40.079 -11.994   3.232  1.00  0.00    -0.053 C 
HETATM   24  C   UNL     1      40.238 -11.386   1.963  1.00  0.00     0.014 C 
HETATM   25  C   UNL     1      38.689 -12.497   3.500  1.00  0.00     0.049 C 
HETATM   26  C   UNL     1      41.459 -10.874   1.528  1.00  0.00    -0.061 C 
HETATM   27  C   UNL     1      41.555 -10.096   0.247  1.00  0.00     0.048 C 
HETATM   28  C   UNL     1      42.572 -11.049   2.339  1.00  0.00     0.007 C 
HETATM   29  C   UNL     1      42.436 -11.632   3.602  1.00  0.00     0.011 C 
ENDBRANCH   1  22
BRANCH  10  30
HETATM   30  C   UNL     1      40.888 -14.713   6.212  1.00  0.00     0.294 C 
HETATM   31  O   UNL     1      39.805 -14.610   6.762  1.00  0.00    -0.259 OA
BRANCH  30  32
HETATM   32  O   UNL     1      41.365 -15.785   5.555  1.00  0.00    -0.313 OA
BRANCH  32  33
HETATM   33  C   UNL     1      40.489 -16.353   4.564  1.00  0.00     0.217 C 
BRANCH  33  34
HETATM   34  C   UNL     1      40.816 -15.774   3.208  1.00  0.00    -0.034 A 
HETATM   35  C   UNL     1      39.820 -15.626   2.231  1.00  0.00     0.009 A 
HETATM   36  C   UNL     1      40.123 -15.064   0.988  1.00  0.00     0.001 A 
HETATM   37  C   UNL     1      41.424 -14.651   0.707  1.00  0.00     0.000 A 
HETATM   38  C   UNL     1      42.424 -14.803   1.665  1.00  0.00     0.001 A 
HETATM   39  C   UNL     1      42.124 -15.365   2.907  1.00  0.00     0.009 A 
ENDBRANCH  33  34
ENDBRANCH  32  33
ENDBRANCH  30  32
ENDBRANCH  10  30
TORSDOF 10
ENDMDL
