MODEL 1
REMARK VINA RESULT:      -9.0      0.000      0.000
REMARK  3 active torsions:
REMARK  status: ('A' for Active; 'I' for Inactive)
REMARK    1  A    between atoms: C_4  and  C_5 
REMARK    2  A    between atoms: C_9  and  C_10 
REMARK       I    between atoms: C_10  and  N_11 
REMARK    3  A    between atoms: N_11  and  N_12 
ROOT
HETATM    1  C   UNL     1      43.177 -13.308   4.660  1.00  0.00     0.289 C 
HETATM    2  N   UNL     1      43.161 -14.626   5.084  1.00  0.00    -0.241 N 
HETATM    3  O   UNL     1      43.147 -12.966   3.480  1.00  0.00    -0.264 OA
HETATM    4  H   UNL     1      43.188 -14.859   6.075  1.00  0.00     0.192 HD
ENDROOT
BRANCH   1   5
HETATM    5  C   UNL     1      43.235 -12.325   5.712  1.00  0.00     0.121 A 
HETATM    6  N   UNL     1      42.400 -11.239   5.694  1.00  0.00    -0.272 N 
HETATM    7  N   UNL     1      42.558 -10.403   6.732  1.00  0.00    -0.172 NA
HETATM    8  H   UNL     1      41.702 -11.025   4.988  1.00  0.00     0.189 HD
HETATM    9  C   UNL     1      43.534 -10.972   7.451  1.00  0.00     0.113 A 
HETATM   10  C   UNL     1      43.991 -12.173   6.859  1.00  0.00     0.073 A 
BRANCH   9  11
HETATM   11  C   UNL     1      44.050 -10.377   8.719  1.00  0.00     0.106 A 
HETATM   12  O   UNL     1      43.265  -9.901   9.735  1.00  0.00    -0.313 OA
HETATM   13  C   UNL     1      44.099  -9.443  10.711  1.00  0.00     0.050 A 
HETATM   14  C   UNL     1      43.463  -8.878  11.917  1.00  0.00     0.076 C 
HETATM   15  C   UNL     1      45.412  -9.619  10.337  1.00  0.00     0.035 A 
HETATM   16  C   UNL     1      45.380 -10.220   9.056  1.00  0.00     0.042 A 
ENDBRANCH   9  11
ENDBRANCH   1   5
BRANCH   2  17
HETATM   17  N   UNL     1      43.109 -15.639   4.164  1.00  0.00    -0.165 NA
HETATM   18  C   UNL     1      43.434 -16.822   4.573  1.00  0.00     0.157 A 
HETATM   19  C   UNL     1      43.878 -17.261   5.971  1.00  0.00     0.277 A 
HETATM   20  C   UNL     1      43.444 -18.027   3.755  1.00  0.00     0.027 A 
HETATM   21  O   UNL     1      43.989 -16.519   6.924  1.00  0.00    -0.266 OA
HETATM   22  N   UNL     1      44.105 -18.617   5.878  1.00  0.00    -0.321 N 
HETATM   23  C   UNL     1      43.853 -19.070   4.585  1.00  0.00     0.048 A 
HETATM   24  H   UNL     1      44.412 -19.185   6.655  1.00  0.00     0.169 HD
HETATM   25  C   UNL     1      43.968 -20.358   4.109  1.00  0.00     0.030 A 
HETATM   26  C   UNL     1      43.658 -20.575   2.760  1.00  0.00     0.002 A 
HETATM   27  C   UNL     1      43.245 -19.515   1.925  1.00  0.00     0.001 A 
HETATM   28  C   UNL     1      43.134 -18.215   2.424  1.00  0.00     0.016 A 
ENDBRANCH   2  17
TORSDOF 3
ENDMDL
MODEL 2
REMARK VINA RESULT:      -8.6      1.380      1.431
REMARK  3 active torsions:
REMARK  status: ('A' for Active; 'I' for Inactive)
REMARK    1  A    between atoms: C_4  and  C_5 
REMARK    2  A    between atoms: C_9  and  C_10 
REMARK       I    between atoms: C_10  and  N_11 
REMARK    3  A    between atoms: N_11  and  N_12 
ROOT
HETATM    1  C   UNL     1      41.840 -13.826   4.786  1.00  0.00     0.289 C 
HETATM    2  N   UNL     1      43.009 -14.401   4.314  1.00  0.00    -0.241 N 
HETATM    3  O   UNL     1      40.719 -14.287   4.587  1.00  0.00    -0.264 OA
HETATM    4  H   UNL     1      43.916 -13.980   4.505  1.00  0.00     0.192 HD
ENDROOT
BRANCH   1   5
HETATM    5  C   UNL     1      42.016 -12.615   5.548  1.00  0.00     0.121 A 
HETATM    6  N   UNL     1      40.973 -11.744   5.719  1.00  0.00    -0.272 N 
HETATM    7  N   UNL     1      41.273 -10.658   6.448  1.00  0.00    -0.172 NA
HETATM    8  H   UNL     1      40.031 -11.850   5.353  1.00  0.00     0.189 HD
HETATM    9  C   UNL     1      42.563 -10.834   6.761  1.00  0.00     0.113 A 
HETATM   10  C   UNL     1      43.075 -12.040   6.224  1.00  0.00     0.073 A 
BRANCH   9  11
HETATM   11  C   UNL     1      43.332  -9.852   7.580  1.00  0.00     0.106 A 
HETATM   12  O   UNL     1      42.834  -8.667   8.051  1.00  0.00    -0.313 OA
HETATM   13  C   UNL     1      43.833  -8.056   8.750  1.00  0.00     0.050 A 
HETATM   14  C   UNL     1      43.517  -6.747   9.355  1.00  0.00     0.076 C 
HETATM   15  C   UNL     1      44.969  -8.834   8.736  1.00  0.00     0.035 A 
HETATM   16  C   UNL     1      44.647  -9.989   7.983  1.00  0.00     0.042 A 
ENDBRANCH   9  11
ENDBRANCH   1   5
BRANCH   2  17
HETATM   17  N   UNL     1      42.952 -15.554   3.577  1.00  0.00    -0.165 NA
HETATM   18  C   UNL     1      43.402 -16.631   4.136  1.00  0.00     0.157 A 
HETATM   19  C   UNL     1      44.001 -16.804   5.534  1.00  0.00     0.277 A 
HETATM   20  C   UNL     1      43.432 -17.952   3.523  1.00  0.00     0.027 A 
HETATM   21  O   UNL     1      44.138 -15.908   6.340  1.00  0.00    -0.266 OA
HETATM   22  N   UNL     1      44.321 -18.139   5.637  1.00  0.00    -0.321 N 
HETATM   23  C   UNL     1      43.990 -18.816   4.464  1.00  0.00     0.048 A 
HETATM   24  H   UNL     1      44.738 -18.551   6.459  1.00  0.00     0.169 HD
HETATM   25  C   UNL     1      44.161 -20.155   4.190  1.00  0.00     0.030 A 
HETATM   26  C   UNL     1      43.750 -20.612   2.931  1.00  0.00     0.002 A 
HETATM   27  C   UNL     1      43.186 -19.732   1.983  1.00  0.00     0.001 A 
HETATM   28  C   UNL     1      43.020 -18.377   2.276  1.00  0.00     0.016 A 
ENDBRANCH   2  17
TORSDOF 3
ENDMDL
MODEL 3
REMARK VINA RESULT:      -8.5      2.194      3.478
REMARK  3 active torsions:
REMARK  status: ('A' for Active; 'I' for Inactive)
REMARK    1  A    between atoms: C_4  and  C_5 
REMARK    2  A    between atoms: C_9  and  C_10 
REMARK       I    between atoms: C_10  and  N_11 
REMARK    3  A    between atoms: N_11  and  N_12 
ROOT
HETATM    1  C   UNL     1      44.510 -11.361   6.957  1.00  0.00     0.289 C 
HETATM    2  N   UNL     1      43.364 -12.039   6.577  1.00  0.00    -0.241 N 
HETATM    3  O   UNL     1      45.500 -11.231   6.240  1.00  0.00    -0.264 OA
HETATM    4  H   UNL     1      42.568 -12.120   7.209  1.00  0.00     0.192 HD
ENDROOT
BRANCH   1   5
HETATM    5  C   UNL     1      44.480 -10.798   8.283  1.00  0.00     0.121 A 
HETATM    6  N   UNL     1      45.639 -10.403   8.897  1.00  0.00    -0.272 N 
HETATM    7  N   UNL     1      45.468  -9.897  10.128  1.00  0.00    -0.172 NA
HETATM    8  H   UNL     1      46.577 -10.461   8.511  1.00  0.00     0.189 HD
HETATM    9  C   UNL     1      44.145  -9.967  10.319  1.00  0.00     0.113 A 
HETATM   10  C   UNL     1      43.482 -10.521   9.198  1.00  0.00     0.073 A 
BRANCH   9  11
HETATM   11  C   UNL     1      43.489  -9.505  11.576  1.00  0.00     0.106 A 
HETATM   12  O   UNL     1      43.763  -8.326  12.214  1.00  0.00    -0.313 OA
HETATM   13  C   UNL     1      42.966  -8.265  13.318  1.00  0.00     0.050 A 
HETATM   14  C   UNL     1      43.094  -7.064  14.166  1.00  0.00     0.076 C 
HETATM   15  C   UNL     1      42.178  -9.392  13.399  1.00  0.00     0.035 A 
HETATM   16  C   UNL     1      42.515 -10.190  12.279  1.00  0.00     0.042 A 
ENDBRANCH   9  11
ENDBRANCH   1   5
BRANCH   2  17
HETATM   17  N   UNL     1      43.289 -12.614   5.337  1.00  0.00    -0.165 NA
HETATM   18  C   UNL     1      43.157 -13.900   5.292  1.00  0.00     0.157 A 
HETATM   19  C   UNL     1      43.070 -14.893   6.454  1.00  0.00     0.277 A 
HETATM   20  C   UNL     1      43.061 -14.699   4.077  1.00  0.00     0.027 A 
HETATM   21  O   UNL     1      43.116 -14.587   7.627  1.00  0.00    -0.266 OA
HETATM   22  N   UNL     1      42.937 -16.134   5.871  1.00  0.00    -0.321 N 
HETATM   23  C   UNL     1      42.930 -16.026   4.482  1.00  0.00     0.048 A 
HETATM   24  H   UNL     1      42.856 -16.991   6.398  1.00  0.00     0.169 HD
HETATM   25  C   UNL     1      42.816 -17.045   3.561  1.00  0.00     0.030 A 
HETATM   26  C   UNL     1      42.836 -16.691   2.205  1.00  0.00     0.002 A 
HETATM   27  C   UNL     1      42.968 -15.345   1.803  1.00  0.00     0.001 A 
HETATM   28  C   UNL     1      43.084 -14.325   2.750  1.00  0.00     0.016 A 
ENDBRANCH   2  17
TORSDOF 3
ENDMDL
MODEL 4
REMARK VINA RESULT:      -8.5      2.098      8.959
REMARK  3 active torsions:
REMARK  status: ('A' for Active; 'I' for Inactive)
REMARK    1  A    between atoms: C_4  and  C_5 
REMARK    2  A    between atoms: C_9  and  C_10 
REMARK       I    between atoms: C_10  and  N_11 
REMARK    3  A    between atoms: N_11  and  N_12 
ROOT
HETATM    1  C   UNL     1      42.620 -12.903   3.979  1.00  0.00     0.289 C 
HETATM    2  N   UNL     1      42.569 -12.771   5.357  1.00  0.00    -0.241 N 
HETATM    3  O   UNL     1      42.448 -11.974   3.194  1.00  0.00    -0.264 OA
HETATM    4  H   UNL     1      42.719 -13.574   5.967  1.00  0.00     0.192 HD
ENDROOT
BRANCH   1   5
HETATM    5  C   UNL     1      42.896 -14.234   3.499  1.00  0.00     0.121 A 
HETATM    6  N   UNL     1      43.150 -14.455   2.171  1.00  0.00    -0.272 N 
HETATM    7  N   UNL     1      43.391 -15.738   1.860  1.00  0.00    -0.172 NA
HETATM    8  H   UNL     1      43.170 -13.754   1.435  1.00  0.00     0.189 HD
HETATM    9  C   UNL     1      43.288 -16.373   3.035  1.00  0.00     0.113 A 
HETATM   10  C   UNL     1      42.981 -15.480   4.089  1.00  0.00     0.073 A 
BRANCH   9  11
HETATM   11  C   UNL     1      43.481 -17.846   3.171  1.00  0.00     0.106 A 
HETATM   12  O   UNL     1      43.886 -18.479   4.316  1.00  0.00    -0.313 OA
HETATM   13  C   UNL     1      43.944 -19.813   4.043  1.00  0.00     0.050 A 
HETATM   14  C   UNL     1      44.362 -20.700   5.147  1.00  0.00     0.076 C 
HETATM   15  C   UNL     1      43.581 -20.049   2.736  1.00  0.00     0.035 A 
HETATM   16  C   UNL     1      43.284 -18.783   2.175  1.00  0.00     0.042 A 
ENDBRANCH   9  11
ENDBRANCH   1   5
BRANCH   2  17
HETATM   17  N   UNL     1      42.312 -11.549   5.917  1.00  0.00    -0.165 NA
HETATM   18  C   UNL     1      43.232 -11.044   6.674  1.00  0.00     0.157 A 
HETATM   19  C   UNL     1      44.597 -11.632   7.041  1.00  0.00     0.277 A 
HETATM   20  C   UNL     1      43.153  -9.761   7.360  1.00  0.00     0.027 A 
HETATM   21  O   UNL     1      45.014 -12.702   6.649  1.00  0.00    -0.266 OA
HETATM   22  N   UNL     1      45.189 -10.705   7.869  1.00  0.00    -0.321 N 
HETATM   23  C   UNL     1      44.349  -9.609   8.059  1.00  0.00     0.048 A 
HETATM   24  H   UNL     1      46.107 -10.824   8.273  1.00  0.00     0.169 HD
HETATM   25  C   UNL     1      44.593  -8.486   8.820  1.00  0.00     0.030 A 
HETATM   26  C   UNL     1      43.591  -7.508   8.861  1.00  0.00     0.002 A 
HETATM   27  C   UNL     1      42.383  -7.669   8.151  1.00  0.00     0.001 A 
HETATM   28  C   UNL     1      42.152  -8.813   7.384  1.00  0.00     0.016 A 
ENDBRANCH   2  17
TORSDOF 3
ENDMDL
MODEL 5
REMARK VINA RESULT:      -8.4      6.203      9.990
REMARK  3 active torsions:
REMARK  status: ('A' for Active; 'I' for Inactive)
REMARK    1  A    between atoms: C_4  and  C_5 
REMARK    2  A    between atoms: C_9  and  C_10 
REMARK       I    between atoms: C_10  and  N_11 
REMARK    3  A    between atoms: N_11  and  N_12 
ROOT
HETATM    1  C   UNL     1      40.453 -14.216   1.615  1.00  0.00     0.289 C 
HETATM    2  N   UNL     1      40.507 -13.555   0.398  1.00  0.00    -0.241 N 
HETATM    3  O   UNL     1      39.662 -13.937   2.513  1.00  0.00    -0.264 OA
HETATM    4  H   UNL     1      41.182 -13.824  -0.315  1.00  0.00     0.192 HD
ENDROOT
BRANCH   1   5
HETATM    5  C   UNL     1      41.408 -15.283   1.777  1.00  0.00     0.121 A 
HETATM    6  N   UNL     1      42.670 -15.171   1.254  1.00  0.00    -0.272 N 
HETATM    7  N   UNL     1      43.456 -16.235   1.477  1.00  0.00    -0.172 NA
HETATM    8  H   UNL     1      43.040 -14.381   0.734  1.00  0.00     0.189 HD
HETATM    9  C   UNL     1      42.672 -17.069   2.172  1.00  0.00     0.113 A 
HETATM   10  C   UNL     1      41.384 -16.522   2.387  1.00  0.00     0.073 A 
BRANCH   9  11
HETATM   11  C   UNL     1      43.140 -18.404   2.645  1.00  0.00     0.106 A 
HETATM   12  O   UNL     1      43.602 -18.670   3.906  1.00  0.00    -0.313 OA
HETATM   13  C   UNL     1      43.930 -19.992   3.949  1.00  0.00     0.050 A 
HETATM   14  C   UNL     1      44.457 -20.505   5.229  1.00  0.00     0.076 C 
HETATM   15  C   UNL     1      43.683 -20.584   2.730  1.00  0.00     0.035 A 
HETATM   16  C   UNL     1      43.175 -19.562   1.892  1.00  0.00     0.042 A 
ENDBRANCH   9  11
ENDBRANCH   1   5
BRANCH   2  17
HETATM   17  N   UNL     1      39.643 -12.524   0.143  1.00  0.00    -0.165 NA
HETATM   18  C   UNL     1      38.844 -12.664  -0.866  1.00  0.00     0.157 A 
HETATM   19  C   UNL     1      38.724 -13.843  -1.834  1.00  0.00     0.277 A 
HETATM   20  C   UNL     1      37.855 -11.687  -1.302  1.00  0.00     0.027 A 
HETATM   21  O   UNL     1      39.397 -14.851  -1.780  1.00  0.00    -0.266 OA
HETATM   22  N   UNL     1      37.729 -13.494  -2.721  1.00  0.00    -0.321 N 
HETATM   23  C   UNL     1      37.218 -12.234  -2.414  1.00  0.00     0.048 A 
HETATM   24  H   UNL     1      37.428 -14.085  -3.482  1.00  0.00     0.169 HD
HETATM   25  C   UNL     1      36.218 -11.551  -3.072  1.00  0.00     0.030 A 
HETATM   26  C   UNL     1      35.870 -10.287  -2.577  1.00  0.00     0.002 A 
HETATM   27  C   UNL     1      36.520  -9.739  -1.451  1.00  0.00     0.001 A 
HETATM   28  C   UNL     1      37.531 -10.445  -0.796  1.00  0.00     0.016 A 
ENDBRANCH   2  17
TORSDOF 3
ENDMDL
MODEL 6
REMARK VINA RESULT:      -8.1      2.480      3.867
REMARK  3 active torsions:
REMARK  status: ('A' for Active; 'I' for Inactive)
REMARK    1  A    between atoms: C_4  and  C_5 
REMARK    2  A    between atoms: C_9  and  C_10 
REMARK       I    between atoms: C_10  and  N_11 
REMARK    3  A    between atoms: N_11  and  N_12 
ROOT
HETATM    1  C   UNL     1      44.699 -11.826   7.130  1.00  0.00     0.289 C 
HETATM    2  N   UNL     1      43.767 -12.837   7.298  1.00  0.00    -0.241 N 
HETATM    3  O   UNL     1      45.557 -11.823   6.250  1.00  0.00    -0.264 OA
HETATM    4  H   UNL     1      43.074 -12.794   8.044  1.00  0.00     0.192 HD
ENDROOT
BRANCH   1   5
HETATM    5  C   UNL     1      44.606 -10.742   8.075  1.00  0.00     0.121 A 
HETATM    6  N   UNL     1      45.608  -9.814   8.168  1.00  0.00    -0.272 N 
HETATM    7  N   UNL     1      45.395  -8.859   9.087  1.00  0.00    -0.172 NA
HETATM    8  H   UNL     1      46.464  -9.791   7.620  1.00  0.00     0.189 HD
HETATM    9  C   UNL     1      44.206  -9.184   9.610  1.00  0.00     0.113 A 
HETATM   10  C   UNL     1      43.670 -10.350   9.013  1.00  0.00     0.073 A 
BRANCH   9  11
HETATM   11  C   UNL     1      43.558  -8.384  10.690  1.00  0.00     0.106 A 
HETATM   12  O   UNL     1      42.845  -7.233  10.491  1.00  0.00    -0.313 OA
HETATM   13  C   UNL     1      42.417  -6.803  11.712  1.00  0.00     0.050 A 
HETATM   14  C   UNL     1      41.617  -5.563  11.737  1.00  0.00     0.076 C 
HETATM   15  C   UNL     1      42.845  -7.665  12.697  1.00  0.00     0.035 A 
HETATM   16  C   UNL     1      43.579  -8.681  12.040  1.00  0.00     0.042 A 
ENDBRANCH   9  11
ENDBRANCH   1   5
BRANCH   2  17
HETATM   17  N   UNL     1      43.769 -13.915   6.454  1.00  0.00    -0.165 NA
HETATM   18  C   UNL     1      42.776 -14.019   5.631  1.00  0.00     0.157 A 
HETATM   19  C   UNL     1      41.571 -13.089   5.464  1.00  0.00     0.277 A 
HETATM   20  C   UNL     1      42.592 -15.087   4.657  1.00  0.00     0.027 A 
HETATM   21  O   UNL     1      41.383 -12.082   6.114  1.00  0.00    -0.266 OA
HETATM   22  N   UNL     1      40.810 -13.646   4.460  1.00  0.00    -0.321 N 
HETATM   23  C   UNL     1      41.403 -14.814   3.985  1.00  0.00     0.048 A 
HETATM   24  H   UNL     1      39.944 -13.245   4.130  1.00  0.00     0.169 HD
HETATM   25  C   UNL     1      40.939 -15.645   2.988  1.00  0.00     0.030 A 
HETATM   26  C   UNL     1      41.712 -16.773   2.680  1.00  0.00     0.002 A 
HETATM   27  C   UNL     1      42.915 -17.043   3.365  1.00  0.00     0.001 A 
HETATM   28  C   UNL     1      43.371 -16.190   4.373  1.00  0.00     0.016 A 
ENDBRANCH   2  17
TORSDOF 3
ENDMDL
MODEL 7
REMARK VINA RESULT:      -7.8      2.841      9.972
REMARK  3 active torsions:
REMARK  status: ('A' for Active; 'I' for Inactive)
REMARK    1  A    between atoms: C_4  and  C_5 
REMARK    2  A    between atoms: C_9  and  C_10 
REMARK       I    between atoms: C_10  and  N_11 
REMARK    3  A    between atoms: N_11  and  N_12 
ROOT
HETATM    1  C   UNL     1      44.199 -11.184   8.259  1.00  0.00     0.289 C 
HETATM    2  N   UNL     1      43.149 -10.584   8.935  1.00  0.00    -0.241 N 
HETATM    3  O   UNL     1      45.368 -11.144   8.633  1.00  0.00    -0.264 OA
HETATM    4  H   UNL     1      42.195 -10.646   8.584  1.00  0.00     0.192 HD
ENDROOT
BRANCH   1   5
HETATM    5  C   UNL     1      43.833 -11.882   7.053  1.00  0.00     0.121 A 
HETATM    6  N   UNL     1      44.013 -11.295   5.828  1.00  0.00    -0.272 N 
HETATM    7  N   UNL     1      43.631 -12.054   4.790  1.00  0.00    -0.172 NA
HETATM    8  H   UNL     1      44.397 -10.371   5.652  1.00  0.00     0.189 HD
HETATM    9  C   UNL     1      43.185 -13.178   5.365  1.00  0.00     0.113 A 
HETATM   10  C   UNL     1      43.290 -13.122   6.776  1.00  0.00     0.073 A 
BRANCH   9  11
HETATM   11  C   UNL     1      42.651 -14.326   4.578  1.00  0.00     0.106 A 
HETATM   12  O   UNL     1      41.532 -14.282   3.791  1.00  0.00    -0.313 OA
HETATM   13  C   UNL     1      41.372 -15.519   3.241  1.00  0.00     0.050 A 
HETATM   14  C   UNL     1      40.214 -15.704   2.345  1.00  0.00     0.076 C 
HETATM   15  C   UNL     1      42.377 -16.361   3.663  1.00  0.00     0.035 A 
HETATM   16  C   UNL     1      43.199 -15.594   4.523  1.00  0.00     0.042 A 
ENDBRANCH   9  11
ENDBRANCH   1   5
BRANCH   2  17
HETATM   17  N   UNL     1      43.388  -9.893  10.093  1.00  0.00    -0.165 NA
HETATM   18  C   UNL     1      42.389  -9.258  10.615  1.00  0.00     0.157 A 
HETATM   19  C   UNL     1      40.946  -9.166  10.112  1.00  0.00     0.277 A 
HETATM   20  C   UNL     1      42.436  -8.468  11.838  1.00  0.00     0.027 A 
HETATM   21  O   UNL     1      40.532  -9.705   9.108  1.00  0.00    -0.266 OA
HETATM   22  N   UNL     1      40.286  -8.373  11.024  1.00  0.00    -0.321 N 
HETATM   23  C   UNL     1      41.152  -7.963  12.036  1.00  0.00     0.048 A 
HETATM   24  H   UNL     1      39.308  -8.136  10.951  1.00  0.00     0.169 HD
HETATM   25  C   UNL     1      40.859  -7.164  13.120  1.00  0.00     0.030 A 
HETATM   26  C   UNL     1      41.902  -6.882  14.012  1.00  0.00     0.002 A 
HETATM   27  C   UNL     1      43.199  -7.397  13.805  1.00  0.00     0.001 A 
HETATM   28  C   UNL     1      43.480  -8.205  12.701  1.00  0.00     0.016 A 
ENDBRANCH   2  17
TORSDOF 3
ENDMDL
MODEL 8
REMARK VINA RESULT:      -7.8      5.491      7.721
REMARK  3 active torsions:
REMARK  status: ('A' for Active; 'I' for Inactive)
REMARK    1  A    between atoms: C_4  and  C_5 
REMARK    2  A    between atoms: C_9  and  C_10 
REMARK       I    between atoms: C_10  and  N_11 
REMARK    3  A    between atoms: N_11  and  N_12 
ROOT
HETATM    1  C   UNL     1      40.556 -14.438   0.295  1.00  0.00     0.289 C 
HETATM    2  N   UNL     1      41.827 -14.572   0.829  1.00  0.00    -0.241 N 
HETATM    3  O   UNL     1      39.774 -15.374   0.143  1.00  0.00    -0.264 OA
HETATM    4  H   UNL     1      42.440 -13.765   0.935  1.00  0.00     0.192 HD
ENDROOT
BRANCH   1   5
HETATM    5  C   UNL     1      40.189 -13.098  -0.087  1.00  0.00     0.121 A 
HETATM    6  N   UNL     1      38.909 -12.648   0.102  1.00  0.00    -0.272 N 
HETATM    7  N   UNL     1      38.703 -11.384  -0.297  1.00  0.00    -0.172 NA
HETATM    8  H   UNL     1      38.137 -13.173   0.504  1.00  0.00     0.189 HD
HETATM    9  C   UNL     1      39.897 -11.000  -0.764  1.00  0.00     0.113 A 
HETATM   10  C   UNL     1      40.860 -12.032  -0.656  1.00  0.00     0.073 A 
BRANCH   9  11
HETATM   11  C   UNL     1      40.142  -9.639  -1.323  1.00  0.00     0.106 A 
HETATM   12  O   UNL     1      40.766  -9.383  -2.514  1.00  0.00    -0.313 OA
HETATM   13  C   UNL     1      40.799  -8.029  -2.673  1.00  0.00     0.050 A 
HETATM   14  C   UNL     1      41.433  -7.520  -3.905  1.00  0.00     0.076 C 
HETATM   15  C   UNL     1      40.203  -7.409  -1.598  1.00  0.00     0.035 A 
HETATM   16  C   UNL     1      39.781  -8.444  -0.730  1.00  0.00     0.042 A 
ENDBRANCH   9  11
ENDBRANCH   1   5
BRANCH   2  17
HETATM   17  N   UNL     1      42.276 -15.804   1.224  1.00  0.00    -0.165 NA
HETATM   18  C   UNL     1      42.696 -15.914   2.442  1.00  0.00     0.157 A 
HETATM   19  C   UNL     1      42.765 -14.839   3.530  1.00  0.00     0.277 A 
HETATM   20  C   UNL     1      43.211 -17.132   3.053  1.00  0.00     0.027 A 
HETATM   21  O   UNL     1      42.416 -13.687   3.383  1.00  0.00    -0.266 OA
HETATM   22  N   UNL     1      43.286 -15.467   4.640  1.00  0.00    -0.321 N 
HETATM   23  C   UNL     1      43.549 -16.809   4.366  1.00  0.00     0.048 A 
HETATM   24  H   UNL     1      43.447 -15.001   5.520  1.00  0.00     0.169 HD
HETATM   25  C   UNL     1      44.072 -17.754   5.222  1.00  0.00     0.030 A 
HETATM   26  C   UNL     1      44.249 -19.049   4.718  1.00  0.00     0.002 A 
HETATM   27  C   UNL     1      43.906 -19.369   3.388  1.00  0.00     0.001 A 
HETATM   28  C   UNL     1      43.377 -18.400   2.533  1.00  0.00     0.016 A 
ENDBRANCH   2  17
TORSDOF 3
ENDMDL
MODEL 9
REMARK VINA RESULT:      -7.8     16.218     17.483
REMARK  3 active torsions:
REMARK  status: ('A' for Active; 'I' for Inactive)
REMARK    1  A    between atoms: C_4  and  C_5 
REMARK    2  A    between atoms: C_9  and  C_10 
REMARK       I    between atoms: C_10  and  N_11 
REMARK    3  A    between atoms: N_11  and  N_12 
ROOT
HETATM    1  C   UNL     1      41.309 -31.007   2.301  1.00  0.00     0.289 C 
HETATM    2  N   UNL     1      42.574 -30.609   1.899  1.00  0.00    -0.241 N 
HETATM    3  O   UNL     1      40.361 -31.157   1.535  1.00  0.00    -0.264 OA
HETATM    4  H   UNL     1      43.329 -30.499   2.574  1.00  0.00     0.192 HD
ENDROOT
BRANCH   1   5
HETATM    5  C   UNL     1      41.161 -31.244   3.715  1.00  0.00     0.121 A 
HETATM    6  N   UNL     1      39.915 -31.349   4.275  1.00  0.00    -0.272 N 
HETATM    7  N   UNL     1      39.921 -31.569   5.598  1.00  0.00    -0.172 NA
HETATM    8  H   UNL     1      39.026 -31.277   3.788  1.00  0.00     0.189 HD
HETATM    9  C   UNL     1      41.223 -31.608   5.908  1.00  0.00     0.113 A 
HETATM   10  C   UNL     1      42.039 -31.411   4.768  1.00  0.00     0.073 A 
BRANCH   9  11
HETATM   11  C   UNL     1      41.712 -31.834   7.299  1.00  0.00     0.106 A 
HETATM   12  O   UNL     1      40.907 -31.991   8.395  1.00  0.00    -0.313 OA
HETATM   13  C   UNL     1      41.720 -32.174   9.474  1.00  0.00     0.050 A 
HETATM   14  C   UNL     1      41.059 -32.367  10.780  1.00  0.00     0.076 C 
HETATM   15  C   UNL     1      43.041 -32.137   9.086  1.00  0.00     0.035 A 
HETATM   16  C   UNL     1      43.035 -31.918   7.687  1.00  0.00     0.042 A 
ENDBRANCH   9  11
ENDBRANCH   1   5
BRANCH   2  17
HETATM   17  N   UNL     1      42.822 -30.357   0.576  1.00  0.00    -0.165 NA
HETATM   18  C   UNL     1      43.871 -29.652   0.299  1.00  0.00     0.157 A 
HETATM   19  C   UNL     1      44.896 -29.046   1.260  1.00  0.00     0.277 A 
HETATM   20  C   UNL     1      44.307 -29.274  -1.039  1.00  0.00     0.027 A 
HETATM   21  O   UNL     1      44.857 -29.155   2.468  1.00  0.00    -0.266 OA
HETATM   22  N   UNL     1      45.811 -28.393   0.463  1.00  0.00    -0.321 N 
HETATM   23  C   UNL     1      45.471 -28.524  -0.882  1.00  0.00     0.048 A 
HETATM   24  H   UNL     1      46.610 -27.894   0.825  1.00  0.00     0.169 HD
HETATM   25  C   UNL     1      46.140 -28.010  -1.971  1.00  0.00     0.030 A 
HETATM   26  C   UNL     1      45.604 -28.273  -3.239  1.00  0.00     0.002 A 
HETATM   27  C   UNL     1      44.426 -29.034  -3.390  1.00  0.00     0.001 A 
HETATM   28  C   UNL     1      43.759 -29.547  -2.275  1.00  0.00     0.016 A 
ENDBRANCH   2  17
TORSDOF 3
ENDMDL
MODEL 10
REMARK VINA RESULT:      -7.7      6.019     12.628
REMARK  3 active torsions:
REMARK  status: ('A' for Active; 'I' for Inactive)
REMARK    1  A    between atoms: C_4  and  C_5 
REMARK    2  A    between atoms: C_9  and  C_10 
REMARK       I    between atoms: C_10  and  N_11 
REMARK    3  A    between atoms: N_11  and  N_12 
ROOT
HETATM    1  C   UNL     1      41.015  -9.683  13.167  1.00  0.00     0.289 C 
HETATM    2  N   UNL     1      41.544  -8.824  14.117  1.00  0.00    -0.241 N 
HETATM    3  O   UNL     1      40.056 -10.424  13.370  1.00  0.00    -0.264 OA
HETATM    4  H   UNL     1      42.341  -8.228  13.900  1.00  0.00     0.192 HD
ENDROOT
BRANCH   1   5
HETATM    5  C   UNL     1      41.673  -9.660  11.885  1.00  0.00     0.121 A 
HETATM    6  N   UNL     1      40.963  -9.395  10.744  1.00  0.00    -0.272 N 
HETATM    7  N   UNL     1      41.697  -9.405   9.621  1.00  0.00    -0.172 NA
HETATM    8  H   UNL     1      39.967  -9.200  10.684  1.00  0.00     0.189 HD
HETATM    9  C   UNL     1      42.932  -9.688  10.052  1.00  0.00     0.113 A 
HETATM   10  C   UNL     1      42.972  -9.856  11.457  1.00  0.00     0.073 A 
BRANCH   9  11
HETATM   11  C   UNL     1      44.099  -9.803   9.130  1.00  0.00     0.106 A 
HETATM   12  O   UNL     1      44.216 -10.731   8.129  1.00  0.00    -0.313 OA
HETATM   13  C   UNL     1      45.413 -10.515   7.514  1.00  0.00     0.050 A 
HETATM   14  C   UNL     1      45.754 -11.410   6.391  1.00  0.00     0.076 C 
HETATM   15  C   UNL     1      46.069  -9.458   8.104  1.00  0.00     0.035 A 
HETATM   16  C   UNL     1      45.224  -9.001   9.144  1.00  0.00     0.042 A 
ENDBRANCH   9  11
ENDBRANCH   1   5
BRANCH   2  17
HETATM   17  N   UNL     1      40.993  -8.769  15.369  1.00  0.00    -0.165 NA
HETATM   18  C   UNL     1      41.379  -7.803  16.138  1.00  0.00     0.157 A 
HETATM   19  C   UNL     1      42.385  -6.688  15.842  1.00  0.00     0.277 A 
HETATM   20  C   UNL     1      40.915  -7.569  17.500  1.00  0.00     0.027 A 
HETATM   21  O   UNL     1      42.981  -6.559  14.793  1.00  0.00    -0.266 OA
HETATM   22  N   UNL     1      42.438  -5.922  16.986  1.00  0.00    -0.321 N 
HETATM   23  C   UNL     1      41.580  -6.433  17.958  1.00  0.00     0.048 A 
HETATM   24  H   UNL     1      43.025  -5.107  17.084  1.00  0.00     0.169 HD
HETATM   25  C   UNL     1      41.362  -5.942  19.227  1.00  0.00     0.030 A 
HETATM   26  C   UNL     1      40.446  -6.630  20.034  1.00  0.00     0.002 A 
HETATM   27  C   UNL     1      39.777  -7.779  19.563  1.00  0.00     0.001 A 
HETATM   28  C   UNL     1      40.010  -8.264  18.275  1.00  0.00     0.016 A 
ENDBRANCH   2  17
TORSDOF 3
ENDMDL
