MODEL 1
REMARK VINA RESULT:      -8.6      0.000      0.000
REMARK  10 active torsions:
REMARK  status: ('A' for Active; 'I' for Inactive)
REMARK    1  A    between atoms: C_2  and  O_3 
REMARK    2  A    between atoms: O_3  and  C_4 
REMARK    3  A    between atoms: C_4  and  C_5 
REMARK    4  A    between atoms: C_6  and  C_7 
REMARK    5  A    between atoms: C_7  and  O_8 
REMARK    6  A    between atoms: O_8  and  C_9 
REMARK    7  A    between atoms: C_9  and  C_10 
REMARK       I    between atoms: C_10  and  N_11 
REMARK    8  A    between atoms: N_11  and  C_12 
REMARK    9  A    between atoms: C_12  and  C_13 
REMARK       I    between atoms: C_13  and  N_14 
REMARK   10  A    between atoms: N_14  and  C_15 
ROOT
HETATM    1  C   UNL     1      40.471 -15.398   2.577  1.00  0.00     0.281 C 
ENDROOT
BRANCH   1   2
HETATM    2  O   UNL     1      41.521 -15.332   1.622  1.00  0.00    -0.307 OA
BRANCH   2   3
HETATM    3  C   UNL     1      42.774 -15.298   2.163  1.00  0.00     0.318 C 
HETATM    4  O   UNL     1      43.545 -14.349   2.044  1.00  0.00    -0.257 OA
BRANCH   3   5
HETATM    5  C   UNL     1      43.067 -16.560   2.808  1.00  0.00     0.160 A 
HETATM    6  C   UNL     1      43.356 -16.865   4.133  1.00  0.00     0.018 A 
HETATM    7  C   UNL     1      43.628 -18.268   4.170  1.00  0.00     0.009 A 
HETATM    8  C   UNL     1      43.461 -18.725   2.870  1.00  0.00     0.087 A 
HETATM    9  C   UNL     1      43.988 -19.202   5.161  1.00  0.00     0.015 A 
HETATM   10  O   UNL     1      43.123 -17.700   2.048  1.00  0.00    -0.303 OA
HETATM   11  C   UNL     1      43.625 -20.051   2.475  1.00  0.00     0.038 A 
HETATM   12  C   UNL     1      43.986 -20.960   3.474  1.00  0.00     0.003 A 
HETATM   13  C   UNL     1      44.167 -20.545   4.795  1.00  0.00     0.001 A 
BRANCH   6  14
HETATM   14  C   UNL     1      43.343 -15.921   5.280  1.00  0.00     0.210 C 
BRANCH  14  15
HETATM   15  O   UNL     1      42.009 -15.746   5.750  1.00  0.00    -0.387 OA
BRANCH  15  16
HETATM   16  C   UNL     1      41.901 -15.921   7.158  1.00  0.00     0.163 C 
HETATM   17  C   UNL     1      43.165 -15.393   7.806  1.00  0.00     0.033 C 
ENDBRANCH  15  16
ENDBRANCH  14  15
ENDBRANCH   6  14
ENDBRANCH   3   5
ENDBRANCH   2   3
ENDBRANCH   1   2
BRANCH   1  18
HETATM   18  C   UNL     1      40.075 -14.054   3.198  1.00  0.00     0.242 C 
HETATM   19  N   UNL     1      40.143 -14.019   4.576  1.00  0.00    -0.350 N 
HETATM   20  H   UNL     1      40.318 -14.865   5.102  1.00  0.00     0.163 HD
HETATM   21  O   UNL     1      39.728 -13.091   2.522  1.00  0.00    -0.271 OA
BRANCH  19  22
HETATM   22  C   UNL     1      39.894 -12.787   5.309  1.00  0.00     0.225 C 
BRANCH  22  23
HETATM   23  C   UNL     1      41.078 -11.819   5.434  1.00  0.00     0.239 C 
HETATM   24  N   UNL     1      41.902 -12.079   6.518  1.00  0.00    -0.325 N 
HETATM   25  H   UNL     1      41.406 -12.474   7.315  1.00  0.00     0.169 HD
HETATM   26  O   UNL     1      41.267 -10.975   4.562  1.00  0.00    -0.271 OA
BRANCH  24  27
HETATM   27  C   UNL     1      43.147 -11.469   6.809  1.00  0.00     0.041 C 
HETATM   28  C   UNL     1      43.348 -10.296   7.569  1.00  0.00    -0.029 C 
HETATM   29  C   UNL     1      42.218  -9.390   7.993  1.00  0.00     0.051 C 
HETATM   30  C   UNL     1      44.674  -9.911   7.907  1.00  0.00    -0.054 C 
HETATM   31  C   UNL     1      44.959  -8.740   8.814  1.00  0.00     0.049 C 
HETATM   32  C   UNL     1      45.764 -10.596   7.353  1.00  0.00     0.007 C 
HETATM   33  C   UNL     1      45.558 -11.668   6.499  1.00  0.00     0.003 C 
HETATM   34  C   UNL     1      44.262 -12.106   6.239  1.00  0.00     0.030 C 
ENDBRANCH  24  27
ENDBRANCH  22  23
ENDBRANCH  19  22
ENDBRANCH   1  18
TORSDOF 10
ENDMDL
MODEL 2
REMARK VINA RESULT:      -8.1      1.530      3.016
REMARK  10 active torsions:
REMARK  status: ('A' for Active; 'I' for Inactive)
REMARK    1  A    between atoms: C_2  and  O_3 
REMARK    2  A    between atoms: O_3  and  C_4 
REMARK    3  A    between atoms: C_4  and  C_5 
REMARK    4  A    between atoms: C_6  and  C_7 
REMARK    5  A    between atoms: C_7  and  O_8 
REMARK    6  A    between atoms: O_8  and  C_9 
REMARK    7  A    between atoms: C_9  and  C_10 
REMARK       I    between atoms: C_10  and  N_11 
REMARK    8  A    between atoms: N_11  and  C_12 
REMARK    9  A    between atoms: C_12  and  C_13 
REMARK       I    between atoms: C_13  and  N_14 
REMARK   10  A    between atoms: N_14  and  C_15 
ROOT
HETATM    1  C   UNL     1      40.989 -15.559   6.469  1.00  0.00     0.281 C 
ENDROOT
BRANCH   1   2
HETATM    2  O   UNL     1      42.155 -15.772   7.252  1.00  0.00    -0.307 OA
BRANCH   2   3
HETATM    3  C   UNL     1      43.327 -15.650   6.563  1.00  0.00     0.318 C 
HETATM    4  O   UNL     1      44.089 -14.693   6.674  1.00  0.00    -0.257 OA
BRANCH   3   5
HETATM    5  C   UNL     1      43.478 -16.759   5.645  1.00  0.00     0.160 A 
HETATM    6  C   UNL     1      43.397 -16.818   4.259  1.00  0.00     0.018 A 
HETATM    7  C   UNL     1      43.565 -18.193   3.907  1.00  0.00     0.009 A 
HETATM    8  C   UNL     1      43.761 -18.873   5.101  1.00  0.00     0.087 A 
HETATM    9  C   UNL     1      43.580 -18.935   2.709  1.00  0.00     0.015 A 
HETATM   10  O   UNL     1      43.710 -18.013   6.149  1.00  0.00    -0.303 OA
HETATM   11  C   UNL     1      43.975 -20.246   5.198  1.00  0.00     0.038 A 
HETATM   12  C   UNL     1      43.983 -20.964   3.998  1.00  0.00     0.003 A 
HETATM   13  C   UNL     1      43.787 -20.322   2.773  1.00  0.00     0.001 A 
BRANCH   6  14
HETATM   14  C   UNL     1      43.212 -15.668   3.336  1.00  0.00     0.210 C 
BRANCH  14  15
HETATM   15  O   UNL     1      41.822 -15.414   3.150  1.00  0.00    -0.387 OA
BRANCH  15  16
HETATM   16  C   UNL     1      41.578 -14.429   2.153  1.00  0.00     0.163 C 
HETATM   17  C   UNL     1      42.756 -13.476   2.121  1.00  0.00     0.033 C 
ENDBRANCH  15  16
ENDBRANCH  14  15
ENDBRANCH   6  14
ENDBRANCH   3   5
ENDBRANCH   2   3
ENDBRANCH   1   2
BRANCH   1  18
HETATM   18  C   UNL     1      40.622 -14.088   6.240  1.00  0.00     0.242 C 
HETATM   19  N   UNL     1      41.601 -13.346   5.611  1.00  0.00    -0.350 N 
HETATM   20  H   UNL     1      42.518 -13.742   5.446  1.00  0.00     0.163 HD
HETATM   21  O   UNL     1      39.547 -13.613   6.589  1.00  0.00    -0.271 OA
BRANCH  19  22
HETATM   22  C   UNL     1      41.368 -11.961   5.234  1.00  0.00     0.225 C 
BRANCH  22  23
HETATM   23  C   UNL     1      42.102 -10.897   6.063  1.00  0.00     0.239 C 
HETATM   24  N   UNL     1      42.679 -11.391   7.222  1.00  0.00    -0.325 N 
HETATM   25  H   UNL     1      42.164 -12.169   7.629  1.00  0.00     0.169 HD
HETATM   26  O   UNL     1      42.207  -9.754   5.626  1.00  0.00    -0.271 OA
BRANCH  24  27
HETATM   27  C   UNL     1      43.547 -10.699   8.104  1.00  0.00     0.041 C 
HETATM   28  C   UNL     1      43.160  -9.852   9.166  1.00  0.00    -0.029 C 
HETATM   29  C   UNL     1      41.741  -9.383   9.365  1.00  0.00     0.051 C 
HETATM   30  C   UNL     1      44.155  -9.370  10.061  1.00  0.00    -0.054 C 
HETATM   31  C   UNL     1      43.803  -8.561  11.284  1.00  0.00     0.049 C 
HETATM   32  C   UNL     1      45.510  -9.599   9.789  1.00  0.00     0.007 C 
HETATM   33  C   UNL     1      45.889 -10.320   8.667  1.00  0.00     0.003 C 
HETATM   34  C   UNL     1      44.915 -10.875   7.840  1.00  0.00     0.030 C 
ENDBRANCH  24  27
ENDBRANCH  22  23
ENDBRANCH  19  22
ENDBRANCH   1  18
TORSDOF 10
ENDMDL
MODEL 3
REMARK VINA RESULT:      -8.1      2.480      4.539
REMARK  10 active torsions:
REMARK  status: ('A' for Active; 'I' for Inactive)
REMARK    1  A    between atoms: C_2  and  O_3 
REMARK    2  A    between atoms: O_3  and  C_4 
REMARK    3  A    between atoms: C_4  and  C_5 
REMARK    4  A    between atoms: C_6  and  C_7 
REMARK    5  A    between atoms: C_7  and  O_8 
REMARK    6  A    between atoms: O_8  and  C_9 
REMARK    7  A    between atoms: C_9  and  C_10 
REMARK       I    between atoms: C_10  and  N_11 
REMARK    8  A    between atoms: N_11  and  C_12 
REMARK    9  A    between atoms: C_12  and  C_13 
REMARK       I    between atoms: C_13  and  N_14 
REMARK   10  A    between atoms: N_14  and  C_15 
ROOT
HETATM    1  C   UNL     1      43.266 -13.401   6.226  1.00  0.00     0.281 C 
ENDROOT
BRANCH   1   2
HETATM    2  O   UNL     1      43.965 -14.637   6.255  1.00  0.00    -0.307 OA
BRANCH   2   3
HETATM    3  C   UNL     1      43.202 -15.708   6.622  1.00  0.00     0.318 C 
HETATM    4  O   UNL     1      42.512 -15.739   7.639  1.00  0.00    -0.257 OA
BRANCH   3   5
HETATM    5  C   UNL     1      43.399 -16.798   5.691  1.00  0.00     0.160 A 
HETATM    6  C   UNL     1      43.362 -16.834   4.303  1.00  0.00     0.018 A 
HETATM    7  C   UNL     1      43.563 -18.200   3.932  1.00  0.00     0.009 A 
HETATM    8  C   UNL     1      43.733 -18.897   5.120  1.00  0.00     0.087 A 
HETATM    9  C   UNL     1      43.626 -18.921   2.723  1.00  0.00     0.015 A 
HETATM   10  O   UNL     1      43.636 -18.057   6.181  1.00  0.00    -0.303 OA
HETATM   11  C   UNL     1      43.966 -20.269   5.200  1.00  0.00     0.038 A 
HETATM   12  C   UNL     1      44.022 -20.965   3.989  1.00  0.00     0.003 A 
HETATM   13  C   UNL     1      43.853 -20.305   2.770  1.00  0.00     0.001 A 
BRANCH   6  14
HETATM   14  C   UNL     1      43.187 -15.671   3.393  1.00  0.00     0.210 C 
BRANCH  14  15
HETATM   15  O   UNL     1      41.834 -15.225   3.431  1.00  0.00    -0.387 OA
BRANCH  15  16
HETATM   16  C   UNL     1      40.930 -16.188   2.904  1.00  0.00     0.163 C 
HETATM   17  C   UNL     1      39.763 -15.456   2.271  1.00  0.00     0.033 C 
ENDBRANCH  15  16
ENDBRANCH  14  15
ENDBRANCH   6  14
ENDBRANCH   3   5
ENDBRANCH   2   3
ENDBRANCH   1   2
BRANCH   1  18
HETATM   18  C   UNL     1      44.154 -12.158   6.100  1.00  0.00     0.242 C 
HETATM   19  N   UNL     1      44.921 -11.889   7.215  1.00  0.00    -0.350 N 
HETATM   20  H   UNL     1      44.786 -12.414   8.069  1.00  0.00     0.163 HD
HETATM   21  O   UNL     1      44.178 -11.463   5.090  1.00  0.00    -0.271 OA
BRANCH  19  22
HETATM   22  C   UNL     1      45.888 -10.802   7.217  1.00  0.00     0.225 C 
BRANCH  22  23
HETATM   23  C   UNL     1      45.506  -9.552   8.021  1.00  0.00     0.239 C 
HETATM   24  N   UNL     1      44.261  -9.633   8.624  1.00  0.00    -0.325 N 
HETATM   25  H   UNL     1      43.594 -10.192   8.097  1.00  0.00     0.169 HD
HETATM   26  O   UNL     1      46.321  -8.642   8.152  1.00  0.00    -0.271 OA
BRANCH  24  27
HETATM   27  C   UNL     1      43.701  -8.719   9.551  1.00  0.00     0.041 C 
HETATM   28  C   UNL     1      43.504  -8.941  10.932  1.00  0.00    -0.029 C 
HETATM   29  C   UNL     1      43.660 -10.297  11.574  1.00  0.00     0.051 C 
HETATM   30  C   UNL     1      43.085  -7.858  11.752  1.00  0.00    -0.054 C 
HETATM   31  C   UNL     1      42.970  -7.989  13.250  1.00  0.00     0.049 C 
HETATM   32  C   UNL     1      42.717  -6.639  11.167  1.00  0.00     0.007 C 
HETATM   33  C   UNL     1      42.787  -6.471   9.793  1.00  0.00     0.003 C 
HETATM   34  C   UNL     1      43.286  -7.498   8.995  1.00  0.00     0.030 C 
ENDBRANCH  24  27
ENDBRANCH  22  23
ENDBRANCH  19  22
ENDBRANCH   1  18
TORSDOF 10
ENDMDL
MODEL 4
REMARK VINA RESULT:      -7.9      2.666      7.519
REMARK  10 active torsions:
REMARK  status: ('A' for Active; 'I' for Inactive)
REMARK    1  A    between atoms: C_2  and  O_3 
REMARK    2  A    between atoms: O_3  and  C_4 
REMARK    3  A    between atoms: C_4  and  C_5 
REMARK    4  A    between atoms: C_6  and  C_7 
REMARK    5  A    between atoms: C_7  and  O_8 
REMARK    6  A    between atoms: O_8  and  C_9 
REMARK    7  A    between atoms: C_9  and  C_10 
REMARK       I    between atoms: C_10  and  N_11 
REMARK    8  A    between atoms: N_11  and  C_12 
REMARK    9  A    between atoms: C_12  and  C_13 
REMARK       I    between atoms: C_13  and  N_14 
REMARK   10  A    between atoms: N_14  and  C_15 
ROOT
HETATM    1  C   UNL     1      44.069 -11.249   5.665  1.00  0.00     0.281 C 
ENDROOT
BRANCH   1   2
HETATM    2  O   UNL     1      43.743 -11.481   4.302  1.00  0.00    -0.307 OA
BRANCH   2   3
HETATM    3  C   UNL     1      42.483 -11.090   3.950  1.00  0.00     0.318 C 
HETATM    4  O   UNL     1      41.929 -10.087   4.395  1.00  0.00    -0.257 OA
BRANCH   3   5
HETATM    5  C   UNL     1      41.893 -12.066   3.059  1.00  0.00     0.160 A 
HETATM    6  C   UNL     1      41.478 -11.966   1.737  1.00  0.00     0.018 A 
HETATM    7  C   UNL     1      40.911 -13.233   1.398  1.00  0.00     0.009 A 
HETATM    8  C   UNL     1      41.042 -14.026   2.530  1.00  0.00     0.087 A 
HETATM    9  C   UNL     1      40.308 -13.799   0.257  1.00  0.00     0.015 A 
HETATM   10  O   UNL     1      41.633 -13.327   3.531  1.00  0.00    -0.303 OA
HETATM   11  C   UNL     1      40.618 -15.350   2.616  1.00  0.00     0.038 A 
HETATM   12  C   UNL     1      40.019 -15.891   1.474  1.00  0.00     0.003 A 
HETATM   13  C   UNL     1      39.864 -15.129   0.313  1.00  0.00     0.001 A 
BRANCH   6  14
HETATM   14  C   UNL     1      41.635 -10.784   0.849  1.00  0.00     0.210 C 
BRANCH  14  15
HETATM   15  O   UNL     1      40.466 -10.619   0.051  1.00  0.00    -0.387 OA
BRANCH  15  16
HETATM   16  C   UNL     1      40.529  -9.460  -0.772  1.00  0.00     0.163 C 
HETATM   17  C   UNL     1      41.985  -9.154  -1.060  1.00  0.00     0.033 C 
ENDBRANCH  15  16
ENDBRANCH  14  15
ENDBRANCH   6  14
ENDBRANCH   3   5
ENDBRANCH   2   3
ENDBRANCH   1   2
BRANCH   1  18
HETATM   18  C   UNL     1      43.936 -12.471   6.580  1.00  0.00     0.242 C 
HETATM   19  N   UNL     1      43.735 -13.664   5.915  1.00  0.00    -0.350 N 
HETATM   20  H   UNL     1      43.566 -13.672   4.918  1.00  0.00     0.163 HD
HETATM   21  O   UNL     1      44.004 -12.392   7.802  1.00  0.00    -0.271 OA
BRANCH  19  22
HETATM   22  C   UNL     1      43.688 -14.926   6.636  1.00  0.00     0.225 C 
BRANCH  22  23
HETATM   23  C   UNL     1      43.151 -16.135   5.856  1.00  0.00     0.239 C 
HETATM   24  N   UNL     1      44.137 -17.017   5.443  1.00  0.00    -0.325 N 
HETATM   25  H   UNL     1      45.025 -16.563   5.241  1.00  0.00     0.169 HD
HETATM   26  O   UNL     1      41.938 -16.288   5.733  1.00  0.00    -0.271 OA
BRANCH  24  27
HETATM   27  C   UNL     1      43.947 -18.290   4.850  1.00  0.00     0.041 C 
HETATM   28  C   UNL     1      43.774 -18.555   3.473  1.00  0.00    -0.029 C 
HETATM   29  C   UNL     1      43.536 -17.469   2.453  1.00  0.00     0.051 C 
HETATM   30  C   UNL     1      43.765 -19.904   3.025  1.00  0.00    -0.054 C 
HETATM   31  C   UNL     1      43.705 -20.259   1.561  1.00  0.00     0.049 C 
HETATM   32  C   UNL     1      43.762 -20.950   3.958  1.00  0.00     0.007 C 
HETATM   33  C   UNL     1      43.798 -20.679   5.317  1.00  0.00     0.003 C 
HETATM   34  C   UNL     1      43.902 -19.361   5.757  1.00  0.00     0.030 C 
ENDBRANCH  24  27
ENDBRANCH  22  23
ENDBRANCH  19  22
ENDBRANCH   1  18
TORSDOF 10
ENDMDL
MODEL 5
REMARK VINA RESULT:      -7.8      3.084      6.166
REMARK  10 active torsions:
REMARK  status: ('A' for Active; 'I' for Inactive)
REMARK    1  A    between atoms: C_2  and  O_3 
REMARK    2  A    between atoms: O_3  and  C_4 
REMARK    3  A    between atoms: C_4  and  C_5 
REMARK    4  A    between atoms: C_6  and  C_7 
REMARK    5  A    between atoms: C_7  and  O_8 
REMARK    6  A    between atoms: O_8  and  C_9 
REMARK    7  A    between atoms: C_9  and  C_10 
REMARK       I    between atoms: C_10  and  N_11 
REMARK    8  A    between atoms: N_11  and  C_12 
REMARK    9  A    between atoms: C_12  and  C_13 
REMARK       I    between atoms: C_13  and  N_14 
REMARK   10  A    between atoms: N_14  and  C_15 
ROOT
HETATM    1  C   UNL     1      40.627 -15.187   6.274  1.00  0.00     0.281 C 
ENDROOT
BRANCH   1   2
HETATM    2  O   UNL     1      41.859 -15.107   6.975  1.00  0.00    -0.307 OA
BRANCH   2   3
HETATM    3  C   UNL     1      42.954 -14.953   6.175  1.00  0.00     0.318 C 
HETATM    4  O   UNL     1      43.554 -13.889   6.034  1.00  0.00    -0.257 OA
BRANCH   3   5
HETATM    5  C   UNL     1      43.234 -16.189   5.476  1.00  0.00     0.160 A 
HETATM    6  C   UNL     1      43.309 -16.476   4.118  1.00  0.00     0.018 A 
HETATM    7  C   UNL     1      43.549 -17.881   4.019  1.00  0.00     0.009 A 
HETATM    8  C   UNL     1      43.629 -18.349   5.324  1.00  0.00     0.087 A 
HETATM    9  C   UNL     1      43.716 -18.807   2.970  1.00  0.00     0.015 A 
HETATM   10  O   UNL     1      43.440 -17.333   6.203  1.00  0.00    -0.303 OA
HETATM   11  C   UNL     1      43.865 -19.678   5.670  1.00  0.00     0.038 A 
HETATM   12  C   UNL     1      44.024 -20.580   4.614  1.00  0.00     0.003 A 
HETATM   13  C   UNL     1      43.949 -20.155   3.285  1.00  0.00     0.001 A 
BRANCH   6  14
HETATM   14  C   UNL     1      43.199 -15.501   3.002  1.00  0.00     0.210 C 
BRANCH  14  15
HETATM   15  O   UNL     1      41.827 -15.251   2.709  1.00  0.00    -0.387 OA
BRANCH  15  16
HETATM   16  C   UNL     1      41.391 -15.924   1.534  1.00  0.00     0.163 C 
HETATM   17  C   UNL     1      39.919 -16.251   1.685  1.00  0.00     0.033 C 
ENDBRANCH  15  16
ENDBRANCH  14  15
ENDBRANCH   6  14
ENDBRANCH   3   5
ENDBRANCH   2   3
ENDBRANCH   1   2
BRANCH   1  18
HETATM   18  C   UNL     1      40.125 -13.860   5.693  1.00  0.00     0.242 C 
HETATM   19  N   UNL     1      40.015 -13.843   4.317  1.00  0.00    -0.350 N 
HETATM   20  H   UNL     1      40.367 -14.616   3.766  1.00  0.00     0.163 HD
HETATM   21  O   UNL     1      39.846 -12.895   6.396  1.00  0.00    -0.271 OA
BRANCH  19  22
HETATM   22  C   UNL     1      39.461 -12.693   3.622  1.00  0.00     0.225 C 
BRANCH  22  23
HETATM   23  C   UNL     1      39.950 -12.464   2.185  1.00  0.00     0.239 C 
HETATM   24  N   UNL     1      39.074 -12.927   1.216  1.00  0.00    -0.325 N 
HETATM   25  H   UNL     1      38.543 -13.744   1.510  1.00  0.00     0.169 HD
HETATM   26  O   UNL     1      40.987 -11.837   1.990  1.00  0.00    -0.271 OA
BRANCH  24  27
HETATM   27  C   UNL     1      39.166 -12.724  -0.184  1.00  0.00     0.041 C 
HETATM   28  C   UNL     1      38.527 -11.706  -0.926  1.00  0.00    -0.029 C 
HETATM   29  C   UNL     1      37.457 -10.816  -0.345  1.00  0.00     0.051 C 
HETATM   30  C   UNL     1      38.859 -11.541  -2.299  1.00  0.00    -0.054 C 
HETATM   31  C   UNL     1      38.308 -10.404  -3.122  1.00  0.00     0.049 C 
HETATM   32  C   UNL     1      39.681 -12.479  -2.937  1.00  0.00     0.007 C 
HETATM   33  C   UNL     1      40.199 -13.554  -2.231  1.00  0.00     0.003 C 
HETATM   34  C   UNL     1      39.953 -13.667  -0.865  1.00  0.00     0.030 C 
ENDBRANCH  24  27
ENDBRANCH  22  23
ENDBRANCH  19  22
ENDBRANCH   1  18
TORSDOF 10
ENDMDL
MODEL 6
REMARK VINA RESULT:      -7.7      3.464      5.681
REMARK  10 active torsions:
REMARK  status: ('A' for Active; 'I' for Inactive)
REMARK    1  A    between atoms: C_2  and  O_3 
REMARK    2  A    between atoms: O_3  and  C_4 
REMARK    3  A    between atoms: C_4  and  C_5 
REMARK    4  A    between atoms: C_6  and  C_7 
REMARK    5  A    between atoms: C_7  and  O_8 
REMARK    6  A    between atoms: O_8  and  C_9 
REMARK    7  A    between atoms: C_9  and  C_10 
REMARK       I    between atoms: C_10  and  N_11 
REMARK    8  A    between atoms: N_11  and  C_12 
REMARK    9  A    between atoms: C_12  and  C_13 
REMARK       I    between atoms: C_13  and  N_14 
REMARK   10  A    between atoms: N_14  and  C_15 
ROOT
HETATM    1  C   UNL     1      45.124 -11.830   6.095  1.00  0.00     0.281 C 
ENDROOT
BRANCH   1   2
HETATM    2  O   UNL     1      44.548 -11.208   4.955  1.00  0.00    -0.307 OA
BRANCH   2   3
HETATM    3  C   UNL     1      43.217 -11.459   4.789  1.00  0.00     0.318 C 
HETATM    4  O   UNL     1      42.327 -10.674   5.111  1.00  0.00    -0.257 OA
BRANCH   3   5
HETATM    5  C   UNL     1      43.027 -12.795   4.267  1.00  0.00     0.160 A 
HETATM    6  C   UNL     1      42.498 -13.940   4.851  1.00  0.00     0.018 A 
HETATM    7  C   UNL     1      42.627 -14.980   3.880  1.00  0.00     0.009 A 
HETATM    8  C   UNL     1      43.202 -14.392   2.762  1.00  0.00     0.087 A 
HETATM    9  C   UNL     1      42.314 -16.353   3.820  1.00  0.00     0.015 A 
HETATM   10  O   UNL     1      43.443 -13.076   2.991  1.00  0.00    -0.303 OA
HETATM   11  C   UNL     1      43.490 -15.067   1.578  1.00  0.00     0.038 A 
HETATM   12  C   UNL     1      43.174 -16.428   1.542  1.00  0.00     0.003 A 
HETATM   13  C   UNL     1      42.597 -17.063   2.644  1.00  0.00     0.001 A 
BRANCH   6  14
HETATM   14  C   UNL     1      41.888 -14.041   6.202  1.00  0.00     0.210 C 
BRANCH  14  15
HETATM   15  O   UNL     1      42.882 -14.404   7.157  1.00  0.00    -0.387 OA
BRANCH  15  16
HETATM   16  C   UNL     1      42.815 -15.779   7.516  1.00  0.00     0.163 C 
HETATM   17  C   UNL     1      44.096 -16.456   7.071  1.00  0.00     0.033 C 
ENDBRANCH  15  16
ENDBRANCH  14  15
ENDBRANCH   6  14
ENDBRANCH   3   5
ENDBRANCH   2   3
ENDBRANCH   1   2
BRANCH   1  18
HETATM   18  C   UNL     1      45.691 -10.865   7.143  1.00  0.00     0.242 C 
HETATM   19  N   UNL     1      44.750 -10.045   7.732  1.00  0.00    -0.350 N 
HETATM   20  H   UNL     1      43.800 -10.023   7.383  1.00  0.00     0.163 HD
HETATM   21  O   UNL     1      46.882 -10.828   7.431  1.00  0.00    -0.271 OA
BRANCH  19  22
HETATM   22  C   UNL     1      45.112  -9.144   8.814  1.00  0.00     0.225 C 
BRANCH  22  23
HETATM   23  C   UNL     1      44.520  -9.464  10.194  1.00  0.00     0.239 C 
HETATM   24  N   UNL     1      43.522  -8.590  10.592  1.00  0.00    -0.325 N 
HETATM   25  H   UNL     1      43.649  -7.645  10.236  1.00  0.00     0.169 HD
HETATM   26  O   UNL     1      44.883 -10.476  10.789  1.00  0.00    -0.271 OA
BRANCH  24  27
HETATM   27  C   UNL     1      42.683  -8.713  11.728  1.00  0.00     0.041 C 
HETATM   28  C   UNL     1      41.402  -9.307  11.763  1.00  0.00    -0.029 C 
HETATM   29  C   UNL     1      40.646  -9.698  10.518  1.00  0.00     0.051 C 
HETATM   30  C   UNL     1      40.765  -9.499  13.019  1.00  0.00    -0.054 C 
HETATM   31  C   UNL     1      39.454 -10.233  13.145  1.00  0.00     0.049 C 
HETATM   32  C   UNL     1      41.330  -8.955  14.181  1.00  0.00     0.007 C 
HETATM   33  C   UNL     1      42.525  -8.255  14.118  1.00  0.00     0.003 C 
HETATM   34  C   UNL     1      43.200  -8.146  12.905  1.00  0.00     0.030 C 
ENDBRANCH  24  27
ENDBRANCH  22  23
ENDBRANCH  19  22
ENDBRANCH   1  18
TORSDOF 10
ENDMDL
MODEL 7
REMARK VINA RESULT:      -7.7      2.389      3.732
REMARK  10 active torsions:
REMARK  status: ('A' for Active; 'I' for Inactive)
REMARK    1  A    between atoms: C_2  and  O_3 
REMARK    2  A    between atoms: O_3  and  C_4 
REMARK    3  A    between atoms: C_4  and  C_5 
REMARK    4  A    between atoms: C_6  and  C_7 
REMARK    5  A    between atoms: C_7  and  O_8 
REMARK    6  A    between atoms: O_8  and  C_9 
REMARK    7  A    between atoms: C_9  and  C_10 
REMARK       I    between atoms: C_10  and  N_11 
REMARK    8  A    between atoms: N_11  and  C_12 
REMARK    9  A    between atoms: C_12  and  C_13 
REMARK       I    between atoms: C_13  and  N_14 
REMARK   10  A    between atoms: N_14  and  C_15 
ROOT
HETATM    1  C   UNL     1      43.268 -11.927   3.673  1.00  0.00     0.281 C 
ENDROOT
BRANCH   1   2
HETATM    2  O   UNL     1      43.397 -13.149   2.960  1.00  0.00    -0.307 OA
BRANCH   2   3
HETATM    3  C   UNL     1      42.304 -13.962   3.034  1.00  0.00     0.318 C 
HETATM    4  O   UNL     1      41.146 -13.563   2.932  1.00  0.00    -0.257 OA
BRANCH   3   5
HETATM    5  C   UNL     1      42.715 -15.318   3.329  1.00  0.00     0.160 A 
HETATM    6  C   UNL     1      43.275 -15.877   4.471  1.00  0.00     0.018 A 
HETATM    7  C   UNL     1      43.535 -17.248   4.159  1.00  0.00     0.009 A 
HETATM    8  C   UNL     1      43.092 -17.435   2.857  1.00  0.00     0.087 A 
HETATM    9  C   UNL     1      44.088 -18.352   4.838  1.00  0.00     0.015 A 
HETATM   10  O   UNL     1      42.597 -16.276   2.354  1.00  0.00    -0.303 OA
HETATM   11  C   UNL     1      43.155 -18.646   2.171  1.00  0.00     0.038 A 
HETATM   12  C   UNL     1      43.711 -19.727   2.862  1.00  0.00     0.003 A 
HETATM   13  C   UNL     1      44.172 -19.585   4.172  1.00  0.00     0.001 A 
BRANCH   6  14
HETATM   14  C   UNL     1      43.516 -15.188   5.765  1.00  0.00     0.210 C 
BRANCH  14  15
HETATM   15  O   UNL     1      42.617 -15.684   6.753  1.00  0.00    -0.387 OA
BRANCH  15  16
HETATM   16  C   UNL     1      41.382 -14.976   6.769  1.00  0.00     0.163 C 
HETATM   17  C   UNL     1      40.273 -15.937   6.389  1.00  0.00     0.033 C 
ENDBRANCH  15  16
ENDBRANCH  14  15
ENDBRANCH   6  14
ENDBRANCH   3   5
ENDBRANCH   2   3
ENDBRANCH   1   2
BRANCH   1  18
HETATM   18  C   UNL     1      44.456 -11.576   4.576  1.00  0.00     0.242 C 
HETATM   19  N   UNL     1      44.197 -11.679   5.928  1.00  0.00    -0.350 N 
HETATM   20  H   UNL     1      43.256 -11.849   6.257  1.00  0.00     0.163 HD
HETATM   21  O   UNL     1      45.546 -11.232   4.130  1.00  0.00    -0.271 OA
BRANCH  19  22
HETATM   22  C   UNL     1      45.249 -11.476   6.912  1.00  0.00     0.225 C 
BRANCH  22  23
HETATM   23  C   UNL     1      45.134 -10.215   7.780  1.00  0.00     0.239 C 
HETATM   24  N   UNL     1      43.859  -9.989   8.273  1.00  0.00    -0.325 N 
HETATM   25  H   UNL     1      43.123 -10.316   7.651  1.00  0.00     0.169 HD
HETATM   26  O   UNL     1      46.144  -9.569   8.047  1.00  0.00    -0.271 OA
BRANCH  24  27
HETATM   27  C   UNL     1      43.473  -9.009   9.222  1.00  0.00     0.041 C 
HETATM   28  C   UNL     1      43.441  -9.169  10.625  1.00  0.00    -0.029 C 
HETATM   29  C   UNL     1      43.602 -10.508  11.301  1.00  0.00     0.051 C 
HETATM   30  C   UNL     1      43.190  -8.033  11.443  1.00  0.00    -0.054 C 
HETATM   31  C   UNL     1      43.259  -8.103  12.948  1.00  0.00     0.049 C 
HETATM   32  C   UNL     1      42.819  -6.817  10.856  1.00  0.00     0.007 C 
HETATM   33  C   UNL     1      42.722  -6.703   9.478  1.00  0.00     0.003 C 
HETATM   34  C   UNL     1      43.058  -7.786   8.669  1.00  0.00     0.030 C 
ENDBRANCH  24  27
ENDBRANCH  22  23
ENDBRANCH  19  22
ENDBRANCH   1  18
TORSDOF 10
ENDMDL
MODEL 8
REMARK VINA RESULT:      -7.6      2.279      4.497
REMARK  10 active torsions:
REMARK  status: ('A' for Active; 'I' for Inactive)
REMARK    1  A    between atoms: C_2  and  O_3 
REMARK    2  A    between atoms: O_3  and  C_4 
REMARK    3  A    between atoms: C_4  and  C_5 
REMARK    4  A    between atoms: C_6  and  C_7 
REMARK    5  A    between atoms: C_7  and  O_8 
REMARK    6  A    between atoms: O_8  and  C_9 
REMARK    7  A    between atoms: C_9  and  C_10 
REMARK       I    between atoms: C_10  and  N_11 
REMARK    8  A    between atoms: N_11  and  C_12 
REMARK    9  A    between atoms: C_12  and  C_13 
REMARK       I    between atoms: C_13  and  N_14 
REMARK   10  A    between atoms: N_14  and  C_15 
ROOT
HETATM    1  C   UNL     1      40.363 -12.047   5.627  1.00  0.00     0.281 C 
ENDROOT
BRANCH   1   2
HETATM    2  O   UNL     1      40.138 -13.400   5.253  1.00  0.00    -0.307 OA
BRANCH   2   3
HETATM    3  C   UNL     1      40.247 -13.640   3.914  1.00  0.00     0.318 C 
HETATM    4  O   UNL     1      39.637 -13.009   3.054  1.00  0.00    -0.257 OA
BRANCH   3   5
HETATM    5  C   UNL     1      41.108 -14.780   3.685  1.00  0.00     0.160 A 
HETATM    6  C   UNL     1      41.114 -15.734   2.675  1.00  0.00     0.018 A 
HETATM    7  C   UNL     1      42.151 -16.660   3.005  1.00  0.00     0.009 A 
HETATM    8  C   UNL     1      42.722 -16.192   4.181  1.00  0.00     0.087 A 
HETATM    9  C   UNL     1      42.675 -17.838   2.436  1.00  0.00     0.015 A 
HETATM   10  O   UNL     1      42.097 -15.060   4.592  1.00  0.00    -0.303 OA
HETATM   11  C   UNL     1      43.784 -16.808   4.839  1.00  0.00     0.038 A 
HETATM   12  C   UNL     1      44.286 -17.977   4.259  1.00  0.00     0.003 A 
HETATM   13  C   UNL     1      43.741 -18.486   3.078  1.00  0.00     0.001 A 
BRANCH   6  14
HETATM   14  C   UNL     1      40.238 -15.756   1.475  1.00  0.00     0.210 C 
BRANCH  14  15
HETATM   15  O   UNL     1      40.769 -14.894   0.471  1.00  0.00    -0.387 OA
BRANCH  15  16
HETATM   16  C   UNL     1      39.810 -14.570  -0.529  1.00  0.00     0.163 C 
HETATM   17  C   UNL     1      39.516 -13.085  -0.450  1.00  0.00     0.033 C 
ENDBRANCH  15  16
ENDBRANCH  14  15
ENDBRANCH   6  14
ENDBRANCH   3   5
ENDBRANCH   2   3
ENDBRANCH   1   2
BRANCH   1  18
HETATM   18  C   UNL     1      41.823 -11.695   5.934  1.00  0.00     0.242 C 
HETATM   19  N   UNL     1      42.464 -12.592   6.764  1.00  0.00    -0.350 N 
HETATM   20  H   UNL     1      41.945 -13.335   7.214  1.00  0.00     0.163 HD
HETATM   21  O   UNL     1      42.371 -10.698   5.478  1.00  0.00    -0.271 OA
BRANCH  19  22
HETATM   22  C   UNL     1      43.879 -12.452   7.070  1.00  0.00     0.225 C 
BRANCH  22  23
HETATM   23  C   UNL     1      44.258 -11.319   8.034  1.00  0.00     0.239 C 
HETATM   24  N   UNL     1      43.169 -10.704   8.631  1.00  0.00    -0.325 N 
HETATM   25  H   UNL     1      42.340 -10.691   8.041  1.00  0.00     0.169 HD
HETATM   26  O   UNL     1      45.442 -11.099   8.276  1.00  0.00    -0.271 OA
BRANCH  24  27
HETATM   27  C   UNL     1      43.198  -9.745   9.674  1.00  0.00     0.041 C 
HETATM   28  C   UNL     1      43.081  -8.345   9.528  1.00  0.00    -0.029 C 
HETATM   29  C   UNL     1      43.140  -7.653   8.188  1.00  0.00     0.051 C 
HETATM   30  C   UNL     1      42.961  -7.537  10.691  1.00  0.00    -0.054 C 
HETATM   31  C   UNL     1      42.714  -6.051  10.609  1.00  0.00     0.049 C 
HETATM   32  C   UNL     1      43.122  -8.109  11.960  1.00  0.00     0.007 C 
HETATM   33  C   UNL     1      43.369  -9.467  12.091  1.00  0.00     0.003 C 
HETATM   34  C   UNL     1      43.394 -10.278  10.959  1.00  0.00     0.030 C 
ENDBRANCH  24  27
ENDBRANCH  22  23
ENDBRANCH  19  22
ENDBRANCH   1  18
TORSDOF 10
ENDMDL
MODEL 9
REMARK VINA RESULT:      -7.6      2.592      4.687
REMARK  10 active torsions:
REMARK  status: ('A' for Active; 'I' for Inactive)
REMARK    1  A    between atoms: C_2  and  O_3 
REMARK    2  A    between atoms: O_3  and  C_4 
REMARK    3  A    between atoms: C_4  and  C_5 
REMARK    4  A    between atoms: C_6  and  C_7 
REMARK    5  A    between atoms: C_7  and  O_8 
REMARK    6  A    between atoms: O_8  and  C_9 
REMARK    7  A    between atoms: C_9  and  C_10 
REMARK       I    between atoms: C_10  and  N_11 
REMARK    8  A    between atoms: N_11  and  C_12 
REMARK    9  A    between atoms: C_12  and  C_13 
REMARK       I    between atoms: C_13  and  N_14 
REMARK   10  A    between atoms: N_14  and  C_15 
ROOT
HETATM    1  C   UNL     1      43.165 -13.480   6.289  1.00  0.00     0.281 C 
ENDROOT
BRANCH   1   2
HETATM    2  O   UNL     1      41.765 -13.294   6.132  1.00  0.00    -0.307 OA
BRANCH   2   3
HETATM    3  C   UNL     1      41.048 -14.453   6.051  1.00  0.00     0.318 C 
HETATM    4  O   UNL     1      39.980 -14.639   6.629  1.00  0.00    -0.257 OA
BRANCH   3   5
HETATM    5  C   UNL     1      41.772 -15.428   5.264  1.00  0.00     0.160 A 
HETATM    6  C   UNL     1      41.895 -15.586   3.889  1.00  0.00     0.018 A 
HETATM    7  C   UNL     1      42.680 -16.764   3.690  1.00  0.00     0.009 A 
HETATM    8  C   UNL     1      43.001 -17.229   4.958  1.00  0.00     0.087 A 
HETATM    9  C   UNL     1      43.159 -17.484   2.578  1.00  0.00     0.015 A 
HETATM   10  O   UNL     1      42.457 -16.427   5.908  1.00  0.00    -0.303 OA
HETATM   11  C   UNL     1      43.770 -18.363   5.208  1.00  0.00     0.038 A 
HETATM   12  C   UNL     1      44.233 -19.064   4.091  1.00  0.00     0.003 A 
HETATM   13  C   UNL     1      43.932 -18.635   2.796  1.00  0.00     0.001 A 
BRANCH   6  14
HETATM   14  C   UNL     1      41.350 -14.682   2.843  1.00  0.00     0.210 C 
BRANCH  14  15
HETATM   15  O   UNL     1      42.105 -13.474   2.804  1.00  0.00    -0.387 OA
BRANCH  15  16
HETATM   16  C   UNL     1      41.279 -12.316   2.817  1.00  0.00     0.163 C 
HETATM   17  C   UNL     1      42.024 -11.186   2.135  1.00  0.00     0.033 C 
ENDBRANCH  15  16
ENDBRANCH  14  15
ENDBRANCH   6  14
ENDBRANCH   3   5
ENDBRANCH   2   3
ENDBRANCH   1   2
BRANCH   1  18
HETATM   18  C   UNL     1      44.011 -12.218   6.092  1.00  0.00     0.242 C 
HETATM   19  N   UNL     1      44.842 -11.915   7.152  1.00  0.00    -0.350 N 
HETATM   20  H   UNL     1      44.774 -12.432   8.019  1.00  0.00     0.163 HD
HETATM   21  O   UNL     1      43.953 -11.536   5.075  1.00  0.00    -0.271 OA
BRANCH  19  22
HETATM   22  C   UNL     1      45.779 -10.806   7.079  1.00  0.00     0.225 C 
BRANCH  22  23
HETATM   23  C   UNL     1      45.472  -9.594   7.970  1.00  0.00     0.239 C 
HETATM   24  N   UNL     1      44.176  -9.576   8.462  1.00  0.00    -0.325 N 
HETATM   25  H   UNL     1      43.500 -10.001   7.832  1.00  0.00     0.169 HD
HETATM   26  O   UNL     1      46.370  -8.806   8.253  1.00  0.00    -0.271 OA
BRANCH  24  27
HETATM   27  C   UNL     1      43.644  -8.686   9.427  1.00  0.00     0.041 C 
HETATM   28  C   UNL     1      43.523  -8.928  10.814  1.00  0.00    -0.029 C 
HETATM   29  C   UNL     1      43.743 -10.287  11.430  1.00  0.00     0.051 C 
HETATM   30  C   UNL     1      43.122  -7.864  11.668  1.00  0.00    -0.054 C 
HETATM   31  C   UNL     1      43.086  -8.015  13.168  1.00  0.00     0.049 C 
HETATM   32  C   UNL     1      42.695  -6.648  11.117  1.00  0.00     0.007 C 
HETATM   33  C   UNL     1      42.690  -6.463   9.743  1.00  0.00     0.003 C 
HETATM   34  C   UNL     1      43.171  -7.469   8.908  1.00  0.00     0.030 C 
ENDBRANCH  24  27
ENDBRANCH  22  23
ENDBRANCH  19  22
ENDBRANCH   1  18
TORSDOF 10
ENDMDL
MODEL 10
REMARK VINA RESULT:      -7.5      2.995      5.519
REMARK  10 active torsions:
REMARK  status: ('A' for Active; 'I' for Inactive)
REMARK    1  A    between atoms: C_2  and  O_3 
REMARK    2  A    between atoms: O_3  and  C_4 
REMARK    3  A    between atoms: C_4  and  C_5 
REMARK    4  A    between atoms: C_6  and  C_7 
REMARK    5  A    between atoms: C_7  and  O_8 
REMARK    6  A    between atoms: O_8  and  C_9 
REMARK    7  A    between atoms: C_9  and  C_10 
REMARK       I    between atoms: C_10  and  N_11 
REMARK    8  A    between atoms: N_11  and  C_12 
REMARK    9  A    between atoms: C_12  and  C_13 
REMARK       I    between atoms: C_13  and  N_14 
REMARK   10  A    between atoms: N_14  and  C_15 
ROOT
HETATM    1  C   UNL     1      42.238 -13.941   6.114  1.00  0.00     0.281 C 
ENDROOT
BRANCH   1   2
HETATM    2  O   UNL     1      42.423 -15.320   6.402  1.00  0.00    -0.307 OA
BRANCH   2   3
HETATM    3  C   UNL     1      43.703 -15.764   6.235  1.00  0.00     0.318 C 
HETATM    4  O   UNL     1      44.682 -15.243   6.765  1.00  0.00    -0.257 OA
BRANCH   3   5
HETATM    5  C   UNL     1      43.727 -16.862   5.293  1.00  0.00     0.160 A 
HETATM    6  C   UNL     1      43.486 -16.900   3.925  1.00  0.00     0.018 A 
HETATM    7  C   UNL     1      43.587 -18.273   3.539  1.00  0.00     0.009 A 
HETATM    8  C   UNL     1      43.907 -18.973   4.695  1.00  0.00     0.087 A 
HETATM    9  C   UNL     1      43.450 -18.999   2.340  1.00  0.00     0.015 A 
HETATM   10  O   UNL     1      43.993 -18.127   5.752  1.00  0.00    -0.303 OA
HETATM   11  C   UNL     1      44.105 -20.351   4.750  1.00  0.00     0.038 A 
HETATM   12  C   UNL     1      43.961 -21.052   3.549  1.00  0.00     0.003 A 
HETATM   13  C   UNL     1      43.637 -20.389   2.363  1.00  0.00     0.001 A 
BRANCH   6  14
HETATM   14  C   UNL     1      43.217 -15.735   3.043  1.00  0.00     0.210 C 
BRANCH  14  15
HETATM   15  O   UNL     1      42.025 -15.958   2.295  1.00  0.00    -0.387 OA
BRANCH  15  16
HETATM   16  C   UNL     1      40.880 -16.100   3.128  1.00  0.00     0.163 C 
HETATM   17  C   UNL     1      39.656 -15.680   2.339  1.00  0.00     0.033 C 
ENDBRANCH  15  16
ENDBRANCH  14  15
ENDBRANCH   6  14
ENDBRANCH   3   5
ENDBRANCH   2   3
ENDBRANCH   1   2
BRANCH   1  18
HETATM   18  C   UNL     1      40.807 -13.545   5.736  1.00  0.00     0.242 C 
HETATM   19  N   UNL     1      40.711 -12.761   4.604  1.00  0.00    -0.350 N 
HETATM   20  H   UNL     1      41.545 -12.392   4.165  1.00  0.00     0.163 HD
HETATM   21  O   UNL     1      39.830 -13.899   6.386  1.00  0.00    -0.271 OA
BRANCH  19  22
HETATM   22  C   UNL     1      39.417 -12.384   4.059  1.00  0.00     0.225 C 
BRANCH  22  23
HETATM   23  C   UNL     1      39.426 -11.739   2.666  1.00  0.00     0.239 C 
HETATM   24  N   UNL     1      40.680 -11.695   2.078  1.00  0.00    -0.325 N 
HETATM   25  H   UNL     1      41.438 -11.600   2.751  1.00  0.00     0.169 HD
HETATM   26  O   UNL     1      38.366 -11.403   2.145  1.00  0.00    -0.271 OA
BRANCH  24  27
HETATM   27  C   UNL     1      40.986 -11.311   0.749  1.00  0.00     0.041 C 
HETATM   28  C   UNL     1      40.864 -12.116  -0.406  1.00  0.00    -0.029 C 
HETATM   29  C   UNL     1      40.600 -13.600  -0.345  1.00  0.00     0.051 C 
HETATM   30  C   UNL     1      41.053 -11.523  -1.684  1.00  0.00    -0.054 C 
HETATM   31  C   UNL     1      40.822 -12.290  -2.962  1.00  0.00     0.049 C 
HETATM   32  C   UNL     1      41.514 -10.203  -1.782  1.00  0.00     0.007 C 
HETATM   33  C   UNL     1      41.760  -9.460  -0.638  1.00  0.00     0.003 C 
HETATM   34  C   UNL     1      41.487 -10.005   0.614  1.00  0.00     0.030 C 
ENDBRANCH  24  27
ENDBRANCH  22  23
ENDBRANCH  19  22
ENDBRANCH   1  18
TORSDOF 10
ENDMDL
