MODEL 1
REMARK VINA RESULT:      -8.6      0.000      0.000
REMARK  3 active torsions:
REMARK  status: ('A' for Active; 'I' for Inactive)
REMARK    1  A    between atoms: C_6  and  N_7 
REMARK       I    between atoms: N_7  and  C_8 
REMARK    2  A    between atoms: C_8  and  C_9 
REMARK    3  A    between atoms: C_9  and  C_10 
ROOT
HETATM    1  C   UNL     1      42.364 -12.668   5.400  1.00  0.00     0.286 C 
HETATM    2  N   UNL     1      43.783 -12.112   5.271  1.00  0.00    -0.056 N 
HETATM    3  H   UNL     1      44.373 -12.900   4.926  1.00  0.00     0.278 HD
HETATM    4  H   UNL     1      43.824 -11.378   4.554  1.00  0.00     0.278 HD
HETATM    5  C   UNL     1      44.285 -11.629   6.593  1.00  0.00     0.209 C 
HETATM    6  C   UNL     1      43.357 -10.492   7.075  1.00  0.00     0.115 C 
HETATM    7  N   UNL     1      41.943 -10.870   7.055  1.00  0.00    -0.353 N 
HETATM    8  C   UNL     1      41.407 -11.643   6.039  1.00  0.00     0.249 C 
HETATM    9  O   UNL     1      40.221 -11.560   5.748  1.00  0.00    -0.271 OA
HETATM   10  C   UNL     1      45.723 -11.148   6.468  1.00  0.00     0.035 C 
HETATM   11  C   UNL     1      46.214 -10.637   7.823  1.00  0.00     0.002 C 
HETATM   12  C   UNL     1      45.284  -9.575   8.418  1.00  0.00     0.002 C 
HETATM   13  C   UNL     1      43.817 -10.019   8.455  1.00  0.00     0.027 C 
HETATM   14  H   UNL     1      41.271 -10.202   7.428  1.00  0.00     0.163 HD
ENDROOT
BRANCH   1  15
HETATM   15  C   UNL     1      41.870 -13.196   4.047  1.00  0.00     0.146 C 
BRANCH  15  16
HETATM   16  C   UNL     1      41.877 -14.709   4.093  1.00  0.00     0.224 C 
HETATM   17  N   UNL     1      43.050 -15.291   3.675  1.00  0.00    -0.327 N 
HETATM   18  H   UNL     1      43.859 -14.696   3.543  1.00  0.00     0.169 HD
HETATM   19  O   UNL     1      40.895 -15.288   4.560  1.00  0.00    -0.273 OA
BRANCH  17  20
HETATM   20  C   UNL     1      43.274 -16.685   3.531  1.00  0.00     0.040 A 
HETATM   21  C   UNL     1      43.944 -17.388   4.552  1.00  0.00    -0.035 A 
HETATM   22  C   UNL     1      44.167 -18.772   4.402  1.00  0.00     0.015 A 
HETATM   23  C   UNL     1      44.413 -16.727   5.820  1.00  0.00     0.050 C 
HETATM   24  C   UNL     1      43.752 -19.457   3.256  1.00  0.00    -0.061 A 
HETATM   25  C   UNL     1      43.968 -20.935   3.109  1.00  0.00     0.048 C 
HETATM   26  C   UNL     1      43.102 -18.749   2.247  1.00  0.00     0.009 A 
HETATM   27  C   UNL     1      42.871 -17.379   2.383  1.00  0.00     0.030 A 
ENDBRANCH  17  20
ENDBRANCH  15  16
ENDBRANCH   1  15
TORSDOF 3
ENDMDL
MODEL 2
REMARK VINA RESULT:      -8.6      3.631      7.189
REMARK  3 active torsions:
REMARK  status: ('A' for Active; 'I' for Inactive)
REMARK    1  A    between atoms: C_6  and  N_7 
REMARK       I    between atoms: N_7  and  C_8 
REMARK    2  A    between atoms: C_8  and  C_9 
REMARK    3  A    between atoms: C_9  and  C_10 
ROOT
HETATM    1  C   UNL     1      42.893 -15.790   4.530  1.00  0.00     0.286 C 
HETATM    2  N   UNL     1      43.352 -16.669   3.365  1.00  0.00    -0.056 N 
HETATM    3  H   UNL     1      42.737 -16.424   2.558  1.00  0.00     0.278 HD
HETATM    4  H   UNL     1      44.311 -16.432   3.085  1.00  0.00     0.278 HD
HETATM    5  C   UNL     1      43.210 -18.116   3.706  1.00  0.00     0.209 C 
HETATM    6  C   UNL     1      44.109 -18.415   4.926  1.00  0.00     0.115 C 
HETATM    7  N   UNL     1      43.872 -17.495   6.040  1.00  0.00    -0.353 N 
HETATM    8  C   UNL     1      43.627 -16.149   5.837  1.00  0.00     0.249 C 
HETATM    9  O   UNL     1      43.905 -15.324   6.698  1.00  0.00    -0.271 OA
HETATM   10  C   UNL     1      43.598 -18.979   2.513  1.00  0.00     0.035 C 
HETATM   11  C   UNL     1      43.470 -20.457   2.884  1.00  0.00     0.002 C 
HETATM   12  C   UNL     1      44.254 -20.811   4.152  1.00  0.00     0.002 C 
HETATM   13  C   UNL     1      43.937 -19.881   5.329  1.00  0.00     0.027 C 
HETATM   14  H   UNL     1      44.372 -17.670   6.910  1.00  0.00     0.163 HD
ENDROOT
BRANCH   1  15
HETATM   15  C   UNL     1      43.005 -14.306   4.160  1.00  0.00     0.146 C 
BRANCH  15  16
HETATM   16  C   UNL     1      42.731 -14.160   2.679  1.00  0.00     0.224 C 
HETATM   17  N   UNL     1      41.444 -13.790   2.366  1.00  0.00    -0.327 N 
HETATM   18  H   UNL     1      40.841 -13.477   3.116  1.00  0.00     0.169 HD
HETATM   19  O   UNL     1      43.667 -14.301   1.891  1.00  0.00    -0.273 OA
BRANCH  17  20
HETATM   20  C   UNL     1      40.912 -13.684   1.054  1.00  0.00     0.040 A 
HETATM   21  C   UNL     1      40.176 -14.759   0.517  1.00  0.00    -0.035 A 
HETATM   22  C   UNL     1      39.652 -14.649  -0.787  1.00  0.00     0.015 A 
HETATM   23  C   UNL     1      39.897 -16.019   1.290  1.00  0.00     0.050 C 
HETATM   24  C   UNL     1      39.861 -13.505  -1.564  1.00  0.00    -0.061 A 
HETATM   25  C   UNL     1      39.281 -13.380  -2.942  1.00  0.00     0.048 C 
HETATM   26  C   UNL     1      40.601 -12.454  -1.027  1.00  0.00     0.009 A 
HETATM   27  C   UNL     1      41.123 -12.546   0.265  1.00  0.00     0.030 A 
ENDBRANCH  17  20
ENDBRANCH  15  16
ENDBRANCH   1  15
TORSDOF 3
ENDMDL
MODEL 3
REMARK VINA RESULT:      -8.4      4.284      7.910
REMARK  3 active torsions:
REMARK  status: ('A' for Active; 'I' for Inactive)
REMARK    1  A    between atoms: C_6  and  N_7 
REMARK       I    between atoms: N_7  and  C_8 
REMARK    2  A    between atoms: C_8  and  C_9 
REMARK    3  A    between atoms: C_9  and  C_10 
ROOT
HETATM    1  C   UNL     1      42.549 -16.164   2.654  1.00  0.00     0.286 C 
HETATM    2  N   UNL     1      43.234 -17.413   2.096  1.00  0.00    -0.056 N 
HETATM    3  H   UNL     1      42.714 -17.665   1.228  1.00  0.00     0.278 HD
HETATM    4  H   UNL     1      44.199 -17.204   1.810  1.00  0.00     0.278 HD
HETATM    5  C   UNL     1      43.176 -18.535   3.081  1.00  0.00     0.209 C 
HETATM    6  C   UNL     1      43.926 -18.095   4.358  1.00  0.00     0.115 C 
HETATM    7  N   UNL     1      43.464 -16.803   4.868  1.00  0.00    -0.353 N 
HETATM    8  C   UNL     1      43.131 -15.760   4.023  1.00  0.00     0.249 C 
HETATM    9  O   UNL     1      43.218 -14.598   4.397  1.00  0.00    -0.271 OA
HETATM   10  C   UNL     1      43.794 -19.792   2.486  1.00  0.00     0.035 C 
HETATM   11  C   UNL     1      43.746 -20.924   3.514  1.00  0.00     0.002 C 
HETATM   12  C   UNL     1      44.382 -20.526   4.849  1.00  0.00     0.002 C 
HETATM   13  C   UNL     1      43.832 -19.207   5.404  1.00  0.00     0.027 C 
HETATM   14  H   UNL     1      43.857 -16.477   5.749  1.00  0.00     0.163 HD
ENDROOT
BRANCH   1  15
HETATM   15  C   UNL     1      42.579 -15.029   1.623  1.00  0.00     0.146 C 
BRANCH  15  16
HETATM   16  C   UNL     1      41.231 -14.968   0.939  1.00  0.00     0.224 C 
HETATM   17  N   UNL     1      41.162 -14.092  -0.118  1.00  0.00    -0.327 N 
HETATM   18  H   UNL     1      42.026 -13.697  -0.470  1.00  0.00     0.169 HD
HETATM   19  O   UNL     1      40.346 -15.739   1.313  1.00  0.00    -0.273 OA
BRANCH  17  20
HETATM   20  C   UNL     1      39.991 -13.780  -0.857  1.00  0.00     0.040 A 
HETATM   21  C   UNL     1      39.182 -12.701  -0.450  1.00  0.00    -0.035 A 
HETATM   22  C   UNL     1      38.018 -12.399  -1.185  1.00  0.00     0.015 A 
HETATM   23  C   UNL     1      39.522 -11.832   0.731  1.00  0.00     0.050 C 
HETATM   24  C   UNL     1      37.641 -13.155  -2.299  1.00  0.00    -0.061 A 
HETATM   25  C   UNL     1      36.416 -12.815  -3.096  1.00  0.00     0.048 C 
HETATM   26  C   UNL     1      38.442 -14.227  -2.685  1.00  0.00     0.009 A 
HETATM   27  C   UNL     1      39.601 -14.537  -1.969  1.00  0.00     0.030 A 
ENDBRANCH  17  20
ENDBRANCH  15  16
ENDBRANCH   1  15
TORSDOF 3
ENDMDL
MODEL 4
REMARK VINA RESULT:      -8.3      3.318      5.650
REMARK  3 active torsions:
REMARK  status: ('A' for Active; 'I' for Inactive)
REMARK    1  A    between atoms: C_6  and  N_7 
REMARK       I    between atoms: N_7  and  C_8 
REMARK    2  A    between atoms: C_8  and  C_9 
REMARK    3  A    between atoms: C_9  and  C_10 
ROOT
HETATM    1  C   UNL     1      41.938 -12.825   2.300  1.00  0.00     0.286 C 
HETATM    2  N   UNL     1      40.869 -13.642   1.573  1.00  0.00    -0.056 N 
HETATM    3  H   UNL     1      41.104 -14.644   1.743  1.00  0.00     0.278 HD
HETATM    4  H   UNL     1      39.943 -13.483   1.988  1.00  0.00     0.278 HD
HETATM    5  C   UNL     1      40.882 -13.347   0.108  1.00  0.00     0.209 C 
HETATM    6  C   UNL     1      40.567 -11.847  -0.085  1.00  0.00     0.115 C 
HETATM    7  N   UNL     1      41.425 -10.981   0.725  1.00  0.00    -0.353 N 
HETATM    8  C   UNL     1      41.795 -11.317   2.015  1.00  0.00     0.249 C 
HETATM    9  O   UNL     1      42.072 -10.451   2.834  1.00  0.00    -0.271 OA
HETATM   10  C   UNL     1      39.866 -14.219  -0.615  1.00  0.00     0.035 C 
HETATM   11  C   UNL     1      39.875 -13.890  -2.108  1.00  0.00     0.002 C 
HETATM   12  C   UNL     1      39.672 -12.396  -2.378  1.00  0.00     0.002 C 
HETATM   13  C   UNL     1      40.630 -11.508  -1.575  1.00  0.00     0.027 C 
HETATM   14  H   UNL     1      41.331  -9.974   0.600  1.00  0.00     0.163 HD
ENDROOT
BRANCH   1  15
HETATM   15  C   UNL     1      41.945 -13.161   3.797  1.00  0.00     0.146 C 
BRANCH  15  16
HETATM   16  C   UNL     1      41.947 -14.667   3.949  1.00  0.00     0.224 C 
HETATM   17  N   UNL     1      43.094 -15.287   3.512  1.00  0.00    -0.327 N 
HETATM   18  H   UNL     1      43.897 -14.709   3.295  1.00  0.00     0.169 HD
HETATM   19  O   UNL     1      40.989 -15.203   4.507  1.00  0.00    -0.273 OA
BRANCH  17  20
HETATM   20  C   UNL     1      43.303 -16.690   3.455  1.00  0.00     0.040 A 
HETATM   21  C   UNL     1      43.898 -17.346   4.550  1.00  0.00    -0.035 A 
HETATM   22  C   UNL     1      44.107 -18.738   4.487  1.00  0.00     0.015 A 
HETATM   23  C   UNL     1      44.300 -16.625   5.808  1.00  0.00     0.050 C 
HETATM   24  C   UNL     1      43.751 -19.479   3.355  1.00  0.00    -0.061 A 
HETATM   25  C   UNL     1      43.950 -20.965   3.299  1.00  0.00     0.048 C 
HETATM   26  C   UNL     1      43.175 -18.817   2.273  1.00  0.00     0.009 A 
HETATM   27  C   UNL     1      42.958 -17.438   2.322  1.00  0.00     0.030 A 
ENDBRANCH  17  20
ENDBRANCH  15  16
ENDBRANCH   1  15
TORSDOF 3
ENDMDL
MODEL 5
REMARK VINA RESULT:      -7.9      1.525      2.208
REMARK  3 active torsions:
REMARK  status: ('A' for Active; 'I' for Inactive)
REMARK    1  A    between atoms: C_6  and  N_7 
REMARK       I    between atoms: N_7  and  C_8 
REMARK    2  A    between atoms: C_8  and  C_9 
REMARK    3  A    between atoms: C_9  and  C_10 
ROOT
HETATM    1  C   UNL     1      42.635 -12.266   6.132  1.00  0.00     0.286 C 
HETATM    2  N   UNL     1      42.073 -11.129   6.988  1.00  0.00    -0.056 N 
HETATM    3  H   UNL     1      41.274 -10.729   6.450  1.00  0.00     0.278 HD
HETATM    4  H   UNL     1      41.685 -11.491   7.867  1.00  0.00     0.278 HD
HETATM    5  C   UNL     1      43.114 -10.083   7.227  1.00  0.00     0.209 C 
HETATM    6  C   UNL     1      44.288 -10.735   7.990  1.00  0.00     0.115 C 
HETATM    7  N   UNL     1      44.777 -11.952   7.340  1.00  0.00    -0.353 N 
HETATM    8  C   UNL     1      43.918 -12.859   6.745  1.00  0.00     0.249 C 
HETATM    9  O   UNL     1      44.225 -14.041   6.645  1.00  0.00    -0.271 OA
HETATM   10  C   UNL     1      42.523  -8.922   8.015  1.00  0.00     0.035 C 
HETATM   11  C   UNL     1      43.604  -7.872   8.271  1.00  0.00     0.002 C 
HETATM   12  C   UNL     1      44.850  -8.466   8.935  1.00  0.00     0.002 C 
HETATM   13  C   UNL     1      45.391  -9.697   8.198  1.00  0.00     0.027 C 
HETATM   14  H   UNL     1      45.598 -12.403   7.740  1.00  0.00     0.163 HD
ENDROOT
BRANCH   1  15
HETATM   15  C   UNL     1      41.552 -13.317   5.859  1.00  0.00     0.146 C 
BRANCH  15  16
HETATM   16  C   UNL     1      42.058 -14.258   4.788  1.00  0.00     0.224 C 
HETATM   17  N   UNL     1      41.936 -15.594   5.091  1.00  0.00    -0.327 N 
HETATM   18  H   UNL     1      41.376 -15.852   5.895  1.00  0.00     0.169 HD
HETATM   19  O   UNL     1      42.455 -13.780   3.724  1.00  0.00    -0.273 OA
BRANCH  17  20
HETATM   20  C   UNL     1      42.423 -16.668   4.302  1.00  0.00     0.040 A 
HETATM   21  C   UNL     1      43.390 -17.539   4.839  1.00  0.00    -0.035 A 
HETATM   22  C   UNL     1      43.873 -18.602   4.049  1.00  0.00     0.015 A 
HETATM   23  C   UNL     1      43.917 -17.403   6.243  1.00  0.00     0.050 C 
HETATM   24  C   UNL     1      43.425 -18.800   2.740  1.00  0.00    -0.061 A 
HETATM   25  C   UNL     1      43.921 -19.947   1.909  1.00  0.00     0.048 C 
HETATM   26  C   UNL     1      42.478 -17.924   2.214  1.00  0.00     0.009 A 
HETATM   27  C   UNL     1      41.987 -16.869   2.985  1.00  0.00     0.030 A 
ENDBRANCH  17  20
ENDBRANCH  15  16
ENDBRANCH   1  15
TORSDOF 3
ENDMDL
MODEL 6
REMARK VINA RESULT:      -7.7      3.918      6.088
REMARK  3 active torsions:
REMARK  status: ('A' for Active; 'I' for Inactive)
REMARK    1  A    between atoms: C_6  and  N_7 
REMARK       I    between atoms: N_7  and  C_8 
REMARK    2  A    between atoms: C_8  and  C_9 
REMARK    3  A    between atoms: C_9  and  C_10 
ROOT
HETATM    1  C   UNL     1      40.704 -11.806   2.032  1.00  0.00     0.286 C 
HETATM    2  N   UNL     1      41.387 -12.060   0.686  1.00  0.00    -0.056 N 
HETATM    3  H   UNL     1      42.203 -11.411   0.649  1.00  0.00     0.278 HD
HETATM    4  H   UNL     1      41.768 -13.013   0.644  1.00  0.00     0.278 HD
HETATM    5  C   UNL     1      40.450 -11.784  -0.444  1.00  0.00     0.209 C 
HETATM    6  C   UNL     1      39.246 -12.743  -0.319  1.00  0.00     0.115 C 
HETATM    7  N   UNL     1      38.633 -12.710   1.010  1.00  0.00    -0.353 N 
HETATM    8  C   UNL     1      39.391 -12.604   2.162  1.00  0.00     0.249 C 
HETATM    9  O   UNL     1      38.979 -13.047   3.227  1.00  0.00    -0.271 OA
HETATM   10  C   UNL     1      41.163 -11.967  -1.777  1.00  0.00     0.035 C 
HETATM   11  C   UNL     1      40.186 -11.702  -2.923  1.00  0.00     0.002 C 
HETATM   12  C   UNL     1      38.913 -12.545  -2.811  1.00  0.00     0.002 C 
HETATM   13  C   UNL     1      38.245 -12.440  -1.435  1.00  0.00     0.027 C 
HETATM   14  H   UNL     1      37.787 -13.258   1.152  1.00  0.00     0.163 HD
ENDROOT
BRANCH   1  15
HETATM   15  C   UNL     1      41.682 -12.056   3.186  1.00  0.00     0.146 C 
BRANCH  15  16
HETATM   16  C   UNL     1      42.427 -13.344   2.912  1.00  0.00     0.224 C 
HETATM   17  N   UNL     1      41.831 -14.473   3.424  1.00  0.00    -0.327 N 
HETATM   18  H   UNL     1      40.885 -14.396   3.777  1.00  0.00     0.169 HD
HETATM   19  O   UNL     1      43.436 -13.302   2.206  1.00  0.00    -0.273 OA
BRANCH  17  20
HETATM   20  C   UNL     1      42.377 -15.783   3.388  1.00  0.00     0.040 A 
HETATM   21  C   UNL     1      43.155 -16.238   4.471  1.00  0.00    -0.035 A 
HETATM   22  C   UNL     1      43.697 -17.538   4.429  1.00  0.00     0.015 A 
HETATM   23  C   UNL     1      43.413 -15.401   5.695  1.00  0.00     0.050 C 
HETATM   24  C   UNL     1      43.493 -18.379   3.330  1.00  0.00    -0.061 A 
HETATM   25  C   UNL     1      44.050 -19.772   3.298  1.00  0.00     0.048 C 
HETATM   26  C   UNL     1      42.733 -17.913   2.259  1.00  0.00     0.009 A 
HETATM   27  C   UNL     1      42.186 -16.629   2.288  1.00  0.00     0.030 A 
ENDBRANCH  17  20
ENDBRANCH  15  16
ENDBRANCH   1  15
TORSDOF 3
ENDMDL
MODEL 7
REMARK VINA RESULT:      -7.7      1.950      7.129
REMARK  3 active torsions:
REMARK  status: ('A' for Active; 'I' for Inactive)
REMARK    1  A    between atoms: C_6  and  N_7 
REMARK       I    between atoms: N_7  and  C_8 
REMARK    2  A    between atoms: C_8  and  C_9 
REMARK    3  A    between atoms: C_9  and  C_10 
ROOT
HETATM    1  C   UNL     1      40.206 -13.264   4.240  1.00  0.00     0.286 C 
HETATM    2  N   UNL     1      41.447 -13.256   3.345  1.00  0.00    -0.056 N 
HETATM    3  H   UNL     1      41.223 -12.627   2.544  1.00  0.00     0.278 HD
HETATM    4  H   UNL     1      42.247 -12.835   3.834  1.00  0.00     0.278 HD
HETATM    5  C   UNL     1      41.755 -14.633   2.854  1.00  0.00     0.209 C 
HETATM    6  C   UNL     1      42.042 -15.530   4.079  1.00  0.00     0.115 C 
HETATM    7  N   UNL     1      40.985 -15.459   5.090  1.00  0.00    -0.353 N 
HETATM    8  C   UNL     1      40.346 -14.271   5.398  1.00  0.00     0.249 C 
HETATM    9  O   UNL     1      39.853 -14.094   6.504  1.00  0.00    -0.271 OA
HETATM   10  C   UNL     1      42.946 -14.601   1.906  1.00  0.00     0.035 C 
HETATM   11  C   UNL     1      43.262 -16.019   1.430  1.00  0.00     0.002 C 
HETATM   12  C   UNL     1      43.457 -16.995   2.594  1.00  0.00     0.002 C 
HETATM   13  C   UNL     1      42.305 -16.959   3.604  1.00  0.00     0.027 C 
HETATM   14  H   UNL     1      41.062 -16.077   5.895  1.00  0.00     0.163 HD
ENDROOT
BRANCH   1  15
HETATM   15  C   UNL     1      39.874 -11.842   4.710  1.00  0.00     0.146 C 
BRANCH  15  16
HETATM   16  C   UNL     1      41.163 -11.154   5.100  1.00  0.00     0.224 C 
HETATM   17  N   UNL     1      41.615 -11.454   6.364  1.00  0.00    -0.327 N 
HETATM   18  H   UNL     1      41.175 -12.220   6.860  1.00  0.00     0.169 HD
HETATM   19  O   UNL     1      41.738 -10.461   4.260  1.00  0.00    -0.273 OA
BRANCH  17  20
HETATM   20  C   UNL     1      42.740 -10.866   6.999  1.00  0.00     0.040 A 
HETATM   21  C   UNL     1      43.933 -11.606   7.118  1.00  0.00    -0.035 A 
HETATM   22  C   UNL     1      45.046 -11.019   7.753  1.00  0.00     0.015 A 
HETATM   23  C   UNL     1      44.083 -12.999   6.568  1.00  0.00     0.050 C 
HETATM   24  C   UNL     1      44.986  -9.726   8.281  1.00  0.00    -0.061 A 
HETATM   25  C   UNL     1      46.180  -9.092   8.933  1.00  0.00     0.048 C 
HETATM   26  C   UNL     1      43.797  -9.008   8.169  1.00  0.00     0.009 A 
HETATM   27  C   UNL     1      42.688  -9.575   7.539  1.00  0.00     0.030 A 
ENDBRANCH  17  20
ENDBRANCH  15  16
ENDBRANCH   1  15
TORSDOF 3
ENDMDL
MODEL 8
REMARK VINA RESULT:      -7.7      2.890      8.442
REMARK  3 active torsions:
REMARK  status: ('A' for Active; 'I' for Inactive)
REMARK    1  A    between atoms: C_6  and  N_7 
REMARK       I    between atoms: N_7  and  C_8 
REMARK    2  A    between atoms: C_8  and  C_9 
REMARK    3  A    between atoms: C_9  and  C_10 
ROOT
HETATM    1  C   UNL     1      44.569 -12.144   6.086  1.00  0.00     0.286 C 
HETATM    2  N   UNL     1      43.893 -13.024   7.139  1.00  0.00    -0.056 N 
HETATM    3  H   UNL     1      44.601 -13.171   7.891  1.00  0.00     0.278 HD
HETATM    4  H   UNL     1      43.102 -12.533   7.572  1.00  0.00     0.278 HD
HETATM    5  C   UNL     1      43.481 -14.333   6.550  1.00  0.00     0.209 C 
HETATM    6  C   UNL     1      42.465 -14.056   5.420  1.00  0.00     0.115 C 
HETATM    7  N   UNL     1      42.952 -13.072   4.452  1.00  0.00    -0.353 N 
HETATM    8  C   UNL     1      43.679 -11.961   4.841  1.00  0.00     0.249 C 
HETATM    9  O   UNL     1      43.668 -10.938   4.169  1.00  0.00    -0.271 OA
HETATM   10  C   UNL     1      42.878 -15.229   7.623  1.00  0.00     0.035 C 
HETATM   11  C   UNL     1      42.441 -16.556   7.001  1.00  0.00     0.002 C 
HETATM   12  C   UNL     1      41.509 -16.358   5.801  1.00  0.00     0.002 C 
HETATM   13  C   UNL     1      42.070 -15.380   4.763  1.00  0.00     0.027 C 
HETATM   14  H   UNL     1      42.372 -12.888   3.635  1.00  0.00     0.163 HD
ENDROOT
BRANCH   1  15
HETATM   15  C   UNL     1      45.023 -10.817   6.707  1.00  0.00     0.146 C 
BRANCH  15  16
HETATM   16  C   UNL     1      44.066 -10.459   7.823  1.00  0.00     0.224 C 
HETATM   17  N   UNL     1      44.670 -10.083   8.999  1.00  0.00    -0.327 N 
HETATM   18  H   UNL     1      45.667  -9.902   8.989  1.00  0.00     0.169 HD
HETATM   19  O   UNL     1      42.858 -10.453   7.583  1.00  0.00    -0.273 OA
BRANCH  17  20
HETATM   20  C   UNL     1      43.999  -9.796  10.217  1.00  0.00     0.040 A 
HETATM   21  C   UNL     1      43.590  -8.476  10.488  1.00  0.00    -0.035 A 
HETATM   22  C   UNL     1      42.928  -8.197  11.700  1.00  0.00     0.015 A 
HETATM   23  C   UNL     1      43.807  -7.344   9.521  1.00  0.00     0.050 C 
HETATM   24  C   UNL     1      42.682  -9.198  12.645  1.00  0.00    -0.061 A 
HETATM   25  C   UNL     1      41.953  -8.904  13.923  1.00  0.00     0.048 C 
HETATM   26  C   UNL     1      43.102 -10.498  12.371  1.00  0.00     0.009 A 
HETATM   27  C   UNL     1      43.756 -10.791  11.173  1.00  0.00     0.030 A 
ENDBRANCH  17  20
ENDBRANCH  15  16
ENDBRANCH   1  15
TORSDOF 3
ENDMDL
MODEL 9
REMARK VINA RESULT:      -7.6      1.558      7.280
REMARK  3 active torsions:
REMARK  status: ('A' for Active; 'I' for Inactive)
REMARK    1  A    between atoms: C_6  and  N_7 
REMARK       I    between atoms: N_7  and  C_8 
REMARK    2  A    between atoms: C_8  and  C_9 
REMARK    3  A    between atoms: C_9  and  C_10 
ROOT
HETATM    1  C   UNL     1      41.172 -14.247   3.575  1.00  0.00     0.286 C 
HETATM    2  N   UNL     1      41.619 -15.255   4.636  1.00  0.00    -0.056 N 
HETATM    3  H   UNL     1      41.985 -14.692   5.434  1.00  0.00     0.278 HD
HETATM    4  H   UNL     1      40.817 -15.787   4.995  1.00  0.00     0.278 HD
HETATM    5  C   UNL     1      42.687 -16.151   4.098  1.00  0.00     0.209 C 
HETATM    6  C   UNL     1      42.105 -16.931   2.899  1.00  0.00     0.115 C 
HETATM    7  N   UNL     1      41.479 -16.055   1.906  1.00  0.00    -0.353 N 
HETATM    8  C   UNL     1      40.735 -14.948   2.273  1.00  0.00     0.249 C 
HETATM    9  O   UNL     1      39.849 -14.519   1.546  1.00  0.00    -0.271 OA
HETATM   10  C   UNL     1      43.177 -17.098   5.184  1.00  0.00     0.035 C 
HETATM   11  C   UNL     1      44.253 -18.022   4.613  1.00  0.00     0.002 C 
HETATM   12  C   UNL     1      43.784 -18.757   3.354  1.00  0.00     0.002 C 
HETATM   13  C   UNL     1      43.199 -17.814   2.296  1.00  0.00     0.027 C 
HETATM   14  H   UNL     1      41.137 -16.485   1.049  1.00  0.00     0.163 HD
ENDROOT
BRANCH   1  15
HETATM   15  C   UNL     1      40.102 -13.307   4.145  1.00  0.00     0.146 C 
BRANCH  15  16
HETATM   16  C   UNL     1      40.611 -12.741   5.452  1.00  0.00     0.224 C 
HETATM   17  N   UNL     1      41.650 -11.848   5.326  1.00  0.00    -0.327 N 
HETATM   18  H   UNL     1      41.876 -11.505   4.400  1.00  0.00     0.169 HD
HETATM   19  O   UNL     1      40.028 -13.047   6.493  1.00  0.00    -0.273 OA
BRANCH  17  20
HETATM   20  C   UNL     1      42.364 -11.256   6.400  1.00  0.00     0.040 A 
HETATM   21  C   UNL     1      43.493 -11.914   6.927  1.00  0.00    -0.035 A 
HETATM   22  C   UNL     1      44.197 -11.323   7.996  1.00  0.00     0.015 A 
HETATM   23  C   UNL     1      44.003 -13.219   6.377  1.00  0.00     0.050 C 
HETATM   24  C   UNL     1      43.789 -10.108   8.554  1.00  0.00    -0.061 A 
HETATM   25  C   UNL     1      44.555  -9.468   9.675  1.00  0.00     0.048 C 
HETATM   26  C   UNL     1      42.664  -9.473   8.034  1.00  0.00     0.009 A 
HETATM   27  C   UNL     1      41.959 -10.043   6.972  1.00  0.00     0.030 A 
ENDBRANCH  17  20
ENDBRANCH  15  16
ENDBRANCH   1  15
TORSDOF 3
ENDMDL
MODEL 10
REMARK VINA RESULT:      -7.6      3.743      5.892
REMARK  3 active torsions:
REMARK  status: ('A' for Active; 'I' for Inactive)
REMARK    1  A    between atoms: C_6  and  N_7 
REMARK       I    between atoms: N_7  and  C_8 
REMARK    2  A    between atoms: C_8  and  C_9 
REMARK    3  A    between atoms: C_9  and  C_10 
ROOT
HETATM    1  C   UNL     1      39.948 -13.500   2.577  1.00  0.00     0.286 C 
HETATM    2  N   UNL     1      39.456 -12.054   2.653  1.00  0.00    -0.056 N 
HETATM    3  H   UNL     1      39.136 -11.908   3.634  1.00  0.00     0.278 HD
HETATM    4  H   UNL     1      40.229 -11.396   2.494  1.00  0.00     0.278 HD
HETATM    5  C   UNL     1      38.328 -11.828   1.699  1.00  0.00     0.209 C 
HETATM    6  C   UNL     1      38.844 -12.094   0.268  1.00  0.00     0.115 C 
HETATM    7  N   UNL     1      39.507 -13.393   0.140  1.00  0.00    -0.353 N 
HETATM    8  C   UNL     1      40.322 -13.900   1.136  1.00  0.00     0.249 C 
HETATM    9  O   UNL     1      41.223 -14.686   0.871  1.00  0.00    -0.271 OA
HETATM   10  C   UNL     1      37.797 -10.408   1.837  1.00  0.00     0.035 C 
HETATM   11  C   UNL     1      36.658 -10.186   0.840  1.00  0.00     0.002 C 
HETATM   12  C   UNL     1      37.064 -10.531  -0.596  1.00  0.00     0.002 C 
HETATM   13  C   UNL     1      37.690 -11.924  -0.722  1.00  0.00     0.027 C 
HETATM   14  H   UNL     1      39.811 -13.677  -0.790  1.00  0.00     0.163 HD
ENDROOT
BRANCH   1  15
HETATM   15  C   UNL     1      41.081 -13.735   3.584  1.00  0.00     0.146 C 
BRANCH  15  16
HETATM   16  C   UNL     1      41.289 -15.226   3.731  1.00  0.00     0.224 C 
HETATM   17  N   UNL     1      42.546 -15.668   3.391  1.00  0.00    -0.327 N 
HETATM   18  H   UNL     1      43.272 -14.977   3.245  1.00  0.00     0.169 HD
HETATM   19  O   UNL     1      40.376 -15.904   4.205  1.00  0.00    -0.273 OA
BRANCH  17  20
HETATM   20  C   UNL     1      42.960 -17.025   3.347  1.00  0.00     0.040 A 
HETATM   21  C   UNL     1      43.755 -17.540   4.390  1.00  0.00    -0.035 A 
HETATM   22  C   UNL     1      44.167 -18.887   4.340  1.00  0.00     0.015 A 
HETATM   23  C   UNL     1      44.165 -16.717   5.581  1.00  0.00     0.050 C 
HETATM   24  C   UNL     1      43.817 -19.717   3.271  1.00  0.00    -0.061 A 
HETATM   25  C   UNL     1      44.234 -21.158   3.232  1.00  0.00     0.048 C 
HETATM   26  C   UNL     1      43.042 -19.194   2.238  1.00  0.00     0.009 A 
HETATM   27  C   UNL     1      42.623 -17.862   2.276  1.00  0.00     0.030 A 
ENDBRANCH  17  20
ENDBRANCH  15  16
ENDBRANCH   1  15
TORSDOF 3
ENDMDL
