MODEL 1
REMARK VINA RESULT:      -8.8      0.000      0.000
REMARK  6 active torsions:
REMARK  status: ('A' for Active; 'I' for Inactive)
REMARK    1  A    between atoms: O_2  and  C_3 
REMARK    2  A    between atoms: C_6  and  C_7 
REMARK    3  A    between atoms: C_9  and  N_10 
REMARK    4  A    between atoms: N_10  and  N_11 
REMARK       I    between atoms: N_10  and  C_21 
REMARK       I    between atoms: N_11  and  C_12 
REMARK       I    between atoms: C_12  and  N_13 
REMARK    5  A    between atoms: N_13  and  C_14 
REMARK       I    between atoms: C_21  and  N_22 
REMARK    6  A    between atoms: N_22  and  C_23 
ROOT
HETATM    1  N   UNL     1      43.084 -13.194   5.937  1.00  0.00    -0.176 N 
HETATM    2  C   UNL     1      43.643 -14.485   6.151  1.00  0.00     0.348 C 
HETATM    3  N   UNL     1      42.923 -15.484   5.502  1.00  0.00    -0.307 N 
HETATM    4  O   UNL     1      44.623 -14.723   6.851  1.00  0.00    -0.245 OA
HETATM    5  H   UNL     1      41.954 -15.230   5.323  1.00  0.00     0.170 HD
ENDROOT
BRANCH   1   6
HETATM    6  C   UNL     1      43.636 -12.104   6.614  1.00  0.00     0.197 A 
HETATM    7  N   UNL     1      43.164 -11.470   7.662  1.00  0.00    -0.222 NA
HETATM    8  C   UNL     1      44.072 -10.526   8.122  1.00  0.00     0.076 A 
HETATM    9  C   UNL     1      45.189 -10.378   7.323  1.00  0.00     0.086 A 
HETATM   10  S   UNL     1      45.152 -11.518   6.043  1.00  0.00    -0.060 SA
BRANCH   8  11
HETATM   11  C   UNL     1      43.851  -9.833   9.392  1.00  0.00    -0.007 A 
HETATM   12  C   UNL     1      43.890 -10.490  10.628  1.00  0.00     0.016 A 
HETATM   13  C   UNL     1      43.579  -9.803  11.808  1.00  0.00     0.037 A 
HETATM   14  C   UNL     1      43.223  -8.454  11.780  1.00  0.00     0.068 A 
HETATM   15  C   UNL     1      43.211  -7.783  10.559  1.00  0.00     0.037 A 
HETATM   16  C   UNL     1      43.524  -8.468   9.378  1.00  0.00     0.016 A 
BRANCH  14  17
HETATM   17  O   UNL     1      42.915  -7.916  12.998  1.00  0.00    -0.356 OA
HETATM   18  C   UNL     1      42.189  -8.747  13.897  1.00  0.00     0.210 C 
ENDBRANCH  14  17
ENDBRANCH   8  11
ENDBRANCH   1   6
BRANCH   1  19
HETATM   19  N   UNL     1      42.504 -12.888   4.662  1.00  0.00    -0.239 N 
HETATM   20  C   UNL     1      41.173 -13.070   4.396  1.00  0.00     0.335 C 
HETATM   21  N   UNL     1      40.860 -12.717   3.108  1.00  0.00    -0.337 N 
HETATM   22  O   UNL     1      40.378 -13.556   5.191  1.00  0.00    -0.246 OA
HETATM   23  H   UNL     1      41.589 -12.327   2.531  1.00  0.00     0.164 HD
HETATM   24  H   UNL     1      43.164 -12.941   3.897  1.00  0.00     0.192 HD
BRANCH  21  25
HETATM   25  C   UNL     1      39.619 -13.132   2.464  1.00  0.00     0.086 C 
HETATM   26  C   UNL     1      39.374 -12.326   1.182  1.00  0.00     0.025 C 
HETATM   27  C   UNL     1      40.341 -12.690   0.055  1.00  0.00     0.002 C 
HETATM   28  C   UNL     1      40.367 -14.193  -0.212  1.00  0.00     0.000 C 
HETATM   29  C   UNL     1      40.641 -14.992   1.058  1.00  0.00     0.002 C 
HETATM   30  C   UNL     1      39.651 -14.639   2.170  1.00  0.00     0.025 C 
ENDBRANCH  21  25
ENDBRANCH   1  19
BRANCH   3  31
HETATM   31  C   UNL     1      43.224 -16.851   5.383  1.00  0.00     0.036 A 
HETATM   32  C   UNL     1      43.157 -17.762   6.440  1.00  0.00     0.031 A 
HETATM   33  C   UNL     1      43.484 -19.107   6.234  1.00  0.00     0.026 A 
HETATM   34  C   UNL     1      43.889 -19.542   4.975  1.00  0.00     0.034 A 
HETATM   35 CL   UNL     1      44.296 -21.195   4.726  1.00  0.00    -0.084 Cl
HETATM   36  C   UNL     1      43.972 -18.643   3.916  1.00  0.00     0.026 A 
HETATM   37  C   UNL     1      43.639 -17.301   4.121  1.00  0.00     0.031 A 
ENDBRANCH   3  31
TORSDOF 6
ENDMDL
MODEL 2
REMARK VINA RESULT:      -8.5      1.872      2.268
REMARK  6 active torsions:
REMARK  status: ('A' for Active; 'I' for Inactive)
REMARK    1  A    between atoms: O_2  and  C_3 
REMARK    2  A    between atoms: C_6  and  C_7 
REMARK    3  A    between atoms: C_9  and  N_10 
REMARK    4  A    between atoms: N_10  and  N_11 
REMARK       I    between atoms: N_10  and  C_21 
REMARK       I    between atoms: N_11  and  C_12 
REMARK       I    between atoms: C_12  and  N_13 
REMARK    5  A    between atoms: N_13  and  C_14 
REMARK       I    between atoms: C_21  and  N_22 
REMARK    6  A    between atoms: N_22  and  C_23 
ROOT
HETATM    1  N   UNL     1      43.268 -11.913   5.766  1.00  0.00    -0.176 N 
HETATM    2  C   UNL     1      43.556 -13.298   5.615  1.00  0.00     0.348 C 
HETATM    3  N   UNL     1      42.822 -13.877   4.583  1.00  0.00    -0.307 N 
HETATM    4  O   UNL     1      44.328 -13.940   6.321  1.00  0.00    -0.245 OA
HETATM    5  H   UNL     1      41.961 -13.378   4.371  1.00  0.00     0.170 HD
ENDROOT
BRANCH   1   6
HETATM    6  C   UNL     1      43.849 -11.220   6.831  1.00  0.00     0.197 A 
HETATM    7  N   UNL     1      43.267 -10.733   7.902  1.00  0.00    -0.222 NA
HETATM    8  C   UNL     1      44.206 -10.231   8.793  1.00  0.00     0.076 A 
HETATM    9  C   UNL     1      45.501 -10.241   8.315  1.00  0.00     0.086 A 
HETATM   10  S   UNL     1      45.556 -10.993   6.776  1.00  0.00    -0.060 SA
BRANCH   8  11
HETATM   11  C   UNL     1      43.810  -9.815  10.139  1.00  0.00    -0.007 A 
HETATM   12  C   UNL     1      43.530 -10.729  11.162  1.00  0.00     0.016 A 
HETATM   13  C   UNL     1      43.065 -10.284  12.406  1.00  0.00     0.037 A 
HETATM   14  C   UNL     1      42.869  -8.925  12.653  1.00  0.00     0.068 A 
HETATM   15  C   UNL     1      43.174  -8.005  11.654  1.00  0.00     0.037 A 
HETATM   16  C   UNL     1      43.642  -8.448  10.410  1.00  0.00     0.016 A 
BRANCH  14  17
HETATM   17  O   UNL     1      42.383  -8.633  13.897  1.00  0.00    -0.356 OA
HETATM   18  C   UNL     1      42.747  -7.372  14.445  1.00  0.00     0.210 C 
ENDBRANCH  14  17
ENDBRANCH   8  11
ENDBRANCH   1   6
BRANCH   1  19
HETATM   19  N   UNL     1      43.006 -11.123   4.598  1.00  0.00    -0.239 N 
HETATM   20  C   UNL     1      41.738 -10.769   4.218  1.00  0.00     0.335 C 
HETATM   21  N   UNL     1      41.743 -10.025   3.066  1.00  0.00    -0.337 N 
HETATM   22  O   UNL     1      40.724 -11.134   4.800  1.00  0.00    -0.246 OA
HETATM   23  H   UNL     1      42.634  -9.778   2.662  1.00  0.00     0.164 HD
HETATM   24  H   UNL     1      43.720 -11.208   3.887  1.00  0.00     0.192 HD
BRANCH  21  25
HETATM   25  C   UNL     1      40.543  -9.820   2.263  1.00  0.00     0.086 C 
HETATM   26  C   UNL     1      40.780  -8.747   1.193  1.00  0.00     0.025 C 
HETATM   27  C   UNL     1      41.715  -9.214   0.076  1.00  0.00     0.002 C 
HETATM   28  C   UNL     1      41.260 -10.538  -0.533  1.00  0.00     0.000 C 
HETATM   29  C   UNL     1      41.054 -11.613   0.531  1.00  0.00     0.002 C 
HETATM   30  C   UNL     1      40.097 -11.145   1.627  1.00  0.00     0.025 C 
ENDBRANCH  21  25
ENDBRANCH   1  19
BRANCH   3  31
HETATM   31  C   UNL     1      42.912 -15.179   4.062  1.00  0.00     0.036 A 
HETATM   32  C   UNL     1      42.908 -16.337   4.843  1.00  0.00     0.031 A 
HETATM   33  C   UNL     1      43.011 -17.596   4.239  1.00  0.00     0.026 A 
HETATM   34  C   UNL     1      43.130 -17.698   2.855  1.00  0.00     0.034 A 
HETATM   35 CL   UNL     1      43.262 -19.246   2.116  1.00  0.00    -0.084 Cl
HETATM   36  C   UNL     1      43.147 -16.552   2.067  1.00  0.00     0.026 A 
HETATM   37  C   UNL     1      43.038 -15.296   2.670  1.00  0.00     0.031 A 
ENDBRANCH   3  31
TORSDOF 6
ENDMDL
MODEL 3
REMARK VINA RESULT:      -8.4      4.498      9.161
REMARK  6 active torsions:
REMARK  status: ('A' for Active; 'I' for Inactive)
REMARK    1  A    between atoms: O_2  and  C_3 
REMARK    2  A    between atoms: C_6  and  C_7 
REMARK    3  A    between atoms: C_9  and  N_10 
REMARK    4  A    between atoms: N_10  and  N_11 
REMARK       I    between atoms: N_10  and  C_21 
REMARK       I    between atoms: N_11  and  C_12 
REMARK       I    between atoms: C_12  and  N_13 
REMARK    5  A    between atoms: N_13  and  C_14 
REMARK       I    between atoms: C_21  and  N_22 
REMARK    6  A    between atoms: N_22  and  C_23 
ROOT
HETATM    1  N   UNL     1      41.722 -11.610   3.124  1.00  0.00    -0.176 N 
HETATM    2  C   UNL     1      42.323 -10.801   4.128  1.00  0.00     0.348 C 
HETATM    3  N   UNL     1      42.706 -11.543   5.242  1.00  0.00    -0.307 N 
HETATM    4  O   UNL     1      42.465  -9.583   4.063  1.00  0.00    -0.245 OA
HETATM    5  H   UNL     1      42.181 -12.408   5.349  1.00  0.00     0.170 HD
ENDROOT
BRANCH   1   6
HETATM    6  C   UNL     1      41.189 -10.988   1.992  1.00  0.00     0.197 A 
HETATM    7  N   UNL     1      41.804 -10.245   1.104  1.00  0.00    -0.222 NA
HETATM    8  C   UNL     1      40.956  -9.921   0.053  1.00  0.00     0.076 A 
HETATM    9  C   UNL     1      39.651 -10.336   0.231  1.00  0.00     0.086 A 
HETATM   10  S   UNL     1      39.513 -11.242   1.680  1.00  0.00    -0.060 SA
BRANCH   8  11
HETATM   11  C   UNL     1      41.473  -9.265  -1.150  1.00  0.00    -0.007 A 
HETATM   12  C   UNL     1      42.543  -8.363  -1.118  1.00  0.00     0.016 A 
HETATM   13  C   UNL     1      42.940  -7.691  -2.281  1.00  0.00     0.037 A 
HETATM   14  C   UNL     1      42.280  -7.902  -3.492  1.00  0.00     0.068 A 
HETATM   15  C   UNL     1      41.234  -8.821  -3.541  1.00  0.00     0.037 A 
HETATM   16  C   UNL     1      40.838  -9.496  -2.380  1.00  0.00     0.016 A 
BRANCH  14  17
HETATM   17  O   UNL     1      42.750  -7.159  -4.538  1.00  0.00    -0.356 OA
HETATM   18  C   UNL     1      42.405  -5.779  -4.546  1.00  0.00     0.210 C 
ENDBRANCH  14  17
ENDBRANCH   8  11
ENDBRANCH   1   6
BRANCH   1  19
HETATM   19  N   UNL     1      42.216 -12.939   2.912  1.00  0.00    -0.239 N 
HETATM   20  C   UNL     1      41.458 -14.054   3.155  1.00  0.00     0.335 C 
HETATM   21  N   UNL     1      42.151 -15.207   2.887  1.00  0.00    -0.337 N 
HETATM   22  O   UNL     1      40.326 -14.021   3.622  1.00  0.00    -0.246 OA
HETATM   23  H   UNL     1      43.081 -15.126   2.506  1.00  0.00     0.164 HD
HETATM   24  H   UNL     1      43.222 -13.010   2.985  1.00  0.00     0.192 HD
BRANCH  21  25
HETATM   25  C   UNL     1      41.720 -16.510   3.381  1.00  0.00     0.086 C 
HETATM   26  C   UNL     1      42.243 -17.635   2.479  1.00  0.00     0.025 C 
HETATM   27  C   UNL     1      43.753 -17.842   2.598  1.00  0.00     0.002 C 
HETATM   28  C   UNL     1      44.193 -18.023   4.048  1.00  0.00     0.000 C 
HETATM   29  C   UNL     1      43.698 -16.887   4.939  1.00  0.00     0.002 C 
HETATM   30  C   UNL     1      42.184 -16.707   4.833  1.00  0.00     0.025 C 
ENDBRANCH  21  25
ENDBRANCH   1  19
BRANCH   3  31
HETATM   31  C   UNL     1      43.423 -11.125   6.375  1.00  0.00     0.036 A 
HETATM   32  C   UNL     1      44.770 -11.416   6.600  1.00  0.00     0.031 A 
HETATM   33  C   UNL     1      45.405 -10.966   7.764  1.00  0.00     0.026 A 
HETATM   34  C   UNL     1      44.690 -10.234   8.709  1.00  0.00     0.034 A 
HETATM   35 CL   UNL     1      45.472  -9.687  10.142  1.00  0.00    -0.084 Cl
HETATM   36  C   UNL     1      43.345  -9.947   8.503  1.00  0.00     0.026 A 
HETATM   37  C   UNL     1      42.714 -10.391   7.338  1.00  0.00     0.031 A 
ENDBRANCH   3  31
TORSDOF 6
ENDMDL
MODEL 4
REMARK VINA RESULT:      -8.3      1.992      2.764
REMARK  6 active torsions:
REMARK  status: ('A' for Active; 'I' for Inactive)
REMARK    1  A    between atoms: O_2  and  C_3 
REMARK    2  A    between atoms: C_6  and  C_7 
REMARK    3  A    between atoms: C_9  and  N_10 
REMARK    4  A    between atoms: N_10  and  N_11 
REMARK       I    between atoms: N_10  and  C_21 
REMARK       I    between atoms: N_11  and  C_12 
REMARK       I    between atoms: C_12  and  N_13 
REMARK    5  A    between atoms: N_13  and  C_14 
REMARK       I    between atoms: C_21  and  N_22 
REMARK    6  A    between atoms: N_22  and  C_23 
ROOT
HETATM    1  N   UNL     1      41.786 -13.193   3.725  1.00  0.00    -0.176 N 
HETATM    2  C   UNL     1      42.454 -14.374   4.154  1.00  0.00     0.348 C 
HETATM    3  N   UNL     1      42.136 -15.474   3.362  1.00  0.00    -0.307 N 
HETATM    4  O   UNL     1      43.198 -14.451   5.127  1.00  0.00    -0.245 OA
HETATM    5  H   UNL     1      41.240 -15.384   2.888  1.00  0.00     0.170 HD
ENDROOT
BRANCH   1   6
HETATM    6  C   UNL     1      41.922 -12.032   4.490  1.00  0.00     0.197 A 
HETATM    7  N   UNL     1      42.155 -11.924   5.776  1.00  0.00    -0.222 NA
HETATM    8  C   UNL     1      42.357 -10.598   6.136  1.00  0.00     0.076 A 
HETATM    9  C   UNL     1      42.150  -9.696   5.111  1.00  0.00     0.086 A 
HETATM   10  S   UNL     1      41.810 -10.530   3.652  1.00  0.00    -0.060 SA
BRANCH   8  11
HETATM   11  C   UNL     1      42.825 -10.251   7.479  1.00  0.00    -0.007 A 
HETATM   12  C   UNL     1      42.141  -9.356   8.310  1.00  0.00     0.016 A 
HETATM   13  C   UNL     1      42.678  -8.984   9.549  1.00  0.00     0.037 A 
HETATM   14  C   UNL     1      43.903  -9.494   9.982  1.00  0.00     0.068 A 
HETATM   15  C   UNL     1      44.576 -10.410   9.177  1.00  0.00     0.037 A 
HETATM   16  C   UNL     1      44.039 -10.785   7.938  1.00  0.00     0.016 A 
BRANCH  14  17
HETATM   17  O   UNL     1      44.323  -9.025  11.194  1.00  0.00    -0.356 OA
HETATM   18  C   UNL     1      43.313  -8.578  12.091  1.00  0.00     0.210 C 
ENDBRANCH  14  17
ENDBRANCH   8  11
ENDBRANCH   1   6
BRANCH   1  19
HETATM   19  N   UNL     1      41.580 -12.978   2.323  1.00  0.00    -0.239 N 
HETATM   20  C   UNL     1      40.402 -13.286   1.695  1.00  0.00     0.335 C 
HETATM   21  N   UNL     1      40.451 -13.001   0.355  1.00  0.00    -0.337 N 
HETATM   22  O   UNL     1      39.450 -13.817   2.254  1.00  0.00    -0.246 OA
HETATM   23  H   UNL     1      41.285 -12.565  -0.009  1.00  0.00     0.164 HD
HETATM   24  H   UNL     1      42.436 -12.995   1.784  1.00  0.00     0.192 HD
BRANCH  21  25
HETATM   25  C   UNL     1      39.487 -13.544  -0.596  1.00  0.00     0.086 C 
HETATM   26  C   UNL     1      38.373 -12.529  -0.881  1.00  0.00     0.025 C 
HETATM   27  C   UNL     1      38.850 -11.335  -1.709  1.00  0.00     0.002 C 
HETATM   28  C   UNL     1      39.564 -11.774  -2.985  1.00  0.00     0.000 C 
HETATM   29  C   UNL     1      40.693 -12.760  -2.696  1.00  0.00     0.002 C 
HETATM   30  C   UNL     1      40.198 -13.962  -1.891  1.00  0.00     0.025 C 
ENDBRANCH  21  25
ENDBRANCH   1  19
BRANCH   3  31
HETATM   31  C   UNL     1      42.674 -16.771   3.399  1.00  0.00     0.036 A 
HETATM   32  C   UNL     1      43.437 -17.272   4.457  1.00  0.00     0.031 A 
HETATM   33  C   UNL     1      43.943 -18.576   4.407  1.00  0.00     0.026 A 
HETATM   34  C   UNL     1      43.697 -19.377   3.294  1.00  0.00     0.034 A 
HETATM   35 CL   UNL     1      44.325 -20.978   3.233  1.00  0.00    -0.084 Cl
HETATM   36  C   UNL     1      42.949 -18.887   2.228  1.00  0.00     0.026 A 
HETATM   37  C   UNL     1      42.439 -17.587   2.283  1.00  0.00     0.031 A 
ENDBRANCH   3  31
TORSDOF 6
ENDMDL
MODEL 5
REMARK VINA RESULT:      -8.2      2.641      8.258
REMARK  6 active torsions:
REMARK  status: ('A' for Active; 'I' for Inactive)
REMARK    1  A    between atoms: O_2  and  C_3 
REMARK    2  A    between atoms: C_6  and  C_7 
REMARK    3  A    between atoms: C_9  and  N_10 
REMARK    4  A    between atoms: N_10  and  N_11 
REMARK       I    between atoms: N_10  and  C_21 
REMARK       I    between atoms: N_11  and  C_12 
REMARK       I    between atoms: C_12  and  N_13 
REMARK    5  A    between atoms: N_13  and  C_14 
REMARK       I    between atoms: C_21  and  N_22 
REMARK    6  A    between atoms: N_22  and  C_23 
ROOT
HETATM    1  N   UNL     1      41.641 -12.528   5.316  1.00  0.00    -0.176 N 
HETATM    2  C   UNL     1      41.658 -13.923   5.036  1.00  0.00     0.348 C 
HETATM    3  N   UNL     1      42.774 -14.554   5.577  1.00  0.00    -0.307 N 
HETATM    4  O   UNL     1      40.819 -14.519   4.366  1.00  0.00    -0.245 OA
HETATM    5  H   UNL     1      43.559 -13.924   5.728  1.00  0.00     0.170 HD
ENDROOT
BRANCH   1   6
HETATM    6  C   UNL     1      40.636 -11.742   4.746  1.00  0.00     0.197 A 
HETATM    7  N   UNL     1      40.453 -11.443   3.482  1.00  0.00    -0.222 NA
HETATM    8  C   UNL     1      39.264 -10.748   3.302  1.00  0.00     0.076 A 
HETATM    9  C   UNL     1      38.616 -10.423   4.478  1.00  0.00     0.086 A 
HETATM   10  S   UNL     1      39.449 -11.097   5.816  1.00  0.00    -0.060 SA
BRANCH   8  11
HETATM   11  C   UNL     1      38.752 -10.479   1.958  1.00  0.00    -0.007 A 
HETATM   12  C   UNL     1      37.563 -11.040   1.476  1.00  0.00     0.016 A 
HETATM   13  C   UNL     1      37.163 -10.827   0.151  1.00  0.00     0.037 A 
HETATM   14  C   UNL     1      37.937 -10.055  -0.717  1.00  0.00     0.068 A 
HETATM   15  C   UNL     1      39.105  -9.466  -0.239  1.00  0.00     0.037 A 
HETATM   16  C   UNL     1      39.505  -9.676   1.087  1.00  0.00     0.016 A 
BRANCH  14  17
HETATM   17  O   UNL     1      37.445  -9.954  -1.988  1.00  0.00    -0.356 OA
HETATM   18  C   UNL     1      36.832 -11.118  -2.529  1.00  0.00     0.210 C 
ENDBRANCH  14  17
ENDBRANCH   8  11
ENDBRANCH   1   6
BRANCH   1  19
HETATM   19  N   UNL     1      42.131 -12.065   6.581  1.00  0.00    -0.239 N 
HETATM   20  C   UNL     1      43.098 -11.100   6.689  1.00  0.00     0.335 C 
HETATM   21  N   UNL     1      43.407 -10.835   7.998  1.00  0.00    -0.337 N 
HETATM   22  O   UNL     1      43.664 -10.592   5.729  1.00  0.00    -0.246 OA
HETATM   23  H   UNL     1      42.883 -11.309   8.717  1.00  0.00     0.164 HD
HETATM   24  H   UNL     1      42.044 -12.750   7.321  1.00  0.00     0.192 HD
BRANCH  21  25
HETATM   25  C   UNL     1      44.621 -10.126   8.386  1.00  0.00     0.086 C 
HETATM   26  C   UNL     1      44.364  -8.617   8.483  1.00  0.00     0.025 C 
HETATM   27  C   UNL     1      43.494  -8.235   9.681  1.00  0.00     0.002 C 
HETATM   28  C   UNL     1      44.038  -8.807  10.988  1.00  0.00     0.000 C 
HETATM   29  C   UNL     1      44.264 -10.314  10.899  1.00  0.00     0.002 C 
HETATM   30  C   UNL     1      45.158 -10.680   9.714  1.00  0.00     0.025 C 
ENDBRANCH  21  25
ENDBRANCH   1  19
BRANCH   3  31
HETATM   31  C   UNL     1      43.082 -15.924   5.609  1.00  0.00     0.036 A 
HETATM   32  C   UNL     1      42.954 -16.728   6.744  1.00  0.00     0.031 A 
HETATM   33  C   UNL     1      43.293 -18.085   6.689  1.00  0.00     0.026 A 
HETATM   34  C   UNL     1      43.771 -18.638   5.503  1.00  0.00     0.034 A 
HETATM   35 CL   UNL     1      44.191 -20.305   5.441  1.00  0.00    -0.084 Cl
HETATM   36  C   UNL     1      43.913 -17.845   4.369  1.00  0.00     0.026 A 
HETATM   37  C   UNL     1      43.569 -16.492   4.423  1.00  0.00     0.031 A 
ENDBRANCH   3  31
TORSDOF 6
ENDMDL
MODEL 6
REMARK VINA RESULT:      -8.1      3.088      8.071
REMARK  6 active torsions:
REMARK  status: ('A' for Active; 'I' for Inactive)
REMARK    1  A    between atoms: O_2  and  C_3 
REMARK    2  A    between atoms: C_6  and  C_7 
REMARK    3  A    between atoms: C_9  and  N_10 
REMARK    4  A    between atoms: N_10  and  N_11 
REMARK       I    between atoms: N_10  and  C_21 
REMARK       I    between atoms: N_11  and  C_12 
REMARK       I    between atoms: C_12  and  N_13 
REMARK    5  A    between atoms: N_13  and  C_14 
REMARK       I    between atoms: C_21  and  N_22 
REMARK    6  A    between atoms: N_22  and  C_23 
ROOT
HETATM    1  N   UNL     1      42.288 -12.252   5.316  1.00  0.00    -0.176 N 
HETATM    2  C   UNL     1      42.259 -13.634   4.977  1.00  0.00     0.348 C 
HETATM    3  N   UNL     1      43.114 -14.388   5.777  1.00  0.00    -0.307 N 
HETATM    4  O   UNL     1      41.597 -14.125   4.068  1.00  0.00    -0.245 OA
HETATM    5  H   UNL     1      43.875 -13.845   6.177  1.00  0.00     0.170 HD
ENDROOT
BRANCH   1   6
HETATM    6  C   UNL     1      41.562 -11.354   4.528  1.00  0.00     0.197 A 
HETATM    7  N   UNL     1      41.929 -10.765   3.415  1.00  0.00    -0.222 NA
HETATM    8  C   UNL     1      40.876 -10.048   2.862  1.00  0.00     0.076 A 
HETATM    9  C   UNL     1      39.741 -10.011   3.649  1.00  0.00     0.086 A 
HETATM   10  S   UNL     1      39.961 -10.982   5.044  1.00  0.00    -0.060 SA
BRANCH   8  11
HETATM   11  C   UNL     1      40.988  -9.469   1.523  1.00  0.00    -0.007 A 
HETATM   12  C   UNL     1      41.588 -10.146   0.454  1.00  0.00     0.016 A 
HETATM   13  C   UNL     1      41.756  -9.514  -0.784  1.00  0.00     0.037 A 
HETATM   14  C   UNL     1      41.332  -8.198  -0.981  1.00  0.00     0.068 A 
HETATM   15  C   UNL     1      40.706  -7.526   0.066  1.00  0.00     0.037 A 
HETATM   16  C   UNL     1      40.535  -8.159   1.304  1.00  0.00     0.016 A 
BRANCH  14  17
HETATM   17  O   UNL     1      41.585  -7.695  -2.226  1.00  0.00    -0.356 OA
HETATM   18  C   UNL     1      40.454  -7.337  -3.011  1.00  0.00     0.210 C 
ENDBRANCH  14  17
ENDBRANCH   8  11
ENDBRANCH   1   6
BRANCH   1  19
HETATM   19  N   UNL     1      42.435 -11.874   6.691  1.00  0.00    -0.239 N 
HETATM   20  C   UNL     1      43.471 -11.094   7.134  1.00  0.00     0.335 C 
HETATM   21  N   UNL     1      43.401 -10.878   8.486  1.00  0.00    -0.337 N 
HETATM   22  O   UNL     1      44.383 -10.701   6.417  1.00  0.00    -0.246 OA
HETATM   23  H   UNL     1      42.608 -11.247   8.987  1.00  0.00     0.164 HD
HETATM   24  H   UNL     1      42.009 -12.527   7.335  1.00  0.00     0.192 HD
BRANCH  21  25
HETATM   25  C   UNL     1      44.539 -10.391   9.259  1.00  0.00     0.086 C 
HETATM   26  C   UNL     1      44.694  -8.874   9.105  1.00  0.00     0.025 C 
HETATM   27  C   UNL     1      43.592  -8.086   9.814  1.00  0.00     0.002 C 
HETATM   28  C   UNL     1      43.445  -8.499  11.276  1.00  0.00     0.000 C 
HETATM   29  C   UNL     1      43.260 -10.006  11.426  1.00  0.00     0.002 C 
HETATM   30  C   UNL     1      44.382 -10.783  10.736  1.00  0.00     0.025 C 
ENDBRANCH  21  25
ENDBRANCH   1  19
BRANCH   3  31
HETATM   31  C   UNL     1      43.275 -15.783   5.821  1.00  0.00     0.036 A 
HETATM   32  C   UNL     1      43.041 -16.562   6.957  1.00  0.00     0.031 A 
HETATM   33  C   UNL     1      43.237 -17.947   6.915  1.00  0.00     0.026 A 
HETATM   34  C   UNL     1      43.678 -18.554   5.741  1.00  0.00     0.034 A 
HETATM   35 CL   UNL     1      43.923 -20.257   5.694  1.00  0.00    -0.084 Cl
HETATM   36  C   UNL     1      43.926 -17.788   4.606  1.00  0.00     0.026 A 
HETATM   37  C   UNL     1      43.724 -16.406   4.648  1.00  0.00     0.031 A 
ENDBRANCH   3  31
TORSDOF 6
ENDMDL
MODEL 7
REMARK VINA RESULT:      -8.1     17.806     20.924
REMARK  6 active torsions:
REMARK  status: ('A' for Active; 'I' for Inactive)
REMARK    1  A    between atoms: O_2  and  C_3 
REMARK    2  A    between atoms: C_6  and  C_7 
REMARK    3  A    between atoms: C_9  and  N_10 
REMARK    4  A    between atoms: N_10  and  N_11 
REMARK       I    between atoms: N_10  and  C_21 
REMARK       I    between atoms: N_11  and  C_12 
REMARK       I    between atoms: C_12  and  N_13 
REMARK    5  A    between atoms: N_13  and  C_14 
REMARK       I    between atoms: C_21  and  N_22 
REMARK    6  A    between atoms: N_22  and  C_23 
ROOT
HETATM    1  N   UNL     1      45.625 -29.823  -0.470  1.00  0.00    -0.176 N 
HETATM    2  C   UNL     1      46.916 -29.836   0.128  1.00  0.00     0.348 C 
HETATM    3  N   UNL     1      46.851 -29.934   1.515  1.00  0.00    -0.307 N 
HETATM    4  O   UNL     1      47.977 -29.735  -0.481  1.00  0.00    -0.245 OA
HETATM    5  H   UNL     1      45.972 -29.598   1.903  1.00  0.00     0.170 HD
ENDROOT
BRANCH   1   6
HETATM    6  C   UNL     1      45.527 -29.619  -1.849  1.00  0.00     0.197 A 
HETATM    7  N   UNL     1      45.649 -30.500  -2.814  1.00  0.00    -0.222 NA
HETATM    8  C   UNL     1      45.351 -29.932  -4.046  1.00  0.00     0.076 A 
HETATM    9  C   UNL     1      45.120 -28.570  -4.000  1.00  0.00     0.086 A 
HETATM   10  S   UNL     1      45.166 -28.020  -2.377  1.00  0.00    -0.060 SA
BRANCH   8  11
HETATM   11  C   UNL     1      45.228 -30.764  -5.243  1.00  0.00    -0.007 A 
HETATM   12  C   UNL     1      46.234 -31.645  -5.657  1.00  0.00     0.016 A 
HETATM   13  C   UNL     1      46.110 -32.351  -6.861  1.00  0.00     0.037 A 
HETATM   14  C   UNL     1      44.985 -32.193  -7.671  1.00  0.00     0.068 A 
HETATM   15  C   UNL     1      43.964 -31.343  -7.253  1.00  0.00     0.037 A 
HETATM   16  C   UNL     1      44.086 -30.638  -6.048  1.00  0.00     0.016 A 
BRANCH  14  17
HETATM   17  O   UNL     1      45.007 -32.917  -8.830  1.00  0.00    -0.356 OA
HETATM   18  C   UNL     1      43.944 -32.686  -9.747  1.00  0.00     0.210 C 
ENDBRANCH  14  17
ENDBRANCH   8  11
ENDBRANCH   1   6
BRANCH   1  19
HETATM   19  N   UNL     1      44.583 -30.625   0.102  1.00  0.00    -0.239 N 
HETATM   20  C   UNL     1      43.402 -30.092   0.545  1.00  0.00     0.335 C 
HETATM   21  N   UNL     1      42.571 -31.054   1.059  1.00  0.00    -0.337 N 
HETATM   22  O   UNL     1      43.152 -28.893   0.545  1.00  0.00    -0.246 OA
HETATM   23  H   UNL     1      42.871 -32.016   1.013  1.00  0.00     0.164 HD
HETATM   24  H   UNL     1      44.921 -31.478   0.528  1.00  0.00     0.192 HD
BRANCH  21  25
HETATM   25  C   UNL     1      41.426 -30.730   1.902  1.00  0.00     0.086 C 
HETATM   26  C   UNL     1      40.369 -31.838   1.835  1.00  0.00     0.025 C 
HETATM   27  C   UNL     1      40.804 -33.123   2.540  1.00  0.00     0.002 C 
HETATM   28  C   UNL     1      41.267 -32.861   3.971  1.00  0.00     0.000 C 
HETATM   29  C   UNL     1      42.342 -31.780   4.033  1.00  0.00     0.002 C 
HETATM   30  C   UNL     1      41.884 -30.491   3.349  1.00  0.00     0.025 C 
ENDBRANCH  21  25
ENDBRANCH   1  19
BRANCH   3  31
HETATM   31  C   UNL     1      47.900 -30.088   2.437  1.00  0.00     0.036 A 
HETATM   32  C   UNL     1      48.459 -29.038   3.169  1.00  0.00     0.031 A 
HETATM   33  C   UNL     1      49.510 -29.280   4.061  1.00  0.00     0.026 A 
HETATM   34  C   UNL     1      50.012 -30.571   4.214  1.00  0.00     0.034 A 
HETATM   35 CL   UNL     1      51.308 -30.865   5.306  1.00  0.00    -0.084 Cl
HETATM   36  C   UNL     1      49.472 -31.624   3.482  1.00  0.00     0.026 A 
HETATM   37  C   UNL     1      48.418 -31.381   2.597  1.00  0.00     0.031 A 
ENDBRANCH   3  31
TORSDOF 6
ENDMDL
MODEL 8
REMARK VINA RESULT:      -8.0      4.417      9.580
REMARK  6 active torsions:
REMARK  status: ('A' for Active; 'I' for Inactive)
REMARK    1  A    between atoms: O_2  and  C_3 
REMARK    2  A    between atoms: C_6  and  C_7 
REMARK    3  A    between atoms: C_9  and  N_10 
REMARK    4  A    between atoms: N_10  and  N_11 
REMARK       I    between atoms: N_10  and  C_21 
REMARK       I    between atoms: N_11  and  C_12 
REMARK       I    between atoms: C_12  and  N_13 
REMARK    5  A    between atoms: N_13  and  C_14 
REMARK       I    between atoms: C_21  and  N_22 
REMARK    6  A    between atoms: N_22  and  C_23 
ROOT
HETATM    1  N   UNL     1      43.197  -9.691   8.740  1.00  0.00    -0.176 N 
HETATM    2  C   UNL     1      43.196  -9.807  10.158  1.00  0.00     0.348 C 
HETATM    3  N   UNL     1      42.677  -8.674  10.777  1.00  0.00    -0.307 N 
HETATM    4  O   UNL     1      43.630 -10.767  10.788  1.00  0.00    -0.245 OA
HETATM    5  H   UNL     1      42.747  -7.835  10.206  1.00  0.00     0.170 HD
ENDROOT
BRANCH   1   6
HETATM    6  C   UNL     1      43.789 -10.707   7.985  1.00  0.00     0.197 A 
HETATM    7  N   UNL     1      43.253 -11.828   7.564  1.00  0.00    -0.222 NA
HETATM    8  C   UNL     1      44.126 -12.513   6.728  1.00  0.00     0.076 A 
HETATM    9  C   UNL     1      45.379 -11.940   6.627  1.00  0.00     0.086 A 
HETATM   10  S   UNL     1      45.425 -10.466   7.500  1.00  0.00    -0.060 SA
BRANCH   8  11
HETATM   11  C   UNL     1      43.677 -13.690   5.983  1.00  0.00    -0.007 A 
HETATM   12  C   UNL     1      43.884 -14.997   6.439  1.00  0.00     0.016 A 
HETATM   13  C   UNL     1      43.520 -16.093   5.645  1.00  0.00     0.037 A 
HETATM   14  C   UNL     1      42.948 -15.907   4.386  1.00  0.00     0.068 A 
HETATM   15  C   UNL     1      42.709 -14.611   3.936  1.00  0.00     0.037 A 
HETATM   16  C   UNL     1      43.070 -13.515   4.730  1.00  0.00     0.016 A 
BRANCH  14  17
HETATM   17  O   UNL     1      42.670 -17.060   3.707  1.00  0.00    -0.356 OA
HETATM   18  C   UNL     1      42.878 -17.038   2.300  1.00  0.00     0.210 C 
ENDBRANCH  14  17
ENDBRANCH   8  11
ENDBRANCH   1   6
BRANCH   1  19
HETATM   19  N   UNL     1      42.115  -9.006   8.096  1.00  0.00    -0.239 N 
HETATM   20  C   UNL     1      42.199  -7.693   7.712  1.00  0.00     0.335 C 
HETATM   21  N   UNL     1      41.037  -7.260   7.128  1.00  0.00    -0.337 N 
HETATM   22  O   UNL     1      43.170  -6.980   7.929  1.00  0.00    -0.246 OA
HETATM   23  H   UNL     1      40.293  -7.927   6.995  1.00  0.00     0.164 HD
HETATM   24  H   UNL     1      41.206  -9.389   8.320  1.00  0.00     0.192 HD
BRANCH  21  25
HETATM   25  C   UNL     1      40.731  -5.844   6.951  1.00  0.00     0.086 C 
HETATM   26  C   UNL     1      39.728  -5.642   5.809  1.00  0.00     0.025 C 
HETATM   27  C   UNL     1      38.321  -6.129   6.158  1.00  0.00     0.002 C 
HETATM   28  C   UNL     1      37.819  -5.535   7.471  1.00  0.00     0.000 C 
HETATM   29  C   UNL     1      38.805  -5.764   8.613  1.00  0.00     0.002 C 
HETATM   30  C   UNL     1      40.202  -5.248   8.264  1.00  0.00     0.025 C 
ENDBRANCH  21  25
ENDBRANCH   1  19
BRANCH   3  31
HETATM   31  C   UNL     1      42.410  -8.459  12.140  1.00  0.00     0.036 A 
HETATM   32  C   UNL     1      43.211  -7.685  12.982  1.00  0.00     0.031 A 
HETATM   33  C   UNL     1      42.875  -7.532  14.332  1.00  0.00     0.026 A 
HETATM   34  C   UNL     1      41.743  -8.163  14.845  1.00  0.00     0.034 A 
HETATM   35 CL   UNL     1      41.335  -7.977  16.506  1.00  0.00    -0.084 Cl
HETATM   36  C   UNL     1      40.943  -8.946  14.020  1.00  0.00     0.026 A 
HETATM   37  C   UNL     1      41.276  -9.093  12.671  1.00  0.00     0.031 A 
ENDBRANCH   3  31
TORSDOF 6
ENDMDL
MODEL 9
REMARK VINA RESULT:      -8.0      3.136      5.806
REMARK  6 active torsions:
REMARK  status: ('A' for Active; 'I' for Inactive)
REMARK    1  A    between atoms: O_2  and  C_3 
REMARK    2  A    between atoms: C_6  and  C_7 
REMARK    3  A    between atoms: C_9  and  N_10 
REMARK    4  A    between atoms: N_10  and  N_11 
REMARK       I    between atoms: N_10  and  C_21 
REMARK       I    between atoms: N_11  and  C_12 
REMARK       I    between atoms: C_12  and  N_13 
REMARK    5  A    between atoms: N_13  and  C_14 
REMARK       I    between atoms: C_21  and  N_22 
REMARK    6  A    between atoms: N_22  and  C_23 
ROOT
HETATM    1  N   UNL     1      43.512 -11.371   4.631  1.00  0.00    -0.176 N 
HETATM    2  C   UNL     1      42.478 -10.604   4.026  1.00  0.00     0.348 C 
HETATM    3  N   UNL     1      42.256 -10.973   2.702  1.00  0.00    -0.307 N 
HETATM    4  O   UNL     1      41.862  -9.693   4.572  1.00  0.00    -0.245 OA
HETATM    5  H   UNL     1      43.064 -11.411   2.265  1.00  0.00     0.170 HD
ENDROOT
BRANCH   1   6
HETATM    6  C   UNL     1      43.921 -11.041   5.926  1.00  0.00     0.197 A 
HETATM    7  N   UNL     1      43.200 -10.565   6.913  1.00  0.00    -0.222 NA
HETATM    8  C   UNL     1      43.944 -10.494   8.084  1.00  0.00     0.076 A 
HETATM    9  C   UNL     1      45.278 -10.814   7.926  1.00  0.00     0.086 A 
HETATM   10  S   UNL     1      45.577 -11.318   6.315  1.00  0.00    -0.060 SA
BRANCH   8  11
HETATM   11  C   UNL     1      43.300 -10.180   9.360  1.00  0.00    -0.007 A 
HETATM   12  C   UNL     1      42.176  -9.352   9.455  1.00  0.00     0.016 A 
HETATM   13  C   UNL     1      41.653  -9.005  10.708  1.00  0.00     0.037 A 
HETATM   14  C   UNL     1      42.239  -9.473  11.884  1.00  0.00     0.068 A 
HETATM   15  C   UNL     1      43.339 -10.323  11.800  1.00  0.00     0.037 A 
HETATM   16  C   UNL     1      43.862 -10.673  10.548  1.00  0.00     0.016 A 
BRANCH  14  17
HETATM   17  O   UNL     1      41.647  -9.033  13.035  1.00  0.00    -0.356 OA
HETATM   18  C   UNL     1      40.225  -8.986  13.043  1.00  0.00     0.210 C 
ENDBRANCH  14  17
ENDBRANCH   8  11
ENDBRANCH   1   6
BRANCH   1  19
HETATM   19  N   UNL     1      43.648 -12.755   4.285  1.00  0.00    -0.239 N 
HETATM   20  C   UNL     1      42.596 -13.632   4.328  1.00  0.00     0.335 C 
HETATM   21  N   UNL     1      42.975 -14.898   3.964  1.00  0.00    -0.337 N 
HETATM   22  O   UNL     1      41.473 -13.331   4.714  1.00  0.00    -0.246 OA
HETATM   23  H   UNL     1      43.926 -15.043   3.663  1.00  0.00     0.164 HD
HETATM   24  H   UNL     1      44.584 -13.114   4.420  1.00  0.00     0.192 HD
BRANCH  21  25
HETATM   25  C   UNL     1      42.159 -16.072   4.254  1.00  0.00     0.086 C 
HETATM   26  C   UNL     1      41.833 -16.841   2.968  1.00  0.00     0.025 C 
HETATM   27  C   UNL     1      43.048 -17.557   2.377  1.00  0.00     0.002 C 
HETATM   28  C   UNL     1      43.749 -18.439   3.407  1.00  0.00     0.000 C 
HETATM   29  C   UNL     1      44.099 -17.665   4.675  1.00  0.00     0.002 C 
HETATM   30  C   UNL     1      42.872 -16.975   5.271  1.00  0.00     0.025 C 
ENDBRANCH  21  25
ENDBRANCH   1  19
BRANCH   3  31
HETATM   31  C   UNL     1      41.255 -10.531   1.821  1.00  0.00     0.036 A 
HETATM   32  C   UNL     1      41.440  -9.526   0.868  1.00  0.00     0.031 A 
HETATM   33  C   UNL     1      40.383  -9.141   0.035  1.00  0.00     0.026 A 
HETATM   34  C   UNL     1      39.137  -9.751   0.161  1.00  0.00     0.034 A 
HETATM   35 CL   UNL     1      37.838  -9.272  -0.860  1.00  0.00    -0.084 Cl
HETATM   36  C   UNL     1      38.937 -10.745   1.114  1.00  0.00     0.026 A 
HETATM   37  C   UNL     1      39.995 -11.133   1.940  1.00  0.00     0.031 A 
ENDBRANCH   3  31
TORSDOF 6
ENDMDL
MODEL 10
REMARK VINA RESULT:      -7.8      5.906      9.645
REMARK  6 active torsions:
REMARK  status: ('A' for Active; 'I' for Inactive)
REMARK    1  A    between atoms: O_2  and  C_3 
REMARK    2  A    between atoms: C_6  and  C_7 
REMARK    3  A    between atoms: C_9  and  N_10 
REMARK    4  A    between atoms: N_10  and  N_11 
REMARK       I    between atoms: N_10  and  C_21 
REMARK       I    between atoms: N_11  and  C_12 
REMARK       I    between atoms: C_12  and  N_13 
REMARK    5  A    between atoms: N_13  and  C_14 
REMARK       I    between atoms: C_21  and  N_22 
REMARK    6  A    between atoms: N_22  and  C_23 
ROOT
HETATM    1  N   UNL     1      40.867 -11.673   1.027  1.00  0.00    -0.176 N 
HETATM    2  C   UNL     1      39.794 -12.300   0.334  1.00  0.00     0.348 C 
HETATM    3  N   UNL     1      39.091 -11.404  -0.466  1.00  0.00    -0.307 N 
HETATM    4  O   UNL     1      39.480 -13.482   0.438  1.00  0.00    -0.245 OA
HETATM    5  H   UNL     1      39.172 -10.438  -0.157  1.00  0.00     0.170 HD
ENDROOT
BRANCH   1   6
HETATM    6  C   UNL     1      41.596 -12.424   1.953  1.00  0.00     0.197 A 
HETATM    7  N   UNL     1      41.627 -13.727   2.102  1.00  0.00    -0.222 NA
HETATM    8  C   UNL     1      42.578 -14.097   3.044  1.00  0.00     0.076 A 
HETATM    9  C   UNL     1      43.178 -13.034   3.690  1.00  0.00     0.086 A 
HETATM   10  S   UNL     1      42.624 -11.553   3.027  1.00  0.00    -0.060 SA
BRANCH   8  11
HETATM   11  C   UNL     1      42.931 -15.504   3.238  1.00  0.00    -0.007 A 
HETATM   12  C   UNL     1      43.380 -16.009   4.463  1.00  0.00     0.016 A 
HETATM   13  C   UNL     1      43.794 -17.343   4.574  1.00  0.00     0.037 A 
HETATM   14  C   UNL     1      43.770 -18.195   3.469  1.00  0.00     0.068 A 
HETATM   15  C   UNL     1      43.295 -17.712   2.253  1.00  0.00     0.037 A 
HETATM   16  C   UNL     1      42.878 -16.379   2.141  1.00  0.00     0.016 A 
BRANCH  14  17
HETATM   17  O   UNL     1      44.230 -19.459   3.710  1.00  0.00    -0.356 OA
HETATM   18  C   UNL     1      43.696 -20.498   2.898  1.00  0.00     0.210 C 
ENDBRANCH  14  17
ENDBRANCH   8  11
ENDBRANCH   1   6
BRANCH   1  19
HETATM   19  N   UNL     1      41.602 -10.629   0.377  1.00  0.00    -0.239 N 
HETATM   20  C   UNL     1      41.247  -9.309   0.472  1.00  0.00     0.335 C 
HETATM   21  N   UNL     1      42.095  -8.503  -0.243  1.00  0.00    -0.337 N 
HETATM   22  O   UNL     1      40.253  -8.911   1.065  1.00  0.00    -0.246 OA
HETATM   23  H   UNL     1      42.886  -8.930  -0.700  1.00  0.00     0.164 HD
HETATM   24  H   UNL     1      42.098 -10.940  -0.448  1.00  0.00     0.192 HD
BRANCH  21  25
HETATM   25  C   UNL     1      41.754  -7.130  -0.599  1.00  0.00     0.086 C 
HETATM   26  C   UNL     1      43.018  -6.273  -0.740  1.00  0.00     0.025 C 
HETATM   27  C   UNL     1      43.841  -6.624  -1.981  1.00  0.00     0.002 C 
HETATM   28  C   UNL     1      42.995  -6.607  -3.251  1.00  0.00     0.000 C 
HETATM   29  C   UNL     1      41.753  -7.484  -3.120  1.00  0.00     0.002 C 
HETATM   30  C   UNL     1      40.924  -7.106  -1.891  1.00  0.00     0.025 C 
ENDBRANCH  21  25
ENDBRANCH   1  19
BRANCH   3  31
HETATM   31  C   UNL     1      38.053 -11.663  -1.377  1.00  0.00     0.036 A 
HETATM   32  C   UNL     1      37.850 -12.895  -2.003  1.00  0.00     0.031 A 
HETATM   33  C   UNL     1      36.794 -13.063  -2.906  1.00  0.00     0.026 A 
HETATM   34  C   UNL     1      35.945 -11.996  -3.193  1.00  0.00     0.034 A 
HETATM   35 CL   UNL     1      34.651 -12.203  -4.307  1.00  0.00    -0.084 Cl
HETATM   36  C   UNL     1      36.143 -10.760  -2.585  1.00  0.00     0.026 A 
HETATM   37  C   UNL     1      37.194 -10.596  -1.679  1.00  0.00     0.031 A 
ENDBRANCH   3  31
TORSDOF 6
ENDMDL
