MODEL 1
REMARK VINA RESULT:      -9.0      0.000      0.000
REMARK  2 active torsions:
REMARK  status: ('A' for Active; 'I' for Inactive)
REMARK    1  A    between atoms: N_20  and  C_21 
REMARK    2  A    between atoms: C_24  and  O_25 
ROOT
HETATM    1  C   UNL     1      40.190 -14.571  -1.089  1.00  0.00     0.048 C 
HETATM    2  C   UNL     1      40.507 -13.311  -0.332  1.00  0.00    -0.061 A 
HETATM    3  C   UNL     1      40.905 -13.364   1.014  1.00  0.00     0.019 A 
HETATM    4  C   UNL     1      41.247 -12.181   1.656  1.00  0.00     0.016 A 
HETATM    5  C   UNL     1      41.165 -10.969   0.961  1.00  0.00     0.044 A 
HETATM    6  N   UNL     1      41.506  -9.910   1.785  1.00  0.00    -0.324 N 
HETATM    7  C   UNL     1      41.840 -10.351   3.050  1.00  0.00     0.264 A 
HETATM    8  O   UNL     1      42.143  -9.655   4.005  1.00  0.00    -0.270 OA
HETATM    9  C   UNL     1      41.681 -11.917   3.073  1.00  0.00     0.250 A 
HETATM   10  N   UNL     1      40.652 -12.380   4.087  1.00  0.00    -0.043 N 
HETATM   11  H   UNL     1      40.422 -13.358   3.857  1.00  0.00     0.282 HD
HETATM   12  C   UNL     1      41.349 -12.308   5.421  1.00  0.00     0.204 C 
HETATM   13  C   UNL     1      40.277 -12.892   6.310  1.00  0.00     0.036 C 
HETATM   14  C   UNL     1      38.995 -12.231   5.753  1.00  0.00     0.030 C 
HETATM   15  C   UNL     1      39.332 -11.727   4.335  1.00  0.00     0.237 C 
HETATM   16  C   UNL     1      42.727 -12.856   5.123  1.00  0.00     0.126 C 
HETATM   17  C   UNL     1      42.994 -12.507   3.652  1.00  0.00     0.145 C 
HETATM   18  C   UNL     1      43.379 -13.823   3.050  1.00  0.00     0.239 C 
HETATM   19  O   UNL     1      43.856 -13.877   1.927  1.00  0.00    -0.272 OA
HETATM   20  N   UNL     1      43.090 -14.843   3.932  1.00  0.00    -0.252 N 
HETATM   21  C   UNL     1      42.772 -14.349   5.176  1.00  0.00     0.238 C 
HETATM   22  O   UNL     1      42.479 -14.934   6.208  1.00  0.00    -0.272 OA
HETATM   23  C   UNL     1      40.776 -10.882  -0.357  1.00  0.00     0.031 A 
HETATM   24  C   UNL     1      40.450 -12.072  -1.006  1.00  0.00     0.009 A 
HETATM   25  H   UNL     1      41.525  -8.935   1.507  1.00  0.00     0.169 HD
ENDROOT
BRANCH  20  26
HETATM   26  C   UNL     1      43.099 -16.240   3.599  1.00  0.00     0.045 A 
HETATM   27  C   UNL     1      43.897 -17.159   4.296  1.00  0.00     0.033 A 
HETATM   28  C   UNL     1      43.978 -18.504   3.903  1.00  0.00     0.039 A 
HETATM   29  C   UNL     1      43.263 -18.975   2.807  1.00  0.00     0.068 A 
HETATM   30  C   UNL     1      42.440 -18.093   2.123  1.00  0.00     0.039 A 
HETATM   31  C   UNL     1      42.359 -16.747   2.517  1.00  0.00     0.033 A 
BRANCH  29  32
HETATM   32  O   UNL     1      43.455 -20.294   2.513  1.00  0.00    -0.356 OA
HETATM   33  C   UNL     1      43.945 -21.125   3.560  1.00  0.00     0.210 C 
ENDBRANCH  29  32
ENDBRANCH  20  26
TORSDOF 2
ENDMDL
MODEL 2
REMARK VINA RESULT:      -8.7      1.906      4.477
REMARK  2 active torsions:
REMARK  status: ('A' for Active; 'I' for Inactive)
REMARK    1  A    between atoms: N_20  and  C_21 
REMARK    2  A    between atoms: C_24  and  O_25 
ROOT
HETATM    1  C   UNL     1      44.705 -12.195   6.771  1.00  0.00     0.048 C 
HETATM    2  C   UNL     1      43.417 -11.551   6.339  1.00  0.00    -0.061 A 
HETATM    3  C   UNL     1      42.688 -12.062   5.252  1.00  0.00     0.019 A 
HETATM    4  C   UNL     1      41.474 -11.473   4.926  1.00  0.00     0.016 A 
HETATM    5  C   UNL     1      41.018 -10.375   5.666  1.00  0.00     0.044 A 
HETATM    6  N   UNL     1      39.815  -9.911   5.159  1.00  0.00    -0.324 N 
HETATM    7  C   UNL     1      39.406 -10.667   4.078  1.00  0.00     0.264 A 
HETATM    8  O   UNL     1      38.411 -10.479   3.397  1.00  0.00    -0.270 OA
HETATM    9  C   UNL     1      40.495 -11.774   3.824  1.00  0.00     0.250 A 
HETATM   10  N   UNL     1      41.124 -11.662   2.447  1.00  0.00    -0.043 N 
HETATM   11  H   UNL     1      41.982 -12.232   2.461  1.00  0.00     0.282 HD
HETATM   12  C   UNL     1      40.115 -12.261   1.501  1.00  0.00     0.204 C 
HETATM   13  C   UNL     1      40.895 -12.194   0.209  1.00  0.00     0.036 C 
HETATM   14  C   UNL     1      41.558 -10.800   0.300  1.00  0.00     0.030 C 
HETATM   15  C   UNL     1      41.525 -10.386   1.784  1.00  0.00     0.237 C 
HETATM   16  C   UNL     1      39.625 -13.485   2.242  1.00  0.00     0.126 C 
HETATM   17  C   UNL     1      39.757 -13.137   3.731  1.00  0.00     0.145 C 
HETATM   18  C   UNL     1      40.543 -14.285   4.286  1.00  0.00     0.239 C 
HETATM   19  O   UNL     1      40.658 -14.434   5.493  1.00  0.00    -0.272 OA
HETATM   20  N   UNL     1      41.064 -15.036   3.253  1.00  0.00    -0.252 N 
HETATM   21  C   UNL     1      40.517 -14.667   2.046  1.00  0.00     0.238 C 
HETATM   22  O   UNL     1      40.713 -15.107   0.923  1.00  0.00    -0.272 OA
HETATM   23  C   UNL     1      41.708  -9.848   6.734  1.00  0.00     0.031 A 
HETATM   24  C   UNL     1      42.919 -10.452   7.072  1.00  0.00     0.009 A 
HETATM   25  H   UNL     1      39.289  -9.128   5.529  1.00  0.00     0.169 HD
ENDROOT
BRANCH  20  26
HETATM   26  C   UNL     1      42.061 -16.058   3.408  1.00  0.00     0.045 A 
HETATM   27  C   UNL     1      42.074 -17.203   2.597  1.00  0.00     0.033 A 
HETATM   28  C   UNL     1      42.989 -18.245   2.817  1.00  0.00     0.039 A 
HETATM   29  C   UNL     1      43.920 -18.175   3.848  1.00  0.00     0.068 A 
HETATM   30  C   UNL     1      43.949 -17.038   4.640  1.00  0.00     0.039 A 
HETATM   31  C   UNL     1      43.034 -15.996   4.419  1.00  0.00     0.033 A 
BRANCH  29  32
HETATM   32  O   UNL     1      44.730 -19.267   3.972  1.00  0.00    -0.356 OA
HETATM   33  C   UNL     1      44.324 -20.271   4.896  1.00  0.00     0.210 C 
ENDBRANCH  29  32
ENDBRANCH  20  26
TORSDOF 2
ENDMDL
MODEL 3
REMARK VINA RESULT:      -8.6      4.520      8.926
REMARK  2 active torsions:
REMARK  status: ('A' for Active; 'I' for Inactive)
REMARK    1  A    between atoms: N_20  and  C_21 
REMARK    2  A    between atoms: C_24  and  O_25 
ROOT
HETATM    1  C   UNL     1      45.197 -10.125  10.299  1.00  0.00     0.048 C 
HETATM    2  C   UNL     1      45.095 -10.503   8.848  1.00  0.00    -0.061 A 
HETATM    3  C   UNL     1      43.841 -10.693   8.243  1.00  0.00     0.019 A 
HETATM    4  C   UNL     1      43.792 -10.982   6.885  1.00  0.00     0.016 A 
HETATM    5  C   UNL     1      44.984 -11.100   6.161  1.00  0.00     0.044 A 
HETATM    6  N   UNL     1      44.721 -11.431   4.841  1.00  0.00    -0.324 N 
HETATM    7  C   UNL     1      43.363 -11.538   4.616  1.00  0.00     0.264 A 
HETATM    8  O   UNL     1      42.825 -11.856   3.568  1.00  0.00    -0.270 OA
HETATM    9  C   UNL     1      42.624 -11.257   5.977  1.00  0.00     0.250 A 
HETATM   10  N   UNL     1      41.797 -12.442   6.442  1.00  0.00    -0.043 N 
HETATM   11  H   UNL     1      41.573 -12.281   7.434  1.00  0.00     0.282 HD
HETATM   12  C   UNL     1      40.542 -12.401   5.609  1.00  0.00     0.204 C 
HETATM   13  C   UNL     1      39.773 -13.538   6.238  1.00  0.00     0.036 C 
HETATM   14  C   UNL     1      40.874 -14.607   6.435  1.00  0.00     0.030 C 
HETATM   15  C   UNL     1      42.227 -13.871   6.376  1.00  0.00     0.237 C 
HETATM   16  C   UNL     1      40.192 -10.930   5.580  1.00  0.00     0.126 C 
HETATM   17  C   UNL     1      41.532 -10.191   5.699  1.00  0.00     0.145 C 
HETATM   18  C   UNL     1      41.306  -9.249   6.841  1.00  0.00     0.239 C 
HETATM   19  O   UNL     1      42.107  -8.359   7.081  1.00  0.00    -0.272 OA
HETATM   20  N   UNL     1      40.141  -9.583   7.499  1.00  0.00    -0.252 N 
HETATM   21  C   UNL     1      39.413 -10.504   6.782  1.00  0.00     0.238 C 
HETATM   22  O   UNL     1      38.334 -11.022   7.028  1.00  0.00    -0.272 OA
HETATM   23  C   UNL     1      46.227 -10.923   6.723  1.00  0.00     0.031 A 
HETATM   24  C   UNL     1      46.275 -10.615   8.082  1.00  0.00     0.009 A 
HETATM   25  H   UNL     1      45.423 -11.567   4.123  1.00  0.00     0.169 HD
ENDROOT
BRANCH  20  26
HETATM   26  C   UNL     1      39.742  -9.057   8.774  1.00  0.00     0.045 A 
HETATM   27  C   UNL     1      39.019  -7.860   8.884  1.00  0.00     0.033 A 
HETATM   28  C   UNL     1      38.718  -7.298  10.134  1.00  0.00     0.039 A 
HETATM   29  C   UNL     1      39.124  -7.915  11.314  1.00  0.00     0.068 A 
HETATM   30  C   UNL     1      39.810  -9.117  11.232  1.00  0.00     0.039 A 
HETATM   31  C   UNL     1      40.109  -9.679   9.980  1.00  0.00     0.033 A 
BRANCH  29  32
HETATM   32  O   UNL     1      38.794  -7.250  12.459  1.00  0.00    -0.356 OA
HETATM   33  C   UNL     1      37.490  -6.682  12.524  1.00  0.00     0.210 C 
ENDBRANCH  29  32
ENDBRANCH  20  26
TORSDOF 2
ENDMDL
MODEL 4
REMARK VINA RESULT:      -8.5     15.529     18.005
REMARK  2 active torsions:
REMARK  status: ('A' for Active; 'I' for Inactive)
REMARK    1  A    between atoms: N_20  and  C_21 
REMARK    2  A    between atoms: C_24  and  O_25 
ROOT
HETATM    1  C   UNL     1      42.005 -32.894   0.416  1.00  0.00     0.048 C 
HETATM    2  C   UNL     1      42.806 -31.851   1.144  1.00  0.00    -0.061 A 
HETATM    3  C   UNL     1      43.953 -31.288   0.558  1.00  0.00     0.019 A 
HETATM    4  C   UNL     1      44.627 -30.285   1.241  1.00  0.00     0.016 A 
HETATM    5  C   UNL     1      44.168 -29.876   2.498  1.00  0.00     0.044 A 
HETATM    6  N   UNL     1      44.998 -28.900   3.027  1.00  0.00    -0.324 N 
HETATM    7  C   UNL     1      46.031 -28.603   2.160  1.00  0.00     0.264 A 
HETATM    8  O   UNL     1      46.943 -27.818   2.361  1.00  0.00    -0.270 OA
HETATM    9  C   UNL     1      45.875 -29.520   0.890  1.00  0.00     0.250 A 
HETATM   10  N   UNL     1      47.072 -30.431   0.683  1.00  0.00    -0.043 N 
HETATM   11  H   UNL     1      46.782 -31.159   0.015  1.00  0.00     0.282 HD
HETATM   12  C   UNL     1      48.135 -29.555   0.073  1.00  0.00     0.204 C 
HETATM   13  C   UNL     1      49.208 -30.586  -0.184  1.00  0.00     0.036 C 
HETATM   14  C   UNL     1      49.156 -31.441   1.104  1.00  0.00     0.030 C 
HETATM   15  C   UNL     1      47.789 -31.170   1.764  1.00  0.00     0.237 C 
HETATM   16  C   UNL     1      47.369 -28.724  -0.931  1.00  0.00     0.126 C 
HETATM   17  C   UNL     1      45.950 -28.600  -0.357  1.00  0.00     0.145 C 
HETATM   18  C   UNL     1      45.079 -29.049  -1.490  1.00  0.00     0.239 C 
HETATM   19  O   UNL     1      43.870 -28.885  -1.447  1.00  0.00    -0.272 OA
HETATM   20  N   UNL     1      45.852 -29.641  -2.467  1.00  0.00    -0.252 N 
HETATM   21  C   UNL     1      47.192 -29.426  -2.238  1.00  0.00     0.238 C 
HETATM   22  O   UNL     1      48.169 -29.774  -2.884  1.00  0.00    -0.272 OA
HETATM   23  C   UNL     1      43.051 -30.407   3.102  1.00  0.00     0.031 A 
HETATM   24  C   UNL     1      42.364 -31.403   2.408  1.00  0.00     0.009 A 
HETATM   25  H   UNL     1      44.869 -28.447   3.924  1.00  0.00     0.169 HD
ENDROOT
BRANCH  20  26
HETATM   26  C   UNL     1      45.335 -30.398  -3.572  1.00  0.00     0.045 A 
HETATM   27  C   UNL     1      44.852 -29.773  -4.731  1.00  0.00     0.033 A 
HETATM   28  C   UNL     1      44.256 -30.510  -5.766  1.00  0.00     0.039 A 
HETATM   29  C   UNL     1      44.128 -31.893  -5.680  1.00  0.00     0.068 A 
HETATM   30  C   UNL     1      44.629 -32.537  -4.558  1.00  0.00     0.039 A 
HETATM   31  C   UNL     1      45.226 -31.798  -3.524  1.00  0.00     0.033 A 
BRANCH  29  32
HETATM   32  O   UNL     1      43.503 -32.485  -6.739  1.00  0.00    -0.356 OA
HETATM   33  C   UNL     1      43.763 -31.942  -8.029  1.00  0.00     0.210 C 
ENDBRANCH  29  32
ENDBRANCH  20  26
TORSDOF 2
ENDMDL
MODEL 5
REMARK VINA RESULT:      -8.3      2.513      5.908
REMARK  2 active torsions:
REMARK  status: ('A' for Active; 'I' for Inactive)
REMARK    1  A    between atoms: N_20  and  C_21 
REMARK    2  A    between atoms: C_24  and  O_25 
ROOT
HETATM    1  C   UNL     1      38.322  -9.229   4.336  1.00  0.00     0.048 C 
HETATM    2  C   UNL     1      39.504  -9.840   5.037  1.00  0.00    -0.061 A 
HETATM    3  C   UNL     1      40.053 -11.055   4.593  1.00  0.00     0.019 A 
HETATM    4  C   UNL     1      41.181 -11.551   5.233  1.00  0.00     0.016 A 
HETATM    5  C   UNL     1      41.728 -10.848   6.313  1.00  0.00     0.044 A 
HETATM    6  N   UNL     1      42.817 -11.527   6.835  1.00  0.00    -0.324 N 
HETATM    7  C   UNL     1      43.058 -12.693   6.136  1.00  0.00     0.264 A 
HETATM    8  O   UNL     1      43.919 -13.522   6.383  1.00  0.00    -0.270 OA
HETATM    9  C   UNL     1      41.968 -12.814   5.007  1.00  0.00     0.250 A 
HETATM   10  N   UNL     1      41.115 -14.060   5.156  1.00  0.00    -0.043 N 
HETATM   11  H   UNL     1      40.285 -13.930   4.560  1.00  0.00     0.282 HD
HETATM   12  C   UNL     1      41.965 -15.187   4.628  1.00  0.00     0.204 C 
HETATM   13  C   UNL     1      40.978 -16.327   4.724  1.00  0.00     0.036 C 
HETATM   14  C   UNL     1      40.306 -16.063   6.092  1.00  0.00     0.030 C 
HETATM   15  C   UNL     1      40.578 -14.588   6.446  1.00  0.00     0.237 C 
HETATM   16  C   UNL     1      42.601 -14.594   3.391  1.00  0.00     0.126 C 
HETATM   17  C   UNL     1      42.711 -13.089   3.673  1.00  0.00     0.145 C 
HETATM   18  C   UNL     1      42.057 -12.465   2.479  1.00  0.00     0.239 C 
HETATM   19  O   UNL     1      42.149 -11.264   2.277  1.00  0.00    -0.272 OA
HETATM   20  N   UNL     1      41.388 -13.430   1.756  1.00  0.00    -0.252 N 
HETATM   21  C   UNL     1      41.716 -14.693   2.190  1.00  0.00     0.238 C 
HETATM   22  O   UNL     1      41.346 -15.787   1.791  1.00  0.00    -0.272 OA
HETATM   23  C   UNL     1      41.214  -9.658   6.774  1.00  0.00     0.031 A 
HETATM   24  C   UNL     1      40.092  -9.150   6.120  1.00  0.00     0.009 A 
HETATM   25  H   UNL     1      43.380 -11.214   7.618  1.00  0.00     0.169 HD
ENDROOT
BRANCH  20  26
HETATM   26  C   UNL     1      40.456 -13.158   0.698  1.00  0.00     0.045 A 
HETATM   27  C   UNL     1      39.376 -12.280   0.875  1.00  0.00     0.033 A 
HETATM   28  C   UNL     1      38.412 -12.095  -0.128  1.00  0.00     0.039 A 
HETATM   29  C   UNL     1      38.497 -12.775  -1.339  1.00  0.00     0.068 A 
HETATM   30  C   UNL     1      39.575 -13.621  -1.550  1.00  0.00     0.039 A 
HETATM   31  C   UNL     1      40.539 -13.805  -0.547  1.00  0.00     0.033 A 
BRANCH  29  32
HETATM   32  O   UNL     1      37.480 -12.528  -2.215  1.00  0.00    -0.356 OA
HETATM   33  C   UNL     1      37.242 -11.168  -2.563  1.00  0.00     0.210 C 
ENDBRANCH  29  32
ENDBRANCH  20  26
TORSDOF 2
ENDMDL
MODEL 6
REMARK VINA RESULT:      -8.2      2.587      5.112
REMARK  2 active torsions:
REMARK  status: ('A' for Active; 'I' for Inactive)
REMARK    1  A    between atoms: N_20  and  C_21 
REMARK    2  A    between atoms: C_24  and  O_25 
ROOT
HETATM    1  C   UNL     1      45.452 -11.923   6.463  1.00  0.00     0.048 C 
HETATM    2  C   UNL     1      44.210 -11.145   6.799  1.00  0.00    -0.061 A 
HETATM    3  C   UNL     1      43.050 -11.269   6.015  1.00  0.00     0.019 A 
HETATM    4  C   UNL     1      41.909 -10.578   6.399  1.00  0.00     0.016 A 
HETATM    5  C   UNL     1      41.944  -9.760   7.534  1.00  0.00     0.044 A 
HETATM    6  N   UNL     1      40.724  -9.131   7.720  1.00  0.00    -0.324 N 
HETATM    7  C   UNL     1      39.821  -9.496   6.742  1.00  0.00     0.264 A 
HETATM    8  O   UNL     1      38.682  -9.079   6.614  1.00  0.00    -0.270 OA
HETATM    9  C   UNL     1      40.547 -10.492   5.762  1.00  0.00     0.250 A 
HETATM   10  N   UNL     1      40.607  -9.965   4.340  1.00  0.00    -0.043 N 
HETATM   11  H   UNL     1      41.308 -10.530   3.839  1.00  0.00     0.282 HD
HETATM   12  C   UNL     1      39.234 -10.209   3.769  1.00  0.00     0.204 C 
HETATM   13  C   UNL     1      39.457  -9.756   2.346  1.00  0.00     0.036 C 
HETATM   14  C   UNL     1      40.307  -8.478   2.540  1.00  0.00     0.030 C 
HETATM   15  C   UNL     1      40.911  -8.554   3.956  1.00  0.00     0.237 C 
HETATM   16  C   UNL     1      38.889 -11.593   4.273  1.00  0.00     0.126 C 
HETATM   17  C   UNL     1      39.635 -11.737   5.607  1.00  0.00     0.145 C 
HETATM   18  C   UNL     1      40.390 -13.020   5.443  1.00  0.00     0.239 C 
HETATM   19  O   UNL     1      40.937 -13.546   6.400  1.00  0.00    -0.272 OA
HETATM   20  N   UNL     1      40.354 -13.418   4.123  1.00  0.00    -0.252 N 
HETATM   21  C   UNL     1      39.447 -12.673   3.404  1.00  0.00     0.238 C 
HETATM   22  O   UNL     1      39.126 -12.740   2.228  1.00  0.00    -0.272 OA
HETATM   23  C   UNL     1      43.063  -9.614   8.322  1.00  0.00     0.031 A 
HETATM   24  C   UNL     1      44.205 -10.323   7.947  1.00  0.00     0.009 A 
HETATM   25  H   UNL     1      40.506  -8.493   8.477  1.00  0.00     0.169 HD
ENDROOT
BRANCH  20  26
HETATM   26  C   UNL     1      41.166 -14.460   3.560  1.00  0.00     0.045 A 
HETATM   27  C   UNL     1      40.848 -15.815   3.731  1.00  0.00     0.033 A 
HETATM   28  C   UNL     1      41.698 -16.831   3.265  1.00  0.00     0.039 A 
HETATM   29  C   UNL     1      42.888 -16.526   2.611  1.00  0.00     0.068 A 
HETATM   30  C   UNL     1      43.206 -15.193   2.399  1.00  0.00     0.039 A 
HETATM   31  C   UNL     1      42.354 -14.178   2.865  1.00  0.00     0.033 A 
BRANCH  29  32
HETATM   32  O   UNL     1      43.636 -17.604   2.236  1.00  0.00    -0.356 OA
HETATM   33  C   UNL     1      43.863 -18.607   3.221  1.00  0.00     0.210 C 
ENDBRANCH  29  32
ENDBRANCH  20  26
TORSDOF 2
ENDMDL
MODEL 7
REMARK VINA RESULT:      -8.2      2.425      4.894
REMARK  2 active torsions:
REMARK  status: ('A' for Active; 'I' for Inactive)
REMARK    1  A    between atoms: N_20  and  C_21 
REMARK    2  A    between atoms: C_24  and  O_25 
ROOT
HETATM    1  C   UNL     1      43.654 -11.217   5.159  1.00  0.00     0.048 C 
HETATM    2  C   UNL     1      42.466 -10.531   4.541  1.00  0.00    -0.061 A 
HETATM    3  C   UNL     1      41.867 -11.042   3.377  1.00  0.00     0.019 A 
HETATM    4  C   UNL     1      40.737 -10.410   2.877  1.00  0.00     0.016 A 
HETATM    5  C   UNL     1      40.237  -9.274   3.523  1.00  0.00     0.044 A 
HETATM    6  N   UNL     1      39.136  -8.773   2.847  1.00  0.00    -0.324 N 
HETATM    7  C   UNL     1      38.841  -9.541   1.739  1.00  0.00     0.264 A 
HETATM    8  O   UNL     1      37.957  -9.331   0.924  1.00  0.00    -0.270 OA
HETATM    9  C   UNL     1      39.902 -10.701   1.659  1.00  0.00     0.250 A 
HETATM   10  N   UNL     1      40.715 -10.656   0.378  1.00  0.00    -0.043 N 
HETATM   11  H   UNL     1      41.536 -11.261   0.521  1.00  0.00     0.282 HD
HETATM   12  C   UNL     1      39.816 -11.237  -0.683  1.00  0.00     0.204 C 
HETATM   13  C   UNL     1      40.764 -11.241  -1.858  1.00  0.00     0.036 C 
HETATM   14  C   UNL     1      41.474  -9.875  -1.709  1.00  0.00     0.030 C 
HETATM   15  C   UNL     1      41.260  -9.417  -0.253  1.00  0.00     0.237 C 
HETATM   16  C   UNL     1      39.175 -12.417   0.013  1.00  0.00     0.126 C 
HETATM   17  C   UNL     1      39.122 -12.033   1.498  1.00  0.00     0.145 C 
HETATM   18  C   UNL     1      39.771 -13.197   2.180  1.00  0.00     0.239 C 
HETATM   19  O   UNL     1      39.716 -13.317   3.394  1.00  0.00    -0.272 OA
HETATM   20  N   UNL     1      40.391 -13.999   1.245  1.00  0.00    -0.252 N 
HETATM   21  C   UNL     1      40.029 -13.642  -0.034  1.00  0.00     0.238 C 
HETATM   22  O   UNL     1      40.353 -14.122  -1.110  1.00  0.00    -0.272 OA
HETATM   23  C   UNL     1      40.801  -8.746   4.662  1.00  0.00     0.031 A 
HETATM   24  C   UNL     1      41.926  -9.392   5.175  1.00  0.00     0.009 A 
HETATM   25  H   UNL     1      38.602  -7.958   3.125  1.00  0.00     0.169 HD
ENDROOT
BRANCH  20  26
HETATM   26  C   UNL     1      41.310 -15.058   1.556  1.00  0.00     0.045 A 
HETATM   27  C   UNL     1      40.865 -16.314   1.994  1.00  0.00     0.033 A 
HETATM   28  C   UNL     1      41.767 -17.313   2.392  1.00  0.00     0.039 A 
HETATM   29  C   UNL     1      43.141 -17.092   2.361  1.00  0.00     0.068 A 
HETATM   30  C   UNL     1      43.605 -15.870   1.898  1.00  0.00     0.039 A 
HETATM   31  C   UNL     1      42.701 -14.872   1.499  1.00  0.00     0.033 A 
BRANCH  29  32
HETATM   32  O   UNL     1      43.906 -18.132   2.802  1.00  0.00    -0.356 OA
HETATM   33  C   UNL     1      44.060 -18.269   4.211  1.00  0.00     0.210 C 
ENDBRANCH  29  32
ENDBRANCH  20  26
TORSDOF 2
ENDMDL
MODEL 8
REMARK VINA RESULT:      -8.2      2.790      6.113
REMARK  2 active torsions:
REMARK  status: ('A' for Active; 'I' for Inactive)
REMARK    1  A    between atoms: N_20  and  C_21 
REMARK    2  A    between atoms: C_24  and  O_25 
ROOT
HETATM    1  C   UNL     1      43.728 -16.565   5.428  1.00  0.00     0.048 C 
HETATM    2  C   UNL     1      43.200 -16.003   4.138  1.00  0.00    -0.061 A 
HETATM    3  C   UNL     1      42.765 -14.669   4.061  1.00  0.00     0.019 A 
HETATM    4  C   UNL     1      42.341 -14.175   2.835  1.00  0.00     0.016 A 
HETATM    5  C   UNL     1      42.334 -15.016   1.716  1.00  0.00     0.044 A 
HETATM    6  N   UNL     1      41.841 -14.348   0.607  1.00  0.00    -0.324 N 
HETATM    7  C   UNL     1      41.509 -13.045   0.918  1.00  0.00     0.264 A 
HETATM    8  O   UNL     1      41.013 -12.223   0.165  1.00  0.00    -0.270 OA
HETATM    9  C   UNL     1      41.806 -12.822   2.447  1.00  0.00     0.250 A 
HETATM   10  N   UNL     1      40.561 -12.448   3.231  1.00  0.00    -0.043 N 
HETATM   11  H   UNL     1      40.783 -12.581   4.229  1.00  0.00     0.282 HD
HETATM   12  C   UNL     1      40.331 -10.988   2.937  1.00  0.00     0.204 C 
HETATM   13  C   UNL     1      39.158 -10.718   3.848  1.00  0.00     0.036 C 
HETATM   14  C   UNL     1      38.292 -11.984   3.648  1.00  0.00     0.030 C 
HETATM   15  C   UNL     1      39.214 -13.067   3.055  1.00  0.00     0.237 C 
HETATM   16  C   UNL     1      41.723 -10.398   2.994  1.00  0.00     0.126 C 
HETATM   17  C   UNL     1      42.664 -11.535   2.571  1.00  0.00     0.145 C 
HETATM   18  C   UNL     1      43.668 -11.585   3.681  1.00  0.00     0.239 C 
HETATM   19  O   UNL     1      44.687 -12.247   3.569  1.00  0.00    -0.272 OA
HETATM   20  N   UNL     1      43.227 -10.823   4.743  1.00  0.00    -0.252 N 
HETATM   21  C   UNL     1      42.141 -10.056   4.388  1.00  0.00     0.238 C 
HETATM   22  O   UNL     1      41.493  -9.253   5.042  1.00  0.00    -0.272 OA
HETATM   23  C   UNL     1      42.751 -16.327   1.757  1.00  0.00     0.031 A 
HETATM   24  C   UNL     1      43.193 -16.818   2.985  1.00  0.00     0.009 A 
HETATM   25  H   UNL     1      41.743 -14.748  -0.320  1.00  0.00     0.169 HD
ENDROOT
BRANCH  20  26
HETATM   26  C   UNL     1      43.809 -10.836   6.056  1.00  0.00     0.045 A 
HETATM   27  C   UNL     1      43.048 -10.557   7.201  1.00  0.00     0.033 A 
HETATM   28  C   UNL     1      43.641 -10.474   8.471  1.00  0.00     0.039 A 
HETATM   29  C   UNL     1      45.009 -10.671   8.638  1.00  0.00     0.068 A 
HETATM   30  C   UNL     1      45.775 -10.982   7.525  1.00  0.00     0.039 A 
HETATM   31  C   UNL     1      45.180 -11.066   6.255  1.00  0.00     0.033 A 
BRANCH  29  32
HETATM   32  O   UNL     1      45.462 -10.531   9.918  1.00  0.00    -0.356 OA
HETATM   33  C   UNL     1      44.579  -9.921  10.853  1.00  0.00     0.210 C 
ENDBRANCH  29  32
ENDBRANCH  20  26
TORSDOF 2
ENDMDL
MODEL 9
REMARK VINA RESULT:      -8.0      6.550      8.967
REMARK  2 active torsions:
REMARK  status: ('A' for Active; 'I' for Inactive)
REMARK    1  A    between atoms: N_20  and  C_21 
REMARK    2  A    between atoms: C_24  and  O_25 
ROOT
HETATM    1  C   UNL     1      38.861  -7.210   6.636  1.00  0.00     0.048 C 
HETATM    2  C   UNL     1      39.330  -6.635   7.945  1.00  0.00    -0.061 A 
HETATM    3  C   UNL     1      40.281  -7.312   8.726  1.00  0.00     0.019 A 
HETATM    4  C   UNL     1      40.730  -6.715   9.897  1.00  0.00     0.016 A 
HETATM    5  C   UNL     1      40.211  -5.474  10.282  1.00  0.00     0.044 A 
HETATM    6  N   UNL     1      40.753  -5.073  11.492  1.00  0.00    -0.324 N 
HETATM    7  C   UNL     1      41.656  -6.004  11.965  1.00  0.00     0.264 A 
HETATM    8  O   UNL     1      42.264  -5.953  13.022  1.00  0.00    -0.270 OA
HETATM    9  C   UNL     1      41.707  -7.194  10.937  1.00  0.00     0.250 A 
HETATM   10  N   UNL     1      41.287  -8.514  11.558  1.00  0.00    -0.043 N 
HETATM   11  H   UNL     1      41.095  -9.164  10.782  1.00  0.00     0.282 HD
HETATM   12  C   UNL     1      42.486  -8.980  12.344  1.00  0.00     0.204 C 
HETATM   13  C   UNL     1      41.988 -10.329  12.807  1.00  0.00     0.036 C 
HETATM   14  C   UNL     1      40.524 -10.019  13.198  1.00  0.00     0.030 C 
HETATM   15  C   UNL     1      40.144  -8.699  12.500  1.00  0.00     0.237 C 
HETATM   16  C   UNL     1      43.647  -8.670  11.426  1.00  0.00     0.126 C 
HETATM   17  C   UNL     1      43.199  -7.455  10.602  1.00  0.00     0.145 C 
HETATM   18  C   UNL     1      43.432  -7.891   9.188  1.00  0.00     0.239 C 
HETATM   19  O   UNL     1      43.371  -7.088   8.271  1.00  0.00    -0.272 OA
HETATM   20  N   UNL     1      43.679  -9.248   9.154  1.00  0.00    -0.252 N 
HETATM   21  C   UNL     1      43.884  -9.748  10.419  1.00  0.00     0.238 C 
HETATM   22  O   UNL     1      44.142 -10.884  10.787  1.00  0.00    -0.272 OA
HETATM   23  C   UNL     1      39.277  -4.786   9.542  1.00  0.00     0.031 A 
HETATM   24  C   UNL     1      38.840  -5.377   8.357  1.00  0.00     0.009 A 
HETATM   25  H   UNL     1      40.535  -4.207  11.972  1.00  0.00     0.169 HD
ENDROOT
BRANCH  20  26
HETATM   26  C   UNL     1      43.703 -10.045   7.959  1.00  0.00     0.045 A 
HETATM   27  C   UNL     1      42.547 -10.258   7.193  1.00  0.00     0.033 A 
HETATM   28  C   UNL     1      42.553 -11.117   6.083  1.00  0.00     0.039 A 
HETATM   29  C   UNL     1      43.712 -11.786   5.700  1.00  0.00     0.068 A 
HETATM   30  C   UNL     1      44.875 -11.563   6.421  1.00  0.00     0.039 A 
HETATM   31  C   UNL     1      44.868 -10.703   7.531  1.00  0.00     0.033 A 
BRANCH  29  32
HETATM   32  O   UNL     1      43.575 -12.613   4.624  1.00  0.00    -0.356 OA
HETATM   33  C   UNL     1      43.551 -12.002   3.338  1.00  0.00     0.210 C 
ENDBRANCH  29  32
ENDBRANCH  20  26
TORSDOF 2
ENDMDL
MODEL 10
REMARK VINA RESULT:      -7.8     16.006     18.153
REMARK  2 active torsions:
REMARK  status: ('A' for Active; 'I' for Inactive)
REMARK    1  A    between atoms: N_20  and  C_21 
REMARK    2  A    between atoms: C_24  and  O_25 
ROOT
HETATM    1  C   UNL     1      42.959 -33.328   1.117  1.00  0.00     0.048 C 
HETATM    2  C   UNL     1      43.907 -32.611   2.039  1.00  0.00    -0.061 A 
HETATM    3  C   UNL     1      44.949 -31.822   1.525  1.00  0.00     0.019 A 
HETATM    4  C   UNL     1      45.762 -31.130   2.412  1.00  0.00     0.016 A 
HETATM    5  C   UNL     1      45.544 -31.253   3.789  1.00  0.00     0.044 A 
HETATM    6  N   UNL     1      46.482 -30.522   4.500  1.00  0.00    -0.324 N 
HETATM    7  C   UNL     1      47.355 -29.874   3.649  1.00  0.00     0.264 A 
HETATM    8  O   UNL     1      48.312 -29.190   3.975  1.00  0.00    -0.270 OA
HETATM    9  C   UNL     1      46.952 -30.240   2.172  1.00  0.00     0.250 A 
HETATM   10  N   UNL     1      48.065 -30.953   1.427  1.00  0.00    -0.043 N 
HETATM   11  H   UNL     1      47.641 -31.380   0.590  1.00  0.00     0.282 HD
HETATM   12  C   UNL     1      49.031 -29.868   1.026  1.00  0.00     0.204 C 
HETATM   13  C   UNL     1      50.011 -30.677   0.210  1.00  0.00     0.036 C 
HETATM   14  C   UNL     1      50.160 -31.962   1.059  1.00  0.00     0.030 C 
HETATM   15  C   UNL     1      48.939 -32.020   1.998  1.00  0.00     0.237 C 
HETATM   16  C   UNL     1      48.125 -28.747   0.567  1.00  0.00     0.126 C 
HETATM   17  C   UNL     1      46.834 -28.910   1.381  1.00  0.00     0.145 C 
HETATM   18  C   UNL     1      45.764 -28.925   0.333  1.00  0.00     0.239 C 
HETATM   19  O   UNL     1      44.587 -28.839   0.644  1.00  0.00    -0.272 OA
HETATM   20  N   UNL     1      46.336 -29.065  -0.915  1.00  0.00    -0.252 N 
HETATM   21  C   UNL     1      47.701 -28.901  -0.857  1.00  0.00     0.238 C 
HETATM   22  O   UNL     1      48.538 -28.935  -1.746  1.00  0.00    -0.272 OA
HETATM   23  C   UNL     1      44.534 -32.020   4.326  1.00  0.00     0.031 A 
HETATM   24  C   UNL     1      43.706 -32.700   3.433  1.00  0.00     0.009 A 
HETATM   25  H   UNL     1      46.526 -30.453   5.510  1.00  0.00     0.169 HD
ENDROOT
BRANCH  20  26
HETATM   26  C   UNL     1      45.610 -29.361  -2.118  1.00  0.00     0.045 A 
HETATM   27  C   UNL     1      45.076 -30.635  -2.361  1.00  0.00     0.033 A 
HETATM   28  C   UNL     1      44.454 -30.947  -3.581  1.00  0.00     0.039 A 
HETATM   29  C   UNL     1      44.342 -29.998  -4.592  1.00  0.00     0.068 A 
HETATM   30  C   UNL     1      44.831 -28.721  -4.361  1.00  0.00     0.039 A 
HETATM   31  C   UNL     1      45.452 -28.410  -3.140  1.00  0.00     0.033 A 
BRANCH  29  32
HETATM   32  O   UNL     1      43.744 -30.439  -5.737  1.00  0.00    -0.356 OA
HETATM   33  C   UNL     1      44.516 -31.283  -6.585  1.00  0.00     0.210 C 
ENDBRANCH  29  32
ENDBRANCH  20  26
TORSDOF 2
ENDMDL
