MODEL 1
REMARK VINA RESULT:      -8.4      0.000      0.000
REMARK  7 active torsions:
REMARK  status: ('A' for Active; 'I' for Inactive)
REMARK    1  A    between atoms: C_3  and  C_4 
REMARK       I    between atoms: C_4  and  N_5 
REMARK    2  A    between atoms: N_5  and  C_6 
REMARK    3  A    between atoms: C_17  and  S_18 
REMARK    4  A    between atoms: S_18  and  C_19 
REMARK    5  A    between atoms: C_19  and  C_20 
REMARK       I    between atoms: C_20  and  N_21 
REMARK    6  A    between atoms: N_21  and  C_22 
REMARK    7  A    between atoms: C_22  and  C_23 
ROOT
HETATM    1  C   UNL     1      43.442 -20.550   2.422  1.00  0.00     0.001 A 
HETATM    2  C   UNL     1      43.068 -19.265   2.034  1.00  0.00     0.018 A 
HETATM    3  C   UNL     1      43.283 -18.177   2.898  1.00  0.00     0.049 A 
HETATM    4  C   UNL     1      43.873 -18.374   4.161  1.00  0.00     0.016 A 
HETATM    5  C   UNL     1      44.227 -19.678   4.537  1.00  0.00     0.019 A 
HETATM    6  C   UNL     1      44.020 -20.756   3.672  1.00  0.00     0.001 A 
ENDROOT
BRANCH   3   7
HETATM    7  C   UNL     1      42.851 -16.832   2.442  1.00  0.00     0.257 C 
HETATM    8  N   UNL     1      41.509 -16.567   2.655  1.00  0.00    -0.323 N 
HETATM    9  H   UNL     1      40.958 -17.299   3.086  1.00  0.00     0.169 HD
HETATM   10  O   UNL     1      43.666 -16.106   1.888  1.00  0.00    -0.267 OA
BRANCH   8  11
HETATM   11  C   UNL     1      40.798 -15.418   2.243  1.00  0.00     0.037 A 
HETATM   12  C   UNL     1      40.503 -15.134   0.904  1.00  0.00     0.061 A 
HETATM   13  C   UNL     1      39.773 -13.997   0.650  1.00  0.00     0.065 A 
HETATM   14  C   UNL     1      39.340 -13.142   1.659  1.00  0.00     0.063 A 
HETATM   15  N   UNL     1      39.329 -13.486  -0.565  1.00  0.00    -0.306 N 
HETATM   16  N   UNL     1      38.630 -12.105   1.067  1.00  0.00    -0.307 N 
HETATM   17  C   UNL     1      39.621 -13.380   2.980  1.00  0.00     0.034 A 
HETATM   18  C   UNL     1      38.611 -12.307  -0.322  1.00  0.00     0.325 A 
HETATM   19  H   UNL     1      38.184 -11.327   1.524  1.00  0.00     0.170 HD
HETATM   20  O   UNL     1      38.072 -11.596  -1.151  1.00  0.00    -0.247 OA
HETATM   21  C   UNL     1      40.361 -14.536   3.267  1.00  0.00     0.032 A 
HETATM   22  H   UNL     1      39.482 -13.884  -1.478  1.00  0.00     0.170 HD
ENDBRANCH   8  11
ENDBRANCH   3   7
BRANCH   4  23
HETATM   23  S   UNL     1      44.195 -17.082   5.363  1.00  0.00    -0.120 SA
BRANCH  23  24
HETATM   24  C   UNL     1      42.630 -17.099   6.298  1.00  0.00     0.182 C 
BRANCH  24  25
HETATM   25  C   UNL     1      42.045 -15.705   6.442  1.00  0.00     0.227 C 
HETATM   26  N   UNL     1      42.925 -14.663   6.278  1.00  0.00    -0.354 N 
HETATM   27  H   UNL     1      43.854 -14.840   5.890  1.00  0.00     0.162 HD
HETATM   28  O   UNL     1      40.874 -15.534   6.781  1.00  0.00    -0.273 OA
BRANCH  26  29
HETATM   29  C   UNL     1      42.471 -13.297   6.362  1.00  0.00     0.187 C 
BRANCH  29  30
HETATM   30  C   UNL     1      42.738 -12.567   5.097  1.00  0.00     0.070 A 
HETATM   31  O   UNL     1      43.289 -13.274   4.066  1.00  0.00    -0.325 OA
HETATM   32  C   UNL     1      43.416 -12.421   3.018  1.00  0.00     0.142 A 
HETATM   33  C   UNL     1      42.946 -11.174   3.353  1.00  0.00     0.027 A 
HETATM   34  C   UNL     1      42.506 -11.265   4.697  1.00  0.00     0.036 A 
ENDBRANCH  29  30
ENDBRANCH  26  29
ENDBRANCH  24  25
ENDBRANCH  23  24
ENDBRANCH   4  23
TORSDOF 7
ENDMDL
MODEL 2
REMARK VINA RESULT:      -8.3      1.245      1.521
REMARK  7 active torsions:
REMARK  status: ('A' for Active; 'I' for Inactive)
REMARK    1  A    between atoms: C_3  and  C_4 
REMARK       I    between atoms: C_4  and  N_5 
REMARK    2  A    between atoms: N_5  and  C_6 
REMARK    3  A    between atoms: C_17  and  S_18 
REMARK    4  A    between atoms: S_18  and  C_19 
REMARK    5  A    between atoms: C_19  and  C_20 
REMARK       I    between atoms: C_20  and  N_21 
REMARK    6  A    between atoms: N_21  and  C_22 
REMARK    7  A    between atoms: C_22  and  C_23 
ROOT
HETATM    1  C   UNL     1      43.460 -20.501   2.600  1.00  0.00     0.001 A 
HETATM    2  C   UNL     1      43.090 -19.223   2.186  1.00  0.00     0.018 A 
HETATM    3  C   UNL     1      43.297 -18.120   3.032  1.00  0.00     0.049 A 
HETATM    4  C   UNL     1      43.875 -18.295   4.305  1.00  0.00     0.016 A 
HETATM    5  C   UNL     1      44.225 -19.592   4.707  1.00  0.00     0.019 A 
HETATM    6  C   UNL     1      44.026 -20.686   3.859  1.00  0.00     0.001 A 
ENDROOT
BRANCH   3   7
HETATM    7  C   UNL     1      42.871 -16.783   2.548  1.00  0.00     0.257 C 
HETATM    8  N   UNL     1      41.501 -16.583   2.577  1.00  0.00    -0.323 N 
HETATM    9  H   UNL     1      40.930 -17.349   2.911  1.00  0.00     0.169 HD
HETATM   10  O   UNL     1      43.720 -16.008   2.129  1.00  0.00    -0.267 OA
BRANCH   8  11
HETATM   11  C   UNL     1      40.801 -15.455   2.094  1.00  0.00     0.037 A 
HETATM   12  C   UNL     1      40.497 -15.259   0.741  1.00  0.00     0.061 A 
HETATM   13  C   UNL     1      39.779 -14.132   0.416  1.00  0.00     0.065 A 
HETATM   14  C   UNL     1      39.368 -13.205   1.368  1.00  0.00     0.063 A 
HETATM   15  N   UNL     1      39.331 -13.700  -0.827  1.00  0.00    -0.306 N 
HETATM   16  N   UNL     1      38.665 -12.200   0.712  1.00  0.00    -0.307 N 
HETATM   17  C   UNL     1      39.658 -13.356   2.700  1.00  0.00     0.034 A 
HETATM   18  C   UNL     1      38.631 -12.497  -0.660  1.00  0.00     0.325 A 
HETATM   19  H   UNL     1      38.234 -11.387   1.118  1.00  0.00     0.170 HD
HETATM   20  O   UNL     1      38.094 -11.837  -1.531  1.00  0.00    -0.247 OA
HETATM   21  C   UNL     1      40.385 -14.499   3.058  1.00  0.00     0.032 A 
HETATM   22  H   UNL     1      39.470 -14.161  -1.712  1.00  0.00     0.170 HD
ENDBRANCH   8  11
ENDBRANCH   3   7
BRANCH   4  23
HETATM   23  S   UNL     1      44.185 -16.982   5.486  1.00  0.00    -0.120 SA
BRANCH  23  24
HETATM   24  C   UNL     1      42.484 -16.604   6.019  1.00  0.00     0.182 C 
BRANCH  24  25
HETATM   25  C   UNL     1      42.217 -15.109   6.034  1.00  0.00     0.227 C 
HETATM   26  N   UNL     1      43.107 -14.332   5.332  1.00  0.00    -0.354 N 
HETATM   27  H   UNL     1      43.770 -14.773   4.692  1.00  0.00     0.162 HD
HETATM   28  O   UNL     1      41.315 -14.626   6.718  1.00  0.00    -0.273 OA
BRANCH  26  29
HETATM   29  C   UNL     1      42.931 -12.902   5.253  1.00  0.00     0.187 C 
BRANCH  29  30
HETATM   30  C   UNL     1      43.919 -12.196   6.108  1.00  0.00     0.070 A 
HETATM   31  O   UNL     1      44.953 -11.561   5.482  1.00  0.00    -0.325 OA
HETATM   32  C   UNL     1      45.703 -10.970   6.446  1.00  0.00     0.142 A 
HETATM   33  C   UNL     1      45.162 -11.205   7.688  1.00  0.00     0.027 A 
HETATM   34  C   UNL     1      44.009 -11.998   7.472  1.00  0.00     0.036 A 
ENDBRANCH  29  30
ENDBRANCH  26  29
ENDBRANCH  24  25
ENDBRANCH  23  24
ENDBRANCH   4  23
TORSDOF 7
ENDMDL
MODEL 3
REMARK VINA RESULT:      -8.1      1.918      2.351
REMARK  7 active torsions:
REMARK  status: ('A' for Active; 'I' for Inactive)
REMARK    1  A    between atoms: C_3  and  C_4 
REMARK       I    between atoms: C_4  and  N_5 
REMARK    2  A    between atoms: N_5  and  C_6 
REMARK    3  A    between atoms: C_17  and  S_18 
REMARK    4  A    between atoms: S_18  and  C_19 
REMARK    5  A    between atoms: C_19  and  C_20 
REMARK       I    between atoms: C_20  and  N_21 
REMARK    6  A    between atoms: N_21  and  C_22 
REMARK    7  A    between atoms: C_22  and  C_23 
ROOT
HETATM    1  C   UNL     1      43.738 -19.180   2.828  1.00  0.00     0.001 A 
HETATM    2  C   UNL     1      42.747 -18.346   2.315  1.00  0.00     0.018 A 
HETATM    3  C   UNL     1      42.476 -17.111   2.929  1.00  0.00     0.049 A 
HETATM    4  C   UNL     1      43.197 -16.706   4.069  1.00  0.00     0.016 A 
HETATM    5  C   UNL     1      44.180 -17.569   4.578  1.00  0.00     0.019 A 
HETATM    6  C   UNL     1      44.453 -18.792   3.959  1.00  0.00     0.001 A 
ENDROOT
BRANCH   3   7
HETATM    7  C   UNL     1      41.399 -16.269   2.350  1.00  0.00     0.257 C 
HETATM    8  N   UNL     1      41.829 -15.411   1.352  1.00  0.00    -0.323 N 
HETATM    9  H   UNL     1      42.814 -15.431   1.119  1.00  0.00     0.169 HD
HETATM   10  O   UNL     1      40.269 -16.354   2.812  1.00  0.00    -0.267 OA
BRANCH   8  11
HETATM   11  C   UNL     1      41.057 -14.431   0.689  1.00  0.00     0.037 A 
HETATM   12  C   UNL     1      40.000 -14.738  -0.176  1.00  0.00     0.061 A 
HETATM   13  C   UNL     1      39.312 -13.683  -0.726  1.00  0.00     0.065 A 
HETATM   14  C   UNL     1      39.635 -12.356  -0.460  1.00  0.00     0.063 A 
HETATM   15  N   UNL     1      38.224 -13.693  -1.592  1.00  0.00    -0.306 N 
HETATM   16  N   UNL     1      38.747 -11.549  -1.161  1.00  0.00    -0.307 N 
HETATM   17  C   UNL     1      40.672 -12.016   0.372  1.00  0.00     0.034 A 
HETATM   18  C   UNL     1      37.857 -12.370  -1.871  1.00  0.00     0.325 A 
HETATM   19  H   UNL     1      38.713 -10.543  -1.177  1.00  0.00     0.170 HD
HETATM   20  O   UNL     1      36.944 -12.001  -2.587  1.00  0.00    -0.247 OA
HETATM   21  C   UNL     1      41.387 -13.074   0.949  1.00  0.00     0.032 A 
HETATM   22  H   UNL     1      37.758 -14.506  -1.964  1.00  0.00     0.170 HD
ENDBRANCH   8  11
ENDBRANCH   3   7
BRANCH   4  23
HETATM   23  S   UNL     1      42.949 -15.168   4.955  1.00  0.00    -0.120 SA
BRANCH  23  24
HETATM   24  C   UNL     1      41.395 -15.536   5.832  1.00  0.00     0.182 C 
BRANCH  24  25
HETATM   25  C   UNL     1      40.391 -14.404   5.699  1.00  0.00     0.227 C 
HETATM   26  N   UNL     1      40.327 -13.798   4.467  1.00  0.00    -0.354 N 
HETATM   27  H   UNL     1      40.790 -14.230   3.665  1.00  0.00     0.162 HD
HETATM   28  O   UNL     1      39.749 -14.000   6.668  1.00  0.00    -0.273 OA
BRANCH  26  29
HETATM   29  C   UNL     1      39.387 -12.733   4.220  1.00  0.00     0.187 C 
BRANCH  29  30
HETATM   30  C   UNL     1      40.086 -11.435   4.042  1.00  0.00     0.070 A 
HETATM   31  O   UNL     1      41.451 -11.443   4.088  1.00  0.00    -0.325 OA
HETATM   32  C   UNL     1      41.868 -10.169   3.876  1.00  0.00     0.142 A 
HETATM   33  C   UNL     1      40.790  -9.337   3.684  1.00  0.00     0.027 A 
HETATM   34  C   UNL     1      39.637 -10.153   3.790  1.00  0.00     0.036 A 
ENDBRANCH  29  30
ENDBRANCH  26  29
ENDBRANCH  24  25
ENDBRANCH  23  24
ENDBRANCH   4  23
TORSDOF 7
ENDMDL
MODEL 4
REMARK VINA RESULT:      -8.1      2.706      3.309
REMARK  7 active torsions:
REMARK  status: ('A' for Active; 'I' for Inactive)
REMARK    1  A    between atoms: C_3  and  C_4 
REMARK       I    between atoms: C_4  and  N_5 
REMARK    2  A    between atoms: N_5  and  C_6 
REMARK    3  A    between atoms: C_17  and  S_18 
REMARK    4  A    between atoms: S_18  and  C_19 
REMARK    5  A    between atoms: C_19  and  C_20 
REMARK       I    between atoms: C_20  and  N_21 
REMARK    6  A    between atoms: N_21  and  C_22 
REMARK    7  A    between atoms: C_22  and  C_23 
ROOT
HETATM    1  C   UNL     1      43.949 -18.593   2.839  1.00  0.00     0.001 A 
HETATM    2  C   UNL     1      42.944 -17.787   2.309  1.00  0.00     0.018 A 
HETATM    3  C   UNL     1      42.323 -16.815   3.111  1.00  0.00     0.049 A 
HETATM    4  C   UNL     1      42.705 -16.647   4.456  1.00  0.00     0.016 A 
HETATM    5  C   UNL     1      43.709 -17.480   4.974  1.00  0.00     0.019 A 
HETATM    6  C   UNL     1      44.331 -18.440   4.170  1.00  0.00     0.001 A 
ENDROOT
BRANCH   3   7
HETATM    7  C   UNL     1      41.247 -15.994   2.501  1.00  0.00     0.257 C 
HETATM    8  N   UNL     1      41.647 -15.280   1.384  1.00  0.00    -0.323 N 
HETATM    9  H   UNL     1      42.613 -15.375   1.097  1.00  0.00     0.169 HD
HETATM   10  O   UNL     1      40.146 -15.970   3.035  1.00  0.00    -0.267 OA
BRANCH   8  11
HETATM   11  C   UNL     1      40.875 -14.347   0.656  1.00  0.00     0.037 A 
HETATM   12  C   UNL     1      39.859 -14.716  -0.235  1.00  0.00     0.061 A 
HETATM   13  C   UNL     1      39.165 -13.702  -0.850  1.00  0.00     0.065 A 
HETATM   14  C   UNL     1      39.443 -12.357  -0.624  1.00  0.00     0.063 A 
HETATM   15  N   UNL     1      38.111 -13.775  -1.754  1.00  0.00    -0.306 N 
HETATM   16  N   UNL     1      38.562 -11.602  -1.388  1.00  0.00    -0.307 N 
HETATM   17  C   UNL     1      40.439 -11.957   0.231  1.00  0.00     0.034 A 
HETATM   18  C   UNL     1      37.721 -12.474  -2.098  1.00  0.00     0.325 A 
HETATM   19  H   UNL     1      38.502 -10.599  -1.444  1.00  0.00     0.170 HD
HETATM   20  O   UNL     1      36.825 -12.157  -2.860  1.00  0.00    -0.247 OA
HETATM   21  C   UNL     1      41.159 -12.973   0.875  1.00  0.00     0.032 A 
HETATM   22  H   UNL     1      37.681 -14.614  -2.111  1.00  0.00     0.170 HD
ENDBRANCH   8  11
ENDBRANCH   3   7
BRANCH   4  23
HETATM   23  S   UNL     1      41.993 -15.457   5.592  1.00  0.00    -0.120 SA
BRANCH  23  24
HETATM   24  C   UNL     1      43.502 -14.790   6.366  1.00  0.00     0.182 C 
BRANCH  24  25
HETATM   25  C   UNL     1      43.619 -13.288   6.171  1.00  0.00     0.227 C 
HETATM   26  N   UNL     1      44.707 -12.688   6.758  1.00  0.00    -0.354 N 
HETATM   27  H   UNL     1      45.469 -13.263   7.121  1.00  0.00     0.162 HD
HETATM   28  O   UNL     1      42.736 -12.646   5.604  1.00  0.00    -0.273 OA
BRANCH  26  29
HETATM   29  C   UNL     1      44.933 -11.271   6.610  1.00  0.00     0.187 C 
BRANCH  29  30
HETATM   30  C   UNL     1      45.018 -10.604   7.934  1.00  0.00     0.070 A 
HETATM   31  O   UNL     1      44.264 -11.121   8.949  1.00  0.00    -0.325 OA
HETATM   32  C   UNL     1      44.519 -10.378  10.056  1.00  0.00     0.142 A 
HETATM   33  C   UNL     1      45.435  -9.393   9.774  1.00  0.00     0.027 A 
HETATM   34  C   UNL     1      45.759  -9.537   8.403  1.00  0.00     0.036 A 
ENDBRANCH  29  30
ENDBRANCH  26  29
ENDBRANCH  24  25
ENDBRANCH  23  24
ENDBRANCH   4  23
TORSDOF 7
ENDMDL
MODEL 5
REMARK VINA RESULT:      -7.8      2.800      6.508
REMARK  7 active torsions:
REMARK  status: ('A' for Active; 'I' for Inactive)
REMARK    1  A    between atoms: C_3  and  C_4 
REMARK       I    between atoms: C_4  and  N_5 
REMARK    2  A    between atoms: N_5  and  C_6 
REMARK    3  A    between atoms: C_17  and  S_18 
REMARK    4  A    between atoms: S_18  and  C_19 
REMARK    5  A    between atoms: C_19  and  C_20 
REMARK       I    between atoms: C_20  and  N_21 
REMARK    6  A    between atoms: N_21  and  C_22 
REMARK    7  A    between atoms: C_22  and  C_23 
ROOT
HETATM    1  C   UNL     1      39.480 -14.170  -2.294  1.00  0.00     0.001 A 
HETATM    2  C   UNL     1      39.796 -14.817  -1.102  1.00  0.00     0.018 A 
HETATM    3  C   UNL     1      40.345 -14.094  -0.029  1.00  0.00     0.049 A 
HETATM    4  C   UNL     1      40.585 -12.711  -0.149  1.00  0.00     0.016 A 
HETATM    5  C   UNL     1      40.274 -12.082  -1.364  1.00  0.00     0.019 A 
HETATM    6  C   UNL     1      39.719 -12.804  -2.425  1.00  0.00     0.001 A 
ENDROOT
BRANCH   3   7
HETATM    7  C   UNL     1      40.678 -14.836   1.212  1.00  0.00     0.257 C 
HETATM    8  N   UNL     1      41.979 -15.306   1.258  1.00  0.00    -0.323 N 
HETATM    9  H   UNL     1      42.568 -15.112   0.457  1.00  0.00     0.169 HD
HETATM   10  O   UNL     1      39.801 -15.014   2.047  1.00  0.00    -0.267 OA
BRANCH   8  11
HETATM   11  C   UNL     1      42.550 -16.121   2.261  1.00  0.00     0.037 A 
HETATM   12  C   UNL     1      42.747 -17.499   2.113  1.00  0.00     0.061 A 
HETATM   13  C   UNL     1      43.346 -18.163   3.158  1.00  0.00     0.065 A 
HETATM   14  C   UNL     1      43.740 -17.520   4.328  1.00  0.00     0.063 A 
HETATM   15  N   UNL     1      43.675 -19.508   3.277  1.00  0.00    -0.306 N 
HETATM   16  N   UNL     1      44.312 -18.468   5.167  1.00  0.00    -0.307 N 
HETATM   17  C   UNL     1      43.551 -16.174   4.514  1.00  0.00     0.034 A 
HETATM   18  C   UNL     1      44.282 -19.716   4.524  1.00  0.00     0.325 A 
HETATM   19  H   UNL     1      44.700 -18.323   6.084  1.00  0.00     0.170 HD
HETATM   20  O   UNL     1      44.704 -20.769   4.964  1.00  0.00    -0.247 OA
HETATM   21  C   UNL     1      42.947 -15.473   3.461  1.00  0.00     0.032 A 
HETATM   22  H   UNL     1      43.518 -20.230   2.591  1.00  0.00     0.170 HD
ENDBRANCH   8  11
ENDBRANCH   3   7
BRANCH   4  23
HETATM   23  S   UNL     1      41.288 -11.670   1.131  1.00  0.00    -0.120 SA
BRANCH  23  24
HETATM   24  C   UNL     1      39.779 -11.188   2.033  1.00  0.00     0.182 C 
BRANCH  24  25
HETATM   25  C   UNL     1      39.856 -11.567   3.502  1.00  0.00     0.227 C 
HETATM   26  N   UNL     1      40.790 -12.520   3.830  1.00  0.00    -0.354 N 
HETATM   27  H   UNL     1      41.502 -12.788   3.148  1.00  0.00     0.162 HD
HETATM   28  O   UNL     1      39.059 -11.113   4.323  1.00  0.00    -0.273 OA
BRANCH  26  29
HETATM   29  C   UNL     1      40.970 -12.932   5.200  1.00  0.00     0.187 C 
BRANCH  29  30
HETATM   30  C   UNL     1      42.329 -12.584   5.687  1.00  0.00     0.070 A 
HETATM   31  O   UNL     1      42.870 -11.406   5.257  1.00  0.00    -0.325 OA
HETATM   32  C   UNL     1      44.088 -11.286   5.844  1.00  0.00     0.142 A 
HETATM   33  C   UNL     1      44.339 -12.366   6.656  1.00  0.00     0.027 A 
HETATM   34  C   UNL     1      43.204 -13.207   6.557  1.00  0.00     0.036 A 
ENDBRANCH  29  30
ENDBRANCH  26  29
ENDBRANCH  24  25
ENDBRANCH  23  24
ENDBRANCH   4  23
TORSDOF 7
ENDMDL
MODEL 6
REMARK VINA RESULT:      -7.7      2.801      6.736
REMARK  7 active torsions:
REMARK  status: ('A' for Active; 'I' for Inactive)
REMARK    1  A    between atoms: C_3  and  C_4 
REMARK       I    between atoms: C_4  and  N_5 
REMARK    2  A    between atoms: N_5  and  C_6 
REMARK    3  A    between atoms: C_17  and  S_18 
REMARK    4  A    between atoms: S_18  and  C_19 
REMARK    5  A    between atoms: C_19  and  C_20 
REMARK       I    between atoms: C_20  and  N_21 
REMARK    6  A    between atoms: N_21  and  C_22 
REMARK    7  A    between atoms: C_22  and  C_23 
ROOT
HETATM    1  C   UNL     1      44.321 -18.696   3.857  1.00  0.00     0.001 A 
HETATM    2  C   UNL     1      44.053 -17.651   4.737  1.00  0.00     0.018 A 
HETATM    3  C   UNL     1      43.022 -16.738   4.455  1.00  0.00     0.049 A 
HETATM    4  C   UNL     1      42.254 -16.867   3.282  1.00  0.00     0.016 A 
HETATM    5  C   UNL     1      42.552 -17.918   2.402  1.00  0.00     0.019 A 
HETATM    6  C   UNL     1      43.572 -18.829   2.690  1.00  0.00     0.001 A 
ENDROOT
BRANCH   3   7
HETATM    7  C   UNL     1      42.789 -15.633   5.420  1.00  0.00     0.257 C 
HETATM    8  N   UNL     1      43.285 -14.409   5.006  1.00  0.00    -0.323 N 
HETATM    9  H   UNL     1      43.755 -14.380   4.110  1.00  0.00     0.169 HD
HETATM   10  O   UNL     1      42.244 -15.885   6.486  1.00  0.00    -0.267 OA
BRANCH   8  11
HETATM   11  C   UNL     1      43.296 -13.207   5.748  1.00  0.00     0.037 A 
HETATM   12  C   UNL     1      44.370 -12.809   6.554  1.00  0.00     0.061 A 
HETATM   13  C   UNL     1      44.260 -11.597   7.193  1.00  0.00     0.065 A 
HETATM   14  C   UNL     1      43.138 -10.783   7.070  1.00  0.00     0.063 A 
HETATM   15  N   UNL     1      45.166 -10.955   8.030  1.00  0.00    -0.306 N 
HETATM   16  N   UNL     1      43.351  -9.639   7.831  1.00  0.00    -0.307 N 
HETATM   17  C   UNL     1      42.061 -11.145   6.301  1.00  0.00     0.034 A 
HETATM   18  C   UNL     1      44.616  -9.730   8.435  1.00  0.00     0.325 A 
HETATM   19  H   UNL     1      42.732  -8.855   7.947  1.00  0.00     0.170 HD
HETATM   20  O   UNL     1      45.132  -8.903   9.164  1.00  0.00    -0.247 OA
HETATM   21  C   UNL     1      42.151 -12.375   5.635  1.00  0.00     0.032 A 
HETATM   22  H   UNL     1      46.073 -11.292   8.308  1.00  0.00     0.170 HD
ENDBRANCH   8  11
ENDBRANCH   3   7
BRANCH   4  23
HETATM   23  S   UNL     1      40.921 -15.772   2.794  1.00  0.00    -0.120 SA
BRANCH  23  24
HETATM   24  C   UNL     1      41.628 -15.040   1.282  1.00  0.00     0.182 C 
BRANCH  24  25
HETATM   25  C   UNL     1      40.756 -13.922   0.736  1.00  0.00     0.227 C 
HETATM   26  N   UNL     1      41.112 -13.427  -0.495  1.00  0.00    -0.354 N 
HETATM   27  H   UNL     1      41.795 -13.929  -1.065  1.00  0.00     0.162 HD
HETATM   28  O   UNL     1      39.848 -13.432   1.408  1.00  0.00    -0.273 OA
BRANCH  26  29
HETATM   29  C   UNL     1      40.335 -12.386  -1.121  1.00  0.00     0.187 C 
BRANCH  29  30
HETATM   30  C   UNL     1      39.224 -12.960  -1.923  1.00  0.00     0.070 A 
HETATM   31  O   UNL     1      39.512 -14.023  -2.730  1.00  0.00    -0.325 OA
HETATM   32  C   UNL     1      38.356 -14.392  -3.336  1.00  0.00     0.142 A 
HETATM   33  C   UNL     1      37.319 -13.589  -2.924  1.00  0.00     0.027 A 
HETATM   34  C   UNL     1      37.877 -12.662  -2.010  1.00  0.00     0.036 A 
ENDBRANCH  29  30
ENDBRANCH  26  29
ENDBRANCH  24  25
ENDBRANCH  23  24
ENDBRANCH   4  23
TORSDOF 7
ENDMDL
MODEL 7
REMARK VINA RESULT:      -7.6      3.655      7.164
REMARK  7 active torsions:
REMARK  status: ('A' for Active; 'I' for Inactive)
REMARK    1  A    between atoms: C_3  and  C_4 
REMARK       I    between atoms: C_4  and  N_5 
REMARK    2  A    between atoms: N_5  and  C_6 
REMARK    3  A    between atoms: C_17  and  S_18 
REMARK    4  A    between atoms: S_18  and  C_19 
REMARK    5  A    between atoms: C_19  and  C_20 
REMARK       I    between atoms: C_20  and  N_21 
REMARK    6  A    between atoms: N_21  and  C_22 
REMARK    7  A    between atoms: C_22  and  C_23 
ROOT
HETATM    1  C   UNL     1      39.670 -11.078   2.171  1.00  0.00     0.001 A 
HETATM    2  C   UNL     1      40.008 -12.357   2.609  1.00  0.00     0.018 A 
HETATM    3  C   UNL     1      40.754 -12.525   3.788  1.00  0.00     0.049 A 
HETATM    4  C   UNL     1      41.172 -11.407   4.535  1.00  0.00     0.016 A 
HETATM    5  C   UNL     1      40.834 -10.128   4.067  1.00  0.00     0.019 A 
HETATM    6  C   UNL     1      40.084  -9.965   2.899  1.00  0.00     0.001 A 
ENDROOT
BRANCH   3   7
HETATM    7  C   UNL     1      41.100 -13.909   4.201  1.00  0.00     0.257 C 
HETATM    8  N   UNL     1      42.190 -14.442   3.534  1.00  0.00    -0.323 N 
HETATM    9  H   UNL     1      42.637 -13.856   2.839  1.00  0.00     0.169 HD
HETATM   10  O   UNL     1      40.395 -14.473   5.027  1.00  0.00    -0.267 OA
BRANCH   8  11
HETATM   11  C   UNL     1      42.689 -15.758   3.645  1.00  0.00     0.037 A 
HETATM   12  C   UNL     1      42.497 -16.740   2.665  1.00  0.00     0.061 A 
HETATM   13  C   UNL     1      43.069 -17.970   2.889  1.00  0.00     0.065 A 
HETATM   14  C   UNL     1      43.804 -18.259   4.035  1.00  0.00     0.063 A 
HETATM   15  N   UNL     1      43.055 -19.109   2.091  1.00  0.00    -0.306 N 
HETATM   16  N   UNL     1      44.243 -19.574   3.944  1.00  0.00    -0.307 N 
HETATM   17  C   UNL     1      44.002 -17.327   5.023  1.00  0.00     0.034 A 
HETATM   18  C   UNL     1      43.785 -20.118   2.733  1.00  0.00     0.325 A 
HETATM   19  H   UNL     1      44.801 -20.083   4.609  1.00  0.00     0.170 HD
HETATM   20  O   UNL     1      43.988 -21.246   2.322  1.00  0.00    -0.247 OA
HETATM   21  C   UNL     1      43.433 -16.063   4.816  1.00  0.00     0.032 A 
HETATM   22  H   UNL     1      42.605 -19.211   1.195  1.00  0.00     0.170 HD
ENDBRANCH   8  11
ENDBRANCH   3   7
BRANCH   4  23
HETATM   23  S   UNL     1      42.134 -11.476   6.046  1.00  0.00    -0.120 SA
BRANCH  23  24
HETATM   24  C   UNL     1      43.824 -11.372   5.370  1.00  0.00     0.182 C 
BRANCH  24  25
HETATM   25  C   UNL     1      44.859 -11.183   6.466  1.00  0.00     0.227 C 
HETATM   26  N   UNL     1      44.405 -10.611   7.630  1.00  0.00    -0.354 N 
HETATM   27  H   UNL     1      43.401 -10.515   7.790  1.00  0.00     0.162 HD
HETATM   28  O   UNL     1      46.047 -11.441   6.275  1.00  0.00    -0.273 OA
BRANCH  26  29
HETATM   29  C   UNL     1      45.296 -10.414   8.747  1.00  0.00     0.187 C 
BRANCH  29  30
HETATM   30  C   UNL     1      44.535 -10.128   9.990  1.00  0.00     0.070 A 
HETATM   31  O   UNL     1      44.095 -11.196  10.719  1.00  0.00    -0.325 OA
HETATM   32  C   UNL     1      43.459 -10.701  11.811  1.00  0.00     0.142 A 
HETATM   33  C   UNL     1      43.490  -9.327  11.804  1.00  0.00     0.027 A 
HETATM   34  C   UNL     1      44.186  -8.954  10.629  1.00  0.00     0.036 A 
ENDBRANCH  29  30
ENDBRANCH  26  29
ENDBRANCH  24  25
ENDBRANCH  23  24
ENDBRANCH   4  23
TORSDOF 7
ENDMDL
MODEL 8
REMARK VINA RESULT:      -7.5      2.731      3.515
REMARK  7 active torsions:
REMARK  status: ('A' for Active; 'I' for Inactive)
REMARK    1  A    between atoms: C_3  and  C_4 
REMARK       I    between atoms: C_4  and  N_5 
REMARK    2  A    between atoms: N_5  and  C_6 
REMARK    3  A    between atoms: C_17  and  S_18 
REMARK    4  A    between atoms: S_18  and  C_19 
REMARK    5  A    between atoms: C_19  and  C_20 
REMARK       I    between atoms: C_20  and  N_21 
REMARK    6  A    between atoms: N_21  and  C_22 
REMARK    7  A    between atoms: C_22  and  C_23 
ROOT
HETATM    1  C   UNL     1      44.022 -18.611   3.428  1.00  0.00     0.001 A 
HETATM    2  C   UNL     1      43.577 -17.574   2.611  1.00  0.00     0.018 A 
HETATM    3  C   UNL     1      43.010 -16.421   3.182  1.00  0.00     0.049 A 
HETATM    4  C   UNL     1      42.883 -16.303   4.579  1.00  0.00     0.016 A 
HETATM    5  C   UNL     1      43.324 -17.367   5.381  1.00  0.00     0.019 A 
HETATM    6  C   UNL     1      43.896 -18.508   4.811  1.00  0.00     0.001 A 
ENDROOT
BRANCH   3   7
HETATM    7  C   UNL     1      42.537 -15.353   2.265  1.00  0.00     0.257 C 
HETATM    8  N   UNL     1      41.160 -15.281   2.144  1.00  0.00    -0.323 N 
HETATM    9  H   UNL     1      40.615 -15.952   2.673  1.00  0.00     0.169 HD
HETATM   10  O   UNL     1      43.365 -14.675   1.670  1.00  0.00    -0.267 OA
BRANCH   8  11
HETATM   11  C   UNL     1      40.429 -14.436   1.279  1.00  0.00     0.037 A 
HETATM   12  C   UNL     1      39.950 -13.176   1.657  1.00  0.00     0.061 A 
HETATM   13  C   UNL     1      39.284 -12.446   0.702  1.00  0.00     0.065 A 
HETATM   14  C   UNL     1      39.073 -12.917  -0.590  1.00  0.00     0.063 A 
HETATM   15  N   UNL     1      38.724 -11.176   0.793  1.00  0.00    -0.306 N 
HETATM   16  N   UNL     1      38.383 -11.938  -1.296  1.00  0.00    -0.307 N 
HETATM   17  C   UNL     1      39.516 -14.150  -0.994  1.00  0.00     0.034 A 
HETATM   18  C   UNL     1      38.159 -10.843  -0.446  1.00  0.00     0.325 A 
HETATM   19  H   UNL     1      38.083 -11.970  -2.256  1.00  0.00     0.170 HD
HETATM   20  O   UNL     1      37.590  -9.806  -0.734  1.00  0.00    -0.247 OA
HETATM   21  C   UNL     1      40.203 -14.914  -0.039  1.00  0.00     0.032 A 
HETATM   22  H   UNL     1      38.718 -10.577   1.603  1.00  0.00     0.170 HD
ENDBRANCH   8  11
ENDBRANCH   3   7
BRANCH   4  23
HETATM   23  S   UNL     1      42.173 -14.898   5.437  1.00  0.00    -0.120 SA
BRANCH  23  24
HETATM   24  C   UNL     1      43.613 -14.335   6.403  1.00  0.00     0.182 C 
BRANCH  24  25
HETATM   25  C   UNL     1      43.667 -12.821   6.503  1.00  0.00     0.227 C 
HETATM   26  N   UNL     1      44.852 -12.289   6.951  1.00  0.00    -0.354 N 
HETATM   27  H   UNL     1      45.682 -12.881   7.012  1.00  0.00     0.162 HD
HETATM   28  O   UNL     1      42.672 -12.129   6.287  1.00  0.00    -0.273 OA
BRANCH  26  29
HETATM   29  C   UNL     1      45.024 -10.861   7.054  1.00  0.00     0.187 C 
BRANCH  29  30
HETATM   30  C   UNL     1      44.946 -10.416   8.469  1.00  0.00     0.070 A 
HETATM   31  O   UNL     1      44.078 -11.076   9.290  1.00  0.00    -0.325 OA
HETATM   32  C   UNL     1      44.195 -10.525  10.525  1.00  0.00     0.142 A 
HETATM   33  C   UNL     1      45.136  -9.522  10.516  1.00  0.00     0.027 A 
HETATM   34  C   UNL     1      45.623  -9.450   9.188  1.00  0.00     0.036 A 
ENDBRANCH  29  30
ENDBRANCH  26  29
ENDBRANCH  24  25
ENDBRANCH  23  24
ENDBRANCH   4  23
TORSDOF 7
ENDMDL
MODEL 9
REMARK VINA RESULT:      -7.3      2.923      5.446
REMARK  7 active torsions:
REMARK  status: ('A' for Active; 'I' for Inactive)
REMARK    1  A    between atoms: C_3  and  C_4 
REMARK       I    between atoms: C_4  and  N_5 
REMARK    2  A    between atoms: N_5  and  C_6 
REMARK    3  A    between atoms: C_17  and  S_18 
REMARK    4  A    between atoms: S_18  and  C_19 
REMARK    5  A    between atoms: C_19  and  C_20 
REMARK       I    between atoms: C_20  and  N_21 
REMARK    6  A    between atoms: N_21  and  C_22 
REMARK    7  A    between atoms: C_22  and  C_23 
ROOT
HETATM    1  C   UNL     1      45.106 -11.457   6.509  1.00  0.00     0.001 A 
HETATM    2  C   UNL     1      44.531 -11.699   5.264  1.00  0.00     0.018 A 
HETATM    3  C   UNL     1      43.263 -11.175   4.957  1.00  0.00     0.049 A 
HETATM    4  C   UNL     1      42.562 -10.403   5.904  1.00  0.00     0.016 A 
HETATM    5  C   UNL     1      43.154 -10.184   7.157  1.00  0.00     0.019 A 
HETATM    6  C   UNL     1      44.418 -10.700   7.454  1.00  0.00     0.001 A 
ENDROOT
BRANCH   3   7
HETATM    7  C   UNL     1      42.690 -11.477   3.622  1.00  0.00     0.257 C 
HETATM    8  N   UNL     1      41.817 -12.551   3.612  1.00  0.00    -0.323 N 
HETATM    9  H   UNL     1      41.658 -13.024   4.493  1.00  0.00     0.169 HD
HETATM   10  O   UNL     1      43.054 -10.816   2.659  1.00  0.00    -0.267 OA
BRANCH   8  11
HETATM   11  C   UNL     1      41.196 -13.127   2.481  1.00  0.00     0.037 A 
HETATM   12  C   UNL     1      40.279 -12.443   1.674  1.00  0.00     0.061 A 
HETATM   13  C   UNL     1      39.779 -13.116   0.584  1.00  0.00     0.065 A 
HETATM   14  C   UNL     1      40.144 -14.422   0.277  1.00  0.00     0.063 A 
HETATM   15  N   UNL     1      38.879 -12.683  -0.384  1.00  0.00    -0.306 N 
HETATM   16  N   UNL     1      39.470 -14.796  -0.880  1.00  0.00    -0.307 N 
HETATM   17  C   UNL     1      41.030 -15.129   1.050  1.00  0.00     0.034 A 
HETATM   18  C   UNL     1      38.677 -13.718  -1.307  1.00  0.00     0.325 A 
HETATM   19  H   UNL     1      39.521 -15.677  -1.364  1.00  0.00     0.170 HD
HETATM   20  O   UNL     1      37.959 -13.690  -2.290  1.00  0.00    -0.247 OA
HETATM   21  C   UNL     1      41.557 -14.464   2.166  1.00  0.00     0.032 A 
HETATM   22  H   UNL     1      38.438 -11.778  -0.435  1.00  0.00     0.170 HD
ENDBRANCH   8  11
ENDBRANCH   3   7
BRANCH   4  23
HETATM   23  S   UNL     1      40.939  -9.683   5.651  1.00  0.00    -0.120 SA
BRANCH  23  24
HETATM   24  C   UNL     1      39.930 -10.749   6.731  1.00  0.00     0.182 C 
BRANCH  24  25
HETATM   25  C   UNL     1      39.665 -12.104   6.098  1.00  0.00     0.227 C 
HETATM   26  N   UNL     1      40.241 -13.183   6.723  1.00  0.00    -0.354 N 
HETATM   27  H   UNL     1      40.645 -13.074   7.654  1.00  0.00     0.162 HD
HETATM   28  O   UNL     1      39.051 -12.205   5.036  1.00  0.00    -0.273 OA
BRANCH  26  29
HETATM   29  C   UNL     1      40.029 -14.520   6.224  1.00  0.00     0.187 C 
BRANCH  29  30
HETATM   30  C   UNL     1      41.315 -15.156   5.839  1.00  0.00     0.070 A 
HETATM   31  O   UNL     1      42.459 -14.438   6.044  1.00  0.00    -0.325 OA
HETATM   32  C   UNL     1      43.497 -15.218   5.650  1.00  0.00     0.142 A 
HETATM   33  C   UNL     1      43.042 -16.435   5.202  1.00  0.00     0.027 A 
HETATM   34  C   UNL     1      41.631 -16.398   5.323  1.00  0.00     0.036 A 
ENDBRANCH  29  30
ENDBRANCH  26  29
ENDBRANCH  24  25
ENDBRANCH  23  24
ENDBRANCH   4  23
TORSDOF 7
ENDMDL
MODEL 10
REMARK VINA RESULT:      -7.3      2.769      6.718
REMARK  7 active torsions:
REMARK  status: ('A' for Active; 'I' for Inactive)
REMARK    1  A    between atoms: C_3  and  C_4 
REMARK       I    between atoms: C_4  and  N_5 
REMARK    2  A    between atoms: N_5  and  C_6 
REMARK    3  A    between atoms: C_17  and  S_18 
REMARK    4  A    between atoms: S_18  and  C_19 
REMARK    5  A    between atoms: C_19  and  C_20 
REMARK       I    between atoms: C_20  and  N_21 
REMARK    6  A    between atoms: N_21  and  C_22 
REMARK    7  A    between atoms: C_22  and  C_23 
ROOT
HETATM    1  C   UNL     1      39.294 -10.949   6.700  1.00  0.00     0.001 A 
HETATM    2  C   UNL     1      39.823 -12.238   6.693  1.00  0.00     0.018 A 
HETATM    3  C   UNL     1      39.952 -12.941   5.482  1.00  0.00     0.049 A 
HETATM    4  C   UNL     1      39.546 -12.354   4.268  1.00  0.00     0.016 A 
HETATM    5  C   UNL     1      39.002 -11.061   4.301  1.00  0.00     0.019 A 
HETATM    6  C   UNL     1      38.884 -10.362   5.506  1.00  0.00     0.001 A 
ENDROOT
BRANCH   3   7
HETATM    7  C   UNL     1      40.506 -14.317   5.533  1.00  0.00     0.257 C 
HETATM    8  N   UNL     1      41.597 -14.518   4.704  1.00  0.00    -0.323 N 
HETATM    9  H   UNL     1      41.904 -13.729   4.148  1.00  0.00     0.169 HD
HETATM   10  O   UNL     1      39.952 -15.152   6.236  1.00  0.00    -0.267 OA
BRANCH   8  11
HETATM   11  C   UNL     1      42.269 -15.738   4.471  1.00  0.00     0.037 A 
HETATM   12  C   UNL     1      42.020 -16.555   3.362  1.00  0.00     0.061 A 
HETATM   13  C   UNL     1      42.774 -17.699   3.243  1.00  0.00     0.065 A 
HETATM   14  C   UNL     1      43.743 -18.058   4.175  1.00  0.00     0.063 A 
HETATM   15  N   UNL     1      42.753 -18.671   2.250  1.00  0.00    -0.306 N 
HETATM   16  N   UNL     1      44.319 -19.252   3.756  1.00  0.00    -0.307 N 
HETATM   17  C   UNL     1      44.006 -17.291   5.281  1.00  0.00     0.034 A 
HETATM   18  C   UNL     1      43.712 -19.647   2.553  1.00  0.00     0.325 A 
HETATM   19  H   UNL     1      45.052 -19.772   4.208  1.00  0.00     0.170 HD
HETATM   20  O   UNL     1      43.974 -20.641   1.901  1.00  0.00    -0.247 OA
HETATM   21  C   UNL     1      43.254 -16.116   5.423  1.00  0.00     0.032 A 
HETATM   22  H   UNL     1      42.158 -18.688   1.436  1.00  0.00     0.170 HD
ENDBRANCH   8  11
ENDBRANCH   3   7
BRANCH   4  23
HETATM   23  S   UNL     1      39.644 -13.138   2.659  1.00  0.00    -0.120 SA
BRANCH  23  24
HETATM   24  C   UNL     1      40.901 -12.091   1.855  1.00  0.00     0.182 C 
BRANCH  24  25
HETATM   25  C   UNL     1      42.301 -12.409   2.353  1.00  0.00     0.227 C 
HETATM   26  N   UNL     1      42.900 -11.441   3.123  1.00  0.00    -0.354 N 
HETATM   27  H   UNL     1      42.344 -10.663   3.483  1.00  0.00     0.162 HD
HETATM   28  O   UNL     1      42.889 -13.431   2.001  1.00  0.00    -0.273 OA
BRANCH  26  29
HETATM   29  C   UNL     1      44.215 -11.651   3.675  1.00  0.00     0.187 C 
BRANCH  29  30
HETATM   30  C   UNL     1      44.202 -11.509   5.153  1.00  0.00     0.070 A 
HETATM   31  O   UNL     1      45.406 -11.364   5.783  1.00  0.00    -0.325 OA
HETATM   32  C   UNL     1      45.150 -11.225   7.108  1.00  0.00     0.142 A 
HETATM   33  C   UNL     1      43.797 -11.268   7.344  1.00  0.00     0.027 A 
HETATM   34  C   UNL     1      43.182 -11.451   6.082  1.00  0.00     0.036 A 
ENDBRANCH  29  30
ENDBRANCH  26  29
ENDBRANCH  24  25
ENDBRANCH  23  24
ENDBRANCH   4  23
TORSDOF 7
ENDMDL
