MODEL 1
REMARK VINA RESULT:      -8.5      0.000      0.000
REMARK  7 active torsions:
REMARK  status: ('A' for Active; 'I' for Inactive)
REMARK    1  A    between atoms: N_3  and  C_4 
REMARK    2  A    between atoms: C_7  and  O_8 
REMARK    3  A    between atoms: C_14  and  C_15 
REMARK    4  A    between atoms: C_15  and  N_16 
REMARK       I    between atoms: N_16  and  C_17 
REMARK       I    between atoms: C_17  and  N_18 
REMARK    5  A    between atoms: N_18  and  C_19 
REMARK    6  A    between atoms: C_19  and  C_20 
REMARK    7  A    between atoms: C_20  and  C_21 
ROOT
HETATM    1  C   UNL     1      43.575 -14.638   1.582  1.00  0.00     0.068 C 
HETATM    2  C   UNL     1      42.560 -13.984   2.457  1.00  0.00     0.014 A 
HETATM    3  N   UNL     1      41.316 -13.524   2.031  1.00  0.00    -0.319 N 
HETATM    4  C   UNL     1      40.631 -13.047   3.150  1.00  0.00     0.021 A 
HETATM    5  C   UNL     1      39.311 -12.346   3.082  1.00  0.00     0.069 C 
HETATM    6  C   UNL     1      41.414 -13.263   4.278  1.00  0.00    -0.016 A 
HETATM    7  C   UNL     1      42.631 -13.824   3.827  1.00  0.00     0.035 A 
ENDROOT
BRANCH   6   8
HETATM    8  C   UNL     1      41.072 -12.945   5.694  1.00  0.00     0.165 C 
BRANCH   8   9
HETATM    9  N   UNL     1      40.267 -14.016   6.232  1.00  0.00    -0.339 N 
HETATM   10  C   UNL     1      40.678 -15.278   6.513  1.00  0.00     0.316 C 
HETATM   11  N   UNL     1      42.029 -15.470   6.527  1.00  0.00    -0.343 N 
HETATM   12  O   UNL     1      39.858 -16.167   6.713  1.00  0.00    -0.248 OA
HETATM   13  H   UNL     1      42.554 -14.677   6.864  1.00  0.00     0.164 HD
HETATM   14  H   UNL     1      39.262 -13.933   6.157  1.00  0.00     0.164 HD
BRANCH  11  15
HETATM   15  C   UNL     1      42.573 -16.765   6.896  1.00  0.00     0.129 C 
BRANCH  15  16
HETATM   16  C   UNL     1      43.907 -17.058   6.204  1.00  0.00     0.058 C 
BRANCH  16  17
HETATM   17  C   UNL     1      43.776 -17.935   4.978  1.00  0.00    -0.057 A 
HETATM   18  C   UNL     1      44.081 -19.302   5.037  1.00  0.00     0.007 A 
HETATM   19  C   UNL     1      43.975 -20.101   3.898  1.00  0.00     0.001 A 
HETATM   20  C   UNL     1      43.557 -19.545   2.690  1.00  0.00     0.000 A 
HETATM   21  C   UNL     1      43.241 -18.190   2.622  1.00  0.00     0.001 A 
HETATM   22  C   UNL     1      43.350 -17.388   3.760  1.00  0.00     0.007 A 
ENDBRANCH  16  17
ENDBRANCH  15  16
ENDBRANCH  11  15
ENDBRANCH   8   9
ENDBRANCH   6   8
BRANCH   3  23
HETATM   23  C   UNL     1      40.822 -13.555   0.693  1.00  0.00     0.039 A 
HETATM   24  C   UNL     1      40.066 -14.647   0.251  1.00  0.00     0.033 A 
HETATM   25  C   UNL     1      39.587 -14.677  -1.061  1.00  0.00     0.039 A 
HETATM   26  C   UNL     1      39.849 -13.626  -1.943  1.00  0.00     0.068 A 
HETATM   27  C   UNL     1      40.603 -12.539  -1.501  1.00  0.00     0.039 A 
HETATM   28  C   UNL     1      41.090 -12.503  -0.188  1.00  0.00     0.033 A 
BRANCH  26  29
HETATM   29  O   UNL     1      39.319 -13.786  -3.193  1.00  0.00    -0.356 OA
HETATM   30  C   UNL     1      38.362 -14.825  -3.358  1.00  0.00     0.210 C 
ENDBRANCH  26  29
ENDBRANCH   3  23
TORSDOF 7
ENDMDL
MODEL 2
REMARK VINA RESULT:      -7.9      3.790      6.960
REMARK  7 active torsions:
REMARK  status: ('A' for Active; 'I' for Inactive)
REMARK    1  A    between atoms: N_3  and  C_4 
REMARK    2  A    between atoms: C_7  and  O_8 
REMARK    3  A    between atoms: C_14  and  C_15 
REMARK    4  A    between atoms: C_15  and  N_16 
REMARK       I    between atoms: N_16  and  C_17 
REMARK       I    between atoms: C_17  and  N_18 
REMARK    5  A    between atoms: N_18  and  C_19 
REMARK    6  A    between atoms: C_19  and  C_20 
REMARK    7  A    between atoms: C_20  and  C_21 
ROOT
HETATM    1  C   UNL     1      40.122 -15.995   6.463  1.00  0.00     0.068 C 
HETATM    2  C   UNL     1      40.690 -14.769   5.833  1.00  0.00     0.014 A 
HETATM    3  N   UNL     1      41.638 -14.761   4.812  1.00  0.00    -0.319 N 
HETATM    4  C   UNL     1      41.859 -13.432   4.444  1.00  0.00     0.021 A 
HETATM    5  C   UNL     1      42.909 -13.001   3.471  1.00  0.00     0.069 C 
HETATM    6  C   UNL     1      41.011 -12.617   5.186  1.00  0.00    -0.016 A 
HETATM    7  C   UNL     1      40.305 -13.464   6.072  1.00  0.00     0.035 A 
ENDROOT
BRANCH   6   8
HETATM    8  C   UNL     1      40.876 -11.134   5.103  1.00  0.00     0.165 C 
BRANCH   8   9
HETATM    9  N   UNL     1      39.828 -10.710   6.001  1.00  0.00    -0.339 N 
HETATM   10  C   UNL     1      39.984 -10.047   7.175  1.00  0.00     0.316 C 
HETATM   11  N   UNL     1      41.221  -9.513   7.392  1.00  0.00    -0.343 N 
HETATM   12  O   UNL     1      39.057  -9.974   7.973  1.00  0.00    -0.248 OA
HETATM   13  H   UNL     1      41.680  -9.183   6.556  1.00  0.00     0.164 HD
HETATM   14  H   UNL     1      38.924 -11.154   5.913  1.00  0.00     0.164 HD
BRANCH  11  15
HETATM   15  C   UNL     1      41.467  -8.716   8.581  1.00  0.00     0.129 C 
BRANCH  15  16
HETATM   16  C   UNL     1      42.504  -9.355   9.509  1.00  0.00     0.058 C 
BRANCH  16  17
HETATM   17  C   UNL     1      43.798  -9.721   8.814  1.00  0.00    -0.057 A 
HETATM   18  C   UNL     1      43.953 -10.969   8.196  1.00  0.00     0.007 A 
HETATM   19  C   UNL     1      45.156 -11.306   7.573  1.00  0.00     0.001 A 
HETATM   20  C   UNL     1      46.213 -10.397   7.555  1.00  0.00     0.000 A 
HETATM   21  C   UNL     1      46.066  -9.149   8.157  1.00  0.00     0.001 A 
HETATM   22  C   UNL     1      44.865  -8.812   8.784  1.00  0.00     0.007 A 
ENDBRANCH  16  17
ENDBRANCH  15  16
ENDBRANCH  11  15
ENDBRANCH   8   9
ENDBRANCH   6   8
BRANCH   3  23
HETATM   23  C   UNL     1      42.256 -15.907   4.231  1.00  0.00     0.039 A 
HETATM   24  C   UNL     1      43.351 -16.508   4.863  1.00  0.00     0.033 A 
HETATM   25  C   UNL     1      43.958 -17.628   4.289  1.00  0.00     0.039 A 
HETATM   26  C   UNL     1      43.484 -18.164   3.090  1.00  0.00     0.068 A 
HETATM   27  C   UNL     1      42.392 -17.564   2.461  1.00  0.00     0.039 A 
HETATM   28  C   UNL     1      41.781 -16.439   3.028  1.00  0.00     0.033 A 
BRANCH  26  29
HETATM   29  O   UNL     1      44.170 -19.259   2.645  1.00  0.00    -0.356 OA
HETATM   30  C   UNL     1      43.407 -20.292   2.034  1.00  0.00     0.210 C 
ENDBRANCH  26  29
ENDBRANCH   3  23
TORSDOF 7
ENDMDL
MODEL 3
REMARK VINA RESULT:      -7.8      6.823     10.518
REMARK  7 active torsions:
REMARK  status: ('A' for Active; 'I' for Inactive)
REMARK    1  A    between atoms: N_3  and  C_4 
REMARK    2  A    between atoms: C_7  and  O_8 
REMARK    3  A    between atoms: C_14  and  C_15 
REMARK    4  A    between atoms: C_15  and  N_16 
REMARK       I    between atoms: N_16  and  C_17 
REMARK       I    between atoms: C_17  and  N_18 
REMARK    5  A    between atoms: N_18  and  C_19 
REMARK    6  A    between atoms: C_19  and  C_20 
REMARK    7  A    between atoms: C_20  and  C_21 
ROOT
HETATM    1  C   UNL     1      42.872  -6.300   9.792  1.00  0.00     0.068 C 
HETATM    2  C   UNL     1      43.337  -7.715   9.854  1.00  0.00     0.014 A 
HETATM    3  N   UNL     1      43.166  -8.565  10.944  1.00  0.00    -0.319 N 
HETATM    4  C   UNL     1      43.667  -9.820  10.591  1.00  0.00     0.021 A 
HETATM    5  C   UNL     1      43.786 -10.968  11.543  1.00  0.00     0.069 C 
HETATM    6  C   UNL     1      44.094  -9.774   9.269  1.00  0.00    -0.016 A 
HETATM    7  C   UNL     1      43.908  -8.443   8.828  1.00  0.00     0.035 A 
ENDROOT
BRANCH   6   8
HETATM    8  C   UNL     1      44.667 -10.888   8.460  1.00  0.00     0.165 C 
BRANCH   8   9
HETATM    9  N   UNL     1      44.046 -10.886   7.157  1.00  0.00    -0.339 N 
HETATM   10  C   UNL     1      43.551 -11.960   6.491  1.00  0.00     0.316 C 
HETATM   11  N   UNL     1      43.398 -13.095   7.233  1.00  0.00    -0.343 N 
HETATM   12  O   UNL     1      43.292 -11.883   5.296  1.00  0.00    -0.248 OA
HETATM   13  H   UNL     1      43.138 -12.928   8.194  1.00  0.00     0.164 HD
HETATM   14  H   UNL     1      44.216 -10.090   6.556  1.00  0.00     0.164 HD
BRANCH  11  15
HETATM   15  C   UNL     1      42.800 -14.276   6.635  1.00  0.00     0.129 C 
BRANCH  15  16
HETATM   16  C   UNL     1      43.781 -15.449   6.552  1.00  0.00     0.058 C 
BRANCH  16  17
HETATM   17  C   UNL     1      43.666 -16.247   5.272  1.00  0.00    -0.057 A 
HETATM   18  C   UNL     1      43.041 -15.705   4.141  1.00  0.00     0.007 A 
HETATM   19  C   UNL     1      42.924 -16.454   2.969  1.00  0.00     0.001 A 
HETATM   20  C   UNL     1      43.436 -17.749   2.912  1.00  0.00     0.000 A 
HETATM   21  C   UNL     1      44.069 -18.295   4.027  1.00  0.00     0.001 A 
HETATM   22  C   UNL     1      44.184 -17.549   5.201  1.00  0.00     0.007 A 
ENDBRANCH  16  17
ENDBRANCH  15  16
ENDBRANCH  11  15
ENDBRANCH   8   9
ENDBRANCH   6   8
BRANCH   3  23
HETATM   23  C   UNL     1      42.565  -8.222  12.191  1.00  0.00     0.039 A 
HETATM   24  C   UNL     1      43.346  -7.680  13.219  1.00  0.00     0.033 A 
HETATM   25  C   UNL     1      42.756  -7.348  14.441  1.00  0.00     0.039 A 
HETATM   26  C   UNL     1      41.390  -7.547  14.654  1.00  0.00     0.068 A 
HETATM   27  C   UNL     1      40.613  -8.086  13.629  1.00  0.00     0.039 A 
HETATM   28  C   UNL     1      41.198  -8.425  12.402  1.00  0.00     0.033 A 
BRANCH  26  29
HETATM   29  O   UNL     1      40.947  -7.176  15.893  1.00  0.00    -0.356 OA
HETATM   30  C   UNL     1      41.850  -6.435  16.704  1.00  0.00     0.210 C 
ENDBRANCH  26  29
ENDBRANCH   3  23
TORSDOF 7
ENDMDL
MODEL 4
REMARK VINA RESULT:      -7.7      2.264      7.092
REMARK  7 active torsions:
REMARK  status: ('A' for Active; 'I' for Inactive)
REMARK    1  A    between atoms: N_3  and  C_4 
REMARK    2  A    between atoms: C_7  and  O_8 
REMARK    3  A    between atoms: C_14  and  C_15 
REMARK    4  A    between atoms: C_15  and  N_16 
REMARK       I    between atoms: N_16  and  C_17 
REMARK       I    between atoms: C_17  and  N_18 
REMARK    5  A    between atoms: N_18  and  C_19 
REMARK    6  A    between atoms: C_19  and  C_20 
REMARK    7  A    between atoms: C_20  and  C_21 
ROOT
HETATM    1  C   UNL     1      40.503 -15.670   6.433  1.00  0.00     0.068 C 
HETATM    2  C   UNL     1      41.041 -14.573   5.578  1.00  0.00     0.014 A 
HETATM    3  N   UNL     1      41.948 -14.745   4.535  1.00  0.00    -0.319 N 
HETATM    4  C   UNL     1      42.149 -13.500   3.934  1.00  0.00     0.021 A 
HETATM    5  C   UNL     1      43.158 -13.247   2.860  1.00  0.00     0.069 C 
HETATM    6  C   UNL     1      41.327 -12.567   4.556  1.00  0.00    -0.016 A 
HETATM    7  C   UNL     1      40.660 -13.245   5.603  1.00  0.00     0.035 A 
ENDROOT
BRANCH   6   8
HETATM    8  C   UNL     1      41.183 -11.120   4.223  1.00  0.00     0.165 C 
BRANCH   8   9
HETATM    9  N   UNL     1      39.921 -10.920   3.552  1.00  0.00    -0.339 N 
HETATM   10  C   UNL     1      39.727 -10.751   2.220  1.00  0.00     0.316 C 
HETATM   11  N   UNL     1      40.794 -11.054   1.425  1.00  0.00    -0.343 N 
HETATM   12  O   UNL     1      38.656 -10.329   1.798  1.00  0.00    -0.248 OA
HETATM   13  H   UNL     1      41.356 -11.821   1.765  1.00  0.00     0.164 HD
HETATM   14  H   UNL     1      39.135 -10.613   4.110  1.00  0.00     0.164 HD
BRANCH  11  15
HETATM   15  C   UNL     1      40.664 -10.984  -0.019  1.00  0.00     0.129 C 
BRANCH  15  16
HETATM   16  C   UNL     1      40.961 -12.323  -0.699  1.00  0.00     0.058 C 
BRANCH  16  17
HETATM   17  C   UNL     1      39.794 -12.877  -1.486  1.00  0.00    -0.057 A 
HETATM   18  C   UNL     1      38.504 -12.356  -1.321  1.00  0.00     0.007 A 
HETATM   19  C   UNL     1      37.429 -12.885  -2.038  1.00  0.00     0.001 A 
HETATM   20  C   UNL     1      37.633 -13.935  -2.932  1.00  0.00     0.000 A 
HETATM   21  C   UNL     1      38.913 -14.454  -3.112  1.00  0.00     0.001 A 
HETATM   22  C   UNL     1      39.989 -13.929  -2.394  1.00  0.00     0.007 A 
ENDBRANCH  16  17
ENDBRANCH  15  16
ENDBRANCH  11  15
ENDBRANCH   8   9
ENDBRANCH   6   8
BRANCH   3  23
HETATM   23  C   UNL     1      42.547 -15.976   4.138  1.00  0.00     0.039 A 
HETATM   24  C   UNL     1      42.081 -16.648   3.002  1.00  0.00     0.033 A 
HETATM   25  C   UNL     1      42.667 -17.856   2.617  1.00  0.00     0.039 A 
HETATM   26  C   UNL     1      43.721 -18.406   3.350  1.00  0.00     0.068 A 
HETATM   27  C   UNL     1      44.184 -17.736   4.482  1.00  0.00     0.039 A 
HETATM   28  C   UNL     1      43.600 -16.526   4.877  1.00  0.00     0.033 A 
BRANCH  26  29
HETATM   29  O   UNL     1      44.199 -19.589   2.860  1.00  0.00    -0.356 OA
HETATM   30  C   UNL     1      43.362 -20.296   1.954  1.00  0.00     0.210 C 
ENDBRANCH  26  29
ENDBRANCH   3  23
TORSDOF 7
ENDMDL
MODEL 5
REMARK VINA RESULT:      -7.7      4.742      7.929
REMARK  7 active torsions:
REMARK  status: ('A' for Active; 'I' for Inactive)
REMARK    1  A    between atoms: N_3  and  C_4 
REMARK    2  A    between atoms: C_7  and  O_8 
REMARK    3  A    between atoms: C_14  and  C_15 
REMARK    4  A    between atoms: C_15  and  N_16 
REMARK       I    between atoms: N_16  and  C_17 
REMARK       I    between atoms: C_17  and  N_18 
REMARK    5  A    between atoms: N_18  and  C_19 
REMARK    6  A    between atoms: C_19  and  C_20 
REMARK    7  A    between atoms: C_20  and  C_21 
ROOT
HETATM    1  C   UNL     1      44.708 -12.022   6.473  1.00  0.00     0.068 C 
HETATM    2  C   UNL     1      43.244 -11.780   6.326  1.00  0.00     0.014 A 
HETATM    3  N   UNL     1      42.331 -12.694   5.805  1.00  0.00    -0.319 N 
HETATM    4  C   UNL     1      41.058 -12.129   5.902  1.00  0.00     0.021 A 
HETATM    5  C   UNL     1      39.825 -12.749   5.324  1.00  0.00     0.069 C 
HETATM    6  C   UNL     1      41.164 -10.896   6.535  1.00  0.00    -0.016 A 
HETATM    7  C   UNL     1      42.541 -10.676   6.770  1.00  0.00     0.035 A 
ENDROOT
BRANCH   6   8
HETATM    8  C   UNL     1      40.060  -9.956   6.882  1.00  0.00     0.165 C 
BRANCH   8   9
HETATM    9  N   UNL     1      39.750 -10.097   8.285  1.00  0.00    -0.339 N 
HETATM   10  C   UNL     1      40.169  -9.293   9.295  1.00  0.00     0.316 C 
HETATM   11  N   UNL     1      40.720  -8.105   8.913  1.00  0.00    -0.343 N 
HETATM   12  O   UNL     1      40.065  -9.657  10.461  1.00  0.00    -0.248 OA
HETATM   13  H   UNL     1      40.305  -7.706   8.084  1.00  0.00     0.164 HD
HETATM   14  H   UNL     1      39.419 -10.998   8.605  1.00  0.00     0.164 HD
BRANCH  11  15
HETATM   15  C   UNL     1      41.126  -7.139   9.919  1.00  0.00     0.129 C 
BRANCH  15  16
HETATM   16  C   UNL     1      42.573  -6.672   9.730  1.00  0.00     0.058 C 
BRANCH  16  17
HETATM   17  C   UNL     1      43.582  -7.799   9.752  1.00  0.00    -0.057 A 
HETATM   18  C   UNL     1      44.440  -8.016   8.665  1.00  0.00     0.007 A 
HETATM   19  C   UNL     1      45.356  -9.068   8.685  1.00  0.00     0.001 A 
HETATM   20  C   UNL     1      45.431  -9.910   9.794  1.00  0.00     0.000 A 
HETATM   21  C   UNL     1      44.591  -9.697  10.885  1.00  0.00     0.001 A 
HETATM   22  C   UNL     1      43.671  -8.647  10.865  1.00  0.00     0.007 A 
ENDBRANCH  16  17
ENDBRANCH  15  16
ENDBRANCH  11  15
ENDBRANCH   8   9
ENDBRANCH   6   8
BRANCH   3  23
HETATM   23  C   UNL     1      42.639 -13.986   5.285  1.00  0.00     0.039 A 
HETATM   24  C   UNL     1      42.835 -14.159   3.911  1.00  0.00     0.033 A 
HETATM   25  C   UNL     1      43.132 -15.427   3.403  1.00  0.00     0.039 A 
HETATM   26  C   UNL     1      43.242 -16.530   4.253  1.00  0.00     0.068 A 
HETATM   27  C   UNL     1      43.047 -16.356   5.623  1.00  0.00     0.039 A 
HETATM   28  C   UNL     1      42.745 -15.089   6.139  1.00  0.00     0.033 A 
BRANCH  26  29
HETATM   29  O   UNL     1      43.538 -17.706   3.623  1.00  0.00    -0.356 OA
HETATM   30  C   UNL     1      43.024 -17.880   2.308  1.00  0.00     0.210 C 
ENDBRANCH  26  29
ENDBRANCH   3  23
TORSDOF 7
ENDMDL
MODEL 6
REMARK VINA RESULT:      -7.6      4.416      7.870
REMARK  7 active torsions:
REMARK  status: ('A' for Active; 'I' for Inactive)
REMARK    1  A    between atoms: N_3  and  C_4 
REMARK    2  A    between atoms: C_7  and  O_8 
REMARK    3  A    between atoms: C_14  and  C_15 
REMARK    4  A    between atoms: C_15  and  N_16 
REMARK       I    between atoms: N_16  and  C_17 
REMARK       I    between atoms: C_17  and  N_18 
REMARK    5  A    between atoms: N_18  and  C_19 
REMARK    6  A    between atoms: C_19  and  C_20 
REMARK    7  A    between atoms: C_20  and  C_21 
ROOT
HETATM    1  C   UNL     1      43.095 -13.284   2.712  1.00  0.00     0.068 C 
HETATM    2  C   UNL     1      42.101 -13.601   3.777  1.00  0.00     0.014 A 
HETATM    3  N   UNL     1      41.852 -14.875   4.284  1.00  0.00    -0.319 N 
HETATM    4  C   UNL     1      40.914 -14.750   5.311  1.00  0.00     0.021 A 
HETATM    5  C   UNL     1      40.289 -15.913   6.014  1.00  0.00     0.069 C 
HETATM    6  C   UNL     1      40.623 -13.402   5.488  1.00  0.00    -0.016 A 
HETATM    7  C   UNL     1      41.351 -12.696   4.502  1.00  0.00     0.035 A 
ENDROOT
BRANCH   6   8
HETATM    8  C   UNL     1      39.703 -12.797   6.494  1.00  0.00     0.165 C 
BRANCH   8   9
HETATM    9  N   UNL     1      39.325 -11.477   6.046  1.00  0.00    -0.339 N 
HETATM   10  C   UNL     1      39.139 -10.379   6.821  1.00  0.00     0.316 C 
HETATM   11  N   UNL     1      39.600 -10.475   8.102  1.00  0.00    -0.343 N 
HETATM   12  O   UNL     1      38.569  -9.392   6.371  1.00  0.00    -0.248 OA
HETATM   13  H   UNL     1      40.438 -11.029   8.198  1.00  0.00     0.164 HD
HETATM   14  H   UNL     1      38.904 -11.394   5.131  1.00  0.00     0.164 HD
BRANCH  11  15
HETATM   15  C   UNL     1      39.522  -9.327   8.988  1.00  0.00     0.129 C 
BRANCH  15  16
HETATM   16  C   UNL     1      39.624  -9.719  10.464  1.00  0.00     0.058 C 
BRANCH  16  17
HETATM   17  C   UNL     1      40.940  -9.339  11.105  1.00  0.00    -0.057 A 
HETATM   18  C   UNL     1      41.240  -9.729  12.417  1.00  0.00     0.007 A 
HETATM   19  C   UNL     1      42.450  -9.359  13.007  1.00  0.00     0.001 A 
HETATM   20  C   UNL     1      43.375  -8.602  12.290  1.00  0.00     0.000 A 
HETATM   21  C   UNL     1      43.092  -8.217  10.981  1.00  0.00     0.001 A 
HETATM   22  C   UNL     1      41.881  -8.583  10.391  1.00  0.00     0.007 A 
ENDBRANCH  16  17
ENDBRANCH  15  16
ENDBRANCH  11  15
ENDBRANCH   8   9
ENDBRANCH   6   8
BRANCH   3  23
HETATM   23  C   UNL     1      42.462 -16.087   3.847  1.00  0.00     0.039 A 
HETATM   24  C   UNL     1      43.522 -16.639   4.574  1.00  0.00     0.033 A 
HETATM   25  C   UNL     1      44.122 -17.825   4.141  1.00  0.00     0.039 A 
HETATM   26  C   UNL     1      43.674 -18.474   2.988  1.00  0.00     0.068 A 
HETATM   27  C   UNL     1      42.617 -17.922   2.264  1.00  0.00     0.039 A 
HETATM   28  C   UNL     1      42.013 -16.733   2.690  1.00  0.00     0.033 A 
BRANCH  26  29
HETATM   29  O   UNL     1      44.349 -19.623   2.683  1.00  0.00    -0.356 OA
HETATM   30  C   UNL     1      43.676 -20.564   1.856  1.00  0.00     0.210 C 
ENDBRANCH  26  29
ENDBRANCH   3  23
TORSDOF 7
ENDMDL
MODEL 7
REMARK VINA RESULT:      -7.5      5.907      8.413
REMARK  7 active torsions:
REMARK  status: ('A' for Active; 'I' for Inactive)
REMARK    1  A    between atoms: N_3  and  C_4 
REMARK    2  A    between atoms: C_7  and  O_8 
REMARK    3  A    between atoms: C_14  and  C_15 
REMARK    4  A    between atoms: C_15  and  N_16 
REMARK       I    between atoms: N_16  and  C_17 
REMARK       I    between atoms: C_17  and  N_18 
REMARK    5  A    between atoms: N_18  and  C_19 
REMARK    6  A    between atoms: C_19  and  C_20 
REMARK    7  A    between atoms: C_20  and  C_21 
ROOT
HETATM    1  C   UNL     1      43.570 -15.264   5.965  1.00  0.00     0.068 C 
HETATM    2  C   UNL     1      43.308 -13.797   5.993  1.00  0.00     0.014 A 
HETATM    3  N   UNL     1      42.534 -13.106   5.064  1.00  0.00    -0.319 N 
HETATM    4  C   UNL     1      42.467 -11.772   5.471  1.00  0.00     0.021 A 
HETATM    5  C   UNL     1      41.836 -10.684   4.661  1.00  0.00     0.069 C 
HETATM    6  C   UNL     1      43.142 -11.640   6.679  1.00  0.00    -0.016 A 
HETATM    7  C   UNL     1      43.689 -12.909   6.981  1.00  0.00     0.035 A 
ENDROOT
BRANCH   6   8
HETATM    8  C   UNL     1      43.300 -10.405   7.501  1.00  0.00     0.165 C 
BRANCH   8   9
HETATM    9  N   UNL     1      44.490 -10.530   8.308  1.00  0.00    -0.339 N 
HETATM   10  C   UNL     1      44.563 -10.480   9.662  1.00  0.00     0.316 C 
HETATM   11  N   UNL     1      43.372 -10.575  10.321  1.00  0.00    -0.343 N 
HETATM   12  O   UNL     1      45.645 -10.333  10.220  1.00  0.00    -0.248 OA
HETATM   13  H   UNL     1      42.698 -11.176   9.869  1.00  0.00     0.164 HD
HETATM   14  H   UNL     1      45.383 -10.381   7.856  1.00  0.00     0.164 HD
BRANCH  11  15
HETATM   15  C   UNL     1      43.349 -10.612  11.773  1.00  0.00     0.129 C 
BRANCH  15  16
HETATM   16  C   UNL     1      42.006 -10.152  12.348  1.00  0.00     0.058 C 
BRANCH  16  17
HETATM   17  C   UNL     1      42.126  -9.003  13.325  1.00  0.00    -0.057 A 
HETATM   18  C   UNL     1      43.162  -8.066  13.210  1.00  0.00     0.007 A 
HETATM   19  C   UNL     1      43.276  -7.020  14.126  1.00  0.00     0.001 A 
HETATM   20  C   UNL     1      42.352  -6.894  15.162  1.00  0.00     0.000 A 
HETATM   21  C   UNL     1      41.312  -7.813  15.281  1.00  0.00     0.001 A 
HETATM   22  C   UNL     1      41.198  -8.863  14.367  1.00  0.00     0.007 A 
ENDBRANCH  16  17
ENDBRANCH  15  16
ENDBRANCH  11  15
ENDBRANCH   8   9
ENDBRANCH   6   8
BRANCH   3  23
HETATM   23  C   UNL     1      41.903 -13.665   3.914  1.00  0.00     0.039 A 
HETATM   24  C   UNL     1      42.578 -13.691   2.688  1.00  0.00     0.033 A 
HETATM   25  C   UNL     1      41.957 -14.235   1.562  1.00  0.00     0.039 A 
HETATM   26  C   UNL     1      40.665 -14.761   1.640  1.00  0.00     0.068 A 
HETATM   27  C   UNL     1      39.994 -14.735   2.863  1.00  0.00     0.039 A 
HETATM   28  C   UNL     1      40.609 -14.188   3.996  1.00  0.00     0.033 A 
BRANCH  26  29
HETATM   29  O   UNL     1      40.182 -15.262   0.464  1.00  0.00    -0.356 OA
HETATM   30  C   UNL     1      39.991 -14.338  -0.599  1.00  0.00     0.210 C 
ENDBRANCH  26  29
ENDBRANCH   3  23
TORSDOF 7
ENDMDL
MODEL 8
REMARK VINA RESULT:      -7.5      5.048      8.491
REMARK  7 active torsions:
REMARK  status: ('A' for Active; 'I' for Inactive)
REMARK    1  A    between atoms: N_3  and  C_4 
REMARK    2  A    between atoms: C_7  and  O_8 
REMARK    3  A    between atoms: C_14  and  C_15 
REMARK    4  A    between atoms: C_15  and  N_16 
REMARK       I    between atoms: N_16  and  C_17 
REMARK       I    between atoms: C_17  and  N_18 
REMARK    5  A    between atoms: N_18  and  C_19 
REMARK    6  A    between atoms: C_19  and  C_20 
REMARK    7  A    between atoms: C_20  and  C_21 
ROOT
HETATM    1  C   UNL     1      40.132 -15.894   6.495  1.00  0.00     0.068 C 
HETATM    2  C   UNL     1      40.817 -14.682   5.959  1.00  0.00     0.014 A 
HETATM    3  N   UNL     1      41.725 -14.679   4.903  1.00  0.00    -0.319 N 
HETATM    4  C   UNL     1      42.086 -13.354   4.654  1.00  0.00     0.021 A 
HETATM    5  C   UNL     1      43.146 -12.948   3.680  1.00  0.00     0.069 C 
HETATM    6  C   UNL     1      41.363 -12.526   5.506  1.00  0.00    -0.016 A 
HETATM    7  C   UNL     1      40.593 -13.373   6.338  1.00  0.00     0.035 A 
ENDROOT
BRANCH   6   8
HETATM    8  C   UNL     1      41.397 -11.037   5.571  1.00  0.00     0.165 C 
BRANCH   8   9
HETATM    9  N   UNL     1      40.189 -10.569   6.208  1.00  0.00    -0.339 N 
HETATM   10  C   UNL     1      40.077 -10.058   7.460  1.00  0.00     0.316 C 
HETATM   11  N   UNL     1      41.251  -9.723   8.068  1.00  0.00    -0.343 N 
HETATM   12  O   UNL     1      38.976  -9.942   7.985  1.00  0.00    -0.248 OA
HETATM   13  H   UNL     1      41.957  -9.373   7.437  1.00  0.00     0.164 HD
HETATM   14  H   UNL     1      39.305 -10.874   5.822  1.00  0.00     0.164 HD
BRANCH  11  15
HETATM   15  C   UNL     1      41.235  -9.094   9.377  1.00  0.00     0.129 C 
BRANCH  15  16
HETATM   16  C   UNL     1      42.642  -8.787   9.896  1.00  0.00     0.058 C 
BRANCH  16  17
HETATM   17  C   UNL     1      42.656  -7.973  11.171  1.00  0.00    -0.057 A 
HETATM   18  C   UNL     1      43.215  -8.490  12.348  1.00  0.00     0.007 A 
HETATM   19  C   UNL     1      43.207  -7.739  13.525  1.00  0.00     0.001 A 
HETATM   20  C   UNL     1      42.648  -6.463  13.536  1.00  0.00     0.000 A 
HETATM   21  C   UNL     1      42.099  -5.934  12.370  1.00  0.00     0.001 A 
HETATM   22  C   UNL     1      42.103  -6.685  11.193  1.00  0.00     0.007 A 
ENDBRANCH  16  17
ENDBRANCH  15  16
ENDBRANCH  11  15
ENDBRANCH   8   9
ENDBRANCH   6   8
BRANCH   3  23
HETATM   23  C   UNL     1      42.187 -15.824   4.189  1.00  0.00     0.039 A 
HETATM   24  C   UNL     1      41.577 -16.191   2.984  1.00  0.00     0.033 A 
HETATM   25  C   UNL     1      42.029 -17.315   2.289  1.00  0.00     0.039 A 
HETATM   26  C   UNL     1      43.088 -18.082   2.779  1.00  0.00     0.068 A 
HETATM   27  C   UNL     1      43.695 -17.716   3.980  1.00  0.00     0.039 A 
HETATM   28  C   UNL     1      43.246 -16.592   4.685  1.00  0.00     0.033 A 
BRANCH  26  29
HETATM   29  O   UNL     1      43.426 -19.151   1.997  1.00  0.00    -0.356 OA
HETATM   30  C   UNL     1      43.673 -20.384   2.663  1.00  0.00     0.210 C 
ENDBRANCH  26  29
ENDBRANCH   3  23
TORSDOF 7
ENDMDL
MODEL 9
REMARK VINA RESULT:      -7.5      2.570      7.777
REMARK  7 active torsions:
REMARK  status: ('A' for Active; 'I' for Inactive)
REMARK    1  A    between atoms: N_3  and  C_4 
REMARK    2  A    between atoms: C_7  and  O_8 
REMARK    3  A    between atoms: C_14  and  C_15 
REMARK    4  A    between atoms: C_15  and  N_16 
REMARK       I    between atoms: N_16  and  C_17 
REMARK       I    between atoms: C_17  and  N_18 
REMARK    5  A    between atoms: N_18  and  C_19 
REMARK    6  A    between atoms: C_19  and  C_20 
REMARK    7  A    between atoms: C_20  and  C_21 
ROOT
HETATM    1  C   UNL     1      39.870 -15.563   0.953  1.00  0.00     0.068 C 
HETATM    2  C   UNL     1      40.645 -14.361   1.374  1.00  0.00     0.014 A 
HETATM    3  N   UNL     1      41.779 -14.384   2.181  1.00  0.00    -0.319 N 
HETATM    4  C   UNL     1      42.256 -13.075   2.286  1.00  0.00     0.021 A 
HETATM    5  C   UNL     1      43.385 -12.669   3.180  1.00  0.00     0.069 C 
HETATM    6  C   UNL     1      41.463 -12.247   1.500  1.00  0.00    -0.016 A 
HETATM    7  C   UNL     1      40.440 -13.060   0.957  1.00  0.00     0.035 A 
ENDROOT
BRANCH   6   8
HETATM    8  C   UNL     1      41.621 -10.781   1.281  1.00  0.00     0.165 C 
BRANCH   8   9
HETATM    9  N   UNL     1      40.334 -10.144   1.435  1.00  0.00    -0.339 N 
HETATM   10  C   UNL     1      39.581  -9.586   0.454  1.00  0.00     0.316 C 
HETATM   11  N   UNL     1      39.961  -9.882  -0.823  1.00  0.00    -0.343 N 
HETATM   12  O   UNL     1      38.643  -8.849   0.736  1.00  0.00    -0.248 OA
HETATM   13  H   UNL     1      40.335 -10.813  -0.936  1.00  0.00     0.164 HD
HETATM   14  H   UNL     1      40.068  -9.841   2.362  1.00  0.00     0.164 HD
BRANCH  11  15
HETATM   15  C   UNL     1      39.173  -9.399  -1.943  1.00  0.00     0.129 C 
BRANCH  15  16
HETATM   16  C   UNL     1      39.352 -10.259  -3.197  1.00  0.00     0.058 C 
BRANCH  16  17
HETATM   17  C   UNL     1      39.275 -11.746  -2.931  1.00  0.00    -0.057 A 
HETATM   18  C   UNL     1      40.433 -12.537  -2.934  1.00  0.00     0.007 A 
HETATM   19  C   UNL     1      40.352 -13.911  -2.705  1.00  0.00     0.001 A 
HETATM   20  C   UNL     1      39.116 -14.509  -2.464  1.00  0.00     0.000 A 
HETATM   21  C   UNL     1      37.960 -13.731  -2.449  1.00  0.00     0.001 A 
HETATM   22  C   UNL     1      38.038 -12.357  -2.681  1.00  0.00     0.007 A 
ENDBRANCH  16  17
ENDBRANCH  15  16
ENDBRANCH  11  15
ENDBRANCH   8   9
ENDBRANCH   6   8
BRANCH   3  23
HETATM   23  C   UNL     1      42.363 -15.541   2.777  1.00  0.00     0.039 A 
HETATM   24  C   UNL     1      43.099 -16.436   1.993  1.00  0.00     0.033 A 
HETATM   25  C   UNL     1      43.666 -17.571   2.579  1.00  0.00     0.039 A 
HETATM   26  C   UNL     1      43.512 -17.826   3.943  1.00  0.00     0.068 A 
HETATM   27  C   UNL     1      42.778 -16.932   4.723  1.00  0.00     0.039 A 
HETATM   28  C   UNL     1      42.204 -15.794   4.144  1.00  0.00     0.033 A 
BRANCH  26  29
HETATM   29  O   UNL     1      44.120 -18.969   4.381  1.00  0.00    -0.356 OA
HETATM   30  C   UNL     1      43.922 -20.142   3.603  1.00  0.00     0.210 C 
ENDBRANCH  26  29
ENDBRANCH   3  23
TORSDOF 7
ENDMDL
MODEL 10
REMARK VINA RESULT:      -7.5      2.525      7.883
REMARK  7 active torsions:
REMARK  status: ('A' for Active; 'I' for Inactive)
REMARK    1  A    between atoms: N_3  and  C_4 
REMARK    2  A    between atoms: C_7  and  O_8 
REMARK    3  A    between atoms: C_14  and  C_15 
REMARK    4  A    between atoms: C_15  and  N_16 
REMARK       I    between atoms: N_16  and  C_17 
REMARK       I    between atoms: C_17  and  N_18 
REMARK    5  A    between atoms: N_18  and  C_19 
REMARK    6  A    between atoms: C_19  and  C_20 
REMARK    7  A    between atoms: C_20  and  C_21 
ROOT
HETATM    1  C   UNL     1      39.829 -15.447   1.024  1.00  0.00     0.068 C 
HETATM    2  C   UNL     1      40.631 -14.268   1.460  1.00  0.00     0.014 A 
HETATM    3  N   UNL     1      41.785 -14.330   2.238  1.00  0.00    -0.319 N 
HETATM    4  C   UNL     1      42.282 -13.032   2.369  1.00  0.00     0.021 A 
HETATM    5  C   UNL     1      43.438 -12.667   3.247  1.00  0.00     0.069 C 
HETATM    6  C   UNL     1      41.482 -12.170   1.627  1.00  0.00    -0.016 A 
HETATM    7  C   UNL     1      40.435 -12.953   1.086  1.00  0.00     0.035 A 
ENDROOT
BRANCH   6   8
HETATM    8  C   UNL     1      41.655 -10.700   1.446  1.00  0.00     0.165 C 
BRANCH   8   9
HETATM    9  N   UNL     1      40.368 -10.110   1.166  1.00  0.00    -0.339 N 
HETATM   10  C   UNL     1      39.971  -9.545  -0.002  1.00  0.00     0.316 C 
HETATM   11  N   UNL     1      40.772  -9.789  -1.079  1.00  0.00    -0.343 N 
HETATM   12  O   UNL     1      38.964  -8.847  -0.042  1.00  0.00    -0.248 OA
HETATM   13  H   UNL     1      41.199 -10.704  -1.075  1.00  0.00     0.164 HD
HETATM   14  H   UNL     1      39.791  -9.843   1.953  1.00  0.00     0.164 HD
BRANCH  11  15
HETATM   15  C   UNL     1      40.392  -9.297  -2.391  1.00  0.00     0.129 C 
BRANCH  15  16
HETATM   16  C   UNL     1      40.441 -10.390  -3.462  1.00  0.00     0.058 C 
BRANCH  16  17
HETATM   17  C   UNL     1      39.850 -11.708  -3.013  1.00  0.00    -0.057 A 
HETATM   18  C   UNL     1      38.502 -11.801  -2.638  1.00  0.00     0.007 A 
HETATM   19  C   UNL     1      37.969 -13.017  -2.208  1.00  0.00     0.001 A 
HETATM   20  C   UNL     1      38.774 -14.154  -2.155  1.00  0.00     0.000 A 
HETATM   21  C   UNL     1      40.112 -14.076  -2.536  1.00  0.00     0.001 A 
HETATM   22  C   UNL     1      40.648 -12.860  -2.963  1.00  0.00     0.007 A 
ENDBRANCH  16  17
ENDBRANCH  15  16
ENDBRANCH  11  15
ENDBRANCH   8   9
ENDBRANCH   6   8
BRANCH   3  23
HETATM   23  C   UNL     1      42.366 -15.511   2.786  1.00  0.00     0.039 A 
HETATM   24  C   UNL     1      42.169 -15.829   4.135  1.00  0.00     0.033 A 
HETATM   25  C   UNL     1      42.743 -16.984   4.670  1.00  0.00     0.039 A 
HETATM   26  C   UNL     1      43.514 -17.835   3.874  1.00  0.00     0.068 A 
HETATM   27  C   UNL     1      43.709 -17.518   2.530  1.00  0.00     0.039 A 
HETATM   28  C   UNL     1      43.140 -16.360   1.987  1.00  0.00     0.033 A 
BRANCH  26  29
HETATM   29  O   UNL     1      44.012 -18.928   4.527  1.00  0.00    -0.356 OA
HETATM   30  C   UNL     1      43.662 -19.075   5.897  1.00  0.00     0.210 C 
ENDBRANCH  26  29
ENDBRANCH   3  23
TORSDOF 7
ENDMDL
