MODEL 1
REMARK VINA RESULT:      -8.9      0.000      0.000
REMARK  5 active torsions:
REMARK  status: ('A' for Active; 'I' for Inactive)
REMARK    1  A    between atoms: C_8  and  C_9 
REMARK    2  A    between atoms: C_13  and  C_14 
REMARK    3  A    between atoms: C_14  and  O_15 
REMARK    4  A    between atoms: O_15  and  C_16 
REMARK    5  A    between atoms: C_27  and  N_28 
ROOT
HETATM    1  C   UNL     1      42.120 -15.208   1.152  1.00  0.00     0.073 C 
HETATM    2  C   UNL     1      41.659 -13.800   1.212  1.00  0.00     0.062 A 
HETATM    3  N   UNL     1      40.833 -13.316   0.269  1.00  0.00    -0.177 NA
HETATM    4  N   UNL     1      40.628 -12.032   0.631  1.00  0.00    -0.256 N 
HETATM    5  H   UNL     1      40.033 -11.449   0.054  1.00  0.00     0.191 HD
HETATM    6  C   UNL     1      41.280 -11.701   1.774  1.00  0.00     0.175 A 
HETATM    7  C   UNL     1      41.958 -12.818   2.185  1.00  0.00     0.035 A 
HETATM    8  C   UNL     1      42.793 -12.790   3.423  1.00  0.00     0.111 A 
HETATM    9  C   UNL     1      42.703 -11.391   4.057  1.00  0.00     0.067 A 
HETATM   10  C   UNL     1      43.459 -11.211   5.363  1.00  0.00     0.020 C 
HETATM   11  N   UNL     1      44.086 -11.063   6.447  1.00  0.00    -0.096 N 
HETATM   12  C   UNL     1      41.981 -10.363   3.538  1.00  0.00     0.139 A 
HETATM   13  O   UNL     1      41.240 -10.505   2.350  1.00  0.00    -0.279 OA
ENDROOT
BRANCH   8  14
HETATM   14  C   UNL     1      42.419 -13.914   4.374  1.00  0.00    -0.003 A 
HETATM   15  S   UNL     1      40.849 -13.960   5.055  1.00  0.00    -0.098 SA
HETATM   16  C   UNL     1      41.154 -15.435   5.861  1.00  0.00    -0.013 A 
HETATM   17  C   UNL     1      40.062 -16.084   6.646  1.00  0.00     0.057 C 
HETATM   18  C   UNL     1      42.459 -15.868   5.683  1.00  0.00    -0.020 A 
HETATM   19  C   UNL     1      43.174 -14.992   4.799  1.00  0.00     0.026 A 
BRANCH  18  20
HETATM   20  C   UNL     1      43.054 -17.102   6.310  1.00  0.00     0.215 C 
BRANCH  20  21
HETATM   21  O   UNL     1      44.189 -17.541   5.564  1.00  0.00    -0.347 OA
BRANCH  21  22
HETATM   22  C   UNL     1      43.969 -18.460   4.575  1.00  0.00     0.069 A 
HETATM   23  C   UNL     1      44.113 -19.846   4.691  1.00  0.00     0.040 A 
HETATM   24  C   UNL     1      43.846 -20.671   3.594  1.00  0.00     0.045 A 
HETATM   25  C   UNL     1      43.442 -20.108   2.389  1.00  0.00     0.116 A 
HETATM   26  F   UNL     1      43.188 -20.904   1.342  1.00  0.00    -0.206 F 
HETATM   27  C   UNL     1      43.296 -18.734   2.258  1.00  0.00     0.045 A 
HETATM   28  C   UNL     1      43.560 -17.911   3.354  1.00  0.00     0.040 A 
ENDBRANCH  21  22
ENDBRANCH  20  21
ENDBRANCH  18  20
ENDBRANCH   8  14
BRANCH  12  29
HETATM   29  N   UNL     1      41.874  -9.105   4.085  1.00  0.00    -0.282 NA
HETATM   30  H   UNL     1      40.927  -8.788   4.280  1.00  0.00     0.126 HD
HETATM   31  H   UNL     1      42.426  -8.418   3.579  1.00  0.00     0.126 HD
ENDBRANCH  12  29
TORSDOF 5
ENDMDL
MODEL 2
REMARK VINA RESULT:      -8.5      4.172      7.601
REMARK  5 active torsions:
REMARK  status: ('A' for Active; 'I' for Inactive)
REMARK    1  A    between atoms: C_8  and  C_9 
REMARK    2  A    between atoms: C_13  and  C_14 
REMARK    3  A    between atoms: C_14  and  O_15 
REMARK    4  A    between atoms: O_15  and  C_16 
REMARK    5  A    between atoms: C_27  and  N_28 
ROOT
HETATM    1  C   UNL     1      43.512 -13.406   6.214  1.00  0.00     0.073 C 
HETATM    2  C   UNL     1      43.462 -14.751   6.838  1.00  0.00     0.062 A 
HETATM    3  N   UNL     1      43.302 -14.876   8.166  1.00  0.00    -0.177 NA
HETATM    4  N   UNL     1      43.305 -16.209   8.378  1.00  0.00    -0.256 N 
HETATM    5  H   UNL     1      43.206 -16.555   9.326  1.00  0.00     0.191 HD
HETATM    6  C   UNL     1      43.444 -16.921   7.232  1.00  0.00     0.175 A 
HETATM    7  C   UNL     1      43.547 -16.015   6.210  1.00  0.00     0.035 A 
HETATM    8  C   UNL     1      43.720 -16.474   4.799  1.00  0.00     0.111 A 
HETATM    9  C   UNL     1      43.732 -18.013   4.770  1.00  0.00     0.067 A 
HETATM   10  C   UNL     1      43.848 -18.643   3.392  1.00  0.00     0.020 C 
HETATM   11  N   UNL     1      43.944 -19.166   2.249  1.00  0.00    -0.096 N 
HETATM   12  C   UNL     1      43.617 -18.797   5.874  1.00  0.00     0.139 A 
HETATM   13  O   UNL     1      43.472 -18.247   7.160  1.00  0.00    -0.279 OA
ENDROOT
BRANCH   8  14
HETATM   14  C   UNL     1      42.681 -15.856   3.879  1.00  0.00    -0.003 A 
HETATM   15  S   UNL     1      41.016 -16.064   4.222  1.00  0.00    -0.098 SA
HETATM   16  C   UNL     1      40.541 -15.086   2.905  1.00  0.00    -0.013 A 
HETATM   17  C   UNL     1      39.091 -14.807   2.682  1.00  0.00     0.057 C 
HETATM   18  C   UNL     1      41.625 -14.654   2.155  1.00  0.00    -0.020 A 
HETATM   19  C   UNL     1      42.860 -15.086   2.745  1.00  0.00     0.026 A 
BRANCH  18  20
HETATM   20  C   UNL     1      41.534 -13.825   0.901  1.00  0.00     0.215 C 
BRANCH  20  21
HETATM   21  O   UNL     1      40.893 -14.563  -0.139  1.00  0.00    -0.347 OA
BRANCH  21  22
HETATM   22  C   UNL     1      39.837 -13.966  -0.769  1.00  0.00     0.069 A 
HETATM   23  C   UNL     1      39.248 -12.748  -0.416  1.00  0.00     0.040 A 
HETATM   24  C   UNL     1      38.172 -12.251  -1.159  1.00  0.00     0.045 A 
HETATM   25  C   UNL     1      37.689 -12.972  -2.244  1.00  0.00     0.116 A 
HETATM   26  F   UNL     1      36.658 -12.490  -2.950  1.00  0.00    -0.206 F 
HETATM   27  C   UNL     1      38.262 -14.183  -2.605  1.00  0.00     0.045 A 
HETATM   28  C   UNL     1      39.337 -14.678  -1.866  1.00  0.00     0.040 A 
ENDBRANCH  21  22
ENDBRANCH  20  21
ENDBRANCH  18  20
ENDBRANCH   8  14
BRANCH  12  29
HETATM   29  N   UNL     1      43.615 -20.173   5.880  1.00  0.00    -0.282 NA
HETATM   30  H   UNL     1      42.874 -20.611   6.423  1.00  0.00     0.126 HD
HETATM   31  H   UNL     1      44.534 -20.557   6.080  1.00  0.00     0.126 HD
ENDBRANCH  12  29
TORSDOF 5
ENDMDL
MODEL 3
REMARK VINA RESULT:      -8.2      3.082      4.686
REMARK  5 active torsions:
REMARK  status: ('A' for Active; 'I' for Inactive)
REMARK    1  A    between atoms: C_8  and  C_9 
REMARK    2  A    between atoms: C_13  and  C_14 
REMARK    3  A    between atoms: C_14  and  O_15 
REMARK    4  A    between atoms: O_15  and  C_16 
REMARK    5  A    between atoms: C_27  and  N_28 
ROOT
HETATM    1  C   UNL     1      39.655  -9.637   5.117  1.00  0.00     0.073 C 
HETATM    2  C   UNL     1      40.010  -9.541   6.554  1.00  0.00     0.062 A 
HETATM    3  N   UNL     1      39.067  -9.260   7.468  1.00  0.00    -0.177 NA
HETATM    4  N   UNL     1      39.733  -9.250   8.643  1.00  0.00    -0.256 N 
HETATM    5  H   UNL     1      39.222  -9.048   9.494  1.00  0.00     0.191 HD
HETATM    6  C   UNL     1      41.053  -9.530   8.498  1.00  0.00     0.175 A 
HETATM    7  C   UNL     1      41.274  -9.727   7.160  1.00  0.00     0.035 A 
HETATM    8  C   UNL     1      42.642 -10.049   6.654  1.00  0.00     0.111 A 
HETATM    9  C   UNL     1      43.614 -10.120   7.845  1.00  0.00     0.067 A 
HETATM   10  C   UNL     1      45.046 -10.494   7.503  1.00  0.00     0.020 C 
HETATM   11  N   UNL     1      46.235 -10.805   7.219  1.00  0.00    -0.096 N 
HETATM   12  C   UNL     1      43.254  -9.902   9.137  1.00  0.00     0.139 A 
HETATM   13  O   UNL     1      41.929  -9.590   9.493  1.00  0.00    -0.279 OA
ENDROOT
BRANCH   8  14
HETATM   14  C   UNL     1      42.639 -11.303   5.797  1.00  0.00    -0.003 A 
HETATM   15  S   UNL     1      43.045 -11.195   4.137  1.00  0.00    -0.098 SA
HETATM   16  C   UNL     1      42.916 -12.883   3.912  1.00  0.00    -0.013 A 
HETATM   17  C   UNL     1      43.233 -13.474   2.577  1.00  0.00     0.057 C 
HETATM   18  C   UNL     1      42.497 -13.533   5.062  1.00  0.00    -0.020 A 
HETATM   19  C   UNL     1      42.365 -12.611   6.154  1.00  0.00     0.026 A 
BRANCH  18  20
HETATM   20  C   UNL     1      42.232 -15.012   5.173  1.00  0.00     0.215 C 
BRANCH  20  21
HETATM   21  O   UNL     1      43.462 -15.734   5.239  1.00  0.00    -0.347 OA
BRANCH  21  22
HETATM   22  C   UNL     1      43.566 -16.862   4.474  1.00  0.00     0.069 A 
HETATM   23  C   UNL     1      44.315 -18.002   4.784  1.00  0.00     0.040 A 
HETATM   24  C   UNL     1      44.325 -19.092   3.907  1.00  0.00     0.045 A 
HETATM   25  C   UNL     1      43.592 -19.037   2.728  1.00  0.00     0.116 A 
HETATM   26  F   UNL     1      43.607 -20.083   1.893  1.00  0.00    -0.206 F 
HETATM   27  C   UNL     1      42.846 -17.912   2.406  1.00  0.00     0.045 A 
HETATM   28  C   UNL     1      42.834 -16.825   3.282  1.00  0.00     0.040 A 
ENDBRANCH  21  22
ENDBRANCH  20  21
ENDBRANCH  18  20
ENDBRANCH   8  14
BRANCH  12  29
HETATM   29  N   UNL     1      44.096  -9.966  10.223  1.00  0.00    -0.282 NA
HETATM   30  H   UNL     1      44.248 -10.895  10.609  1.00  0.00     0.126 HD
HETATM   31  H   UNL     1      43.862  -9.276  10.931  1.00  0.00     0.126 HD
ENDBRANCH  12  29
TORSDOF 5
ENDMDL
MODEL 4
REMARK VINA RESULT:      -8.2      2.605      3.479
REMARK  5 active torsions:
REMARK  status: ('A' for Active; 'I' for Inactive)
REMARK    1  A    between atoms: C_8  and  C_9 
REMARK    2  A    between atoms: C_13  and  C_14 
REMARK    3  A    between atoms: C_14  and  O_15 
REMARK    4  A    between atoms: O_15  and  C_16 
REMARK    5  A    between atoms: C_27  and  N_28 
ROOT
HETATM    1  C   UNL     1      40.104 -14.361  -1.770  1.00  0.00     0.073 C 
HETATM    2  C   UNL     1      39.072 -13.380  -1.356  1.00  0.00     0.062 A 
HETATM    3  N   UNL     1      37.868 -13.369  -1.953  1.00  0.00    -0.177 NA
HETATM    4  N   UNL     1      37.200 -12.369  -1.341  1.00  0.00    -0.256 N 
HETATM    5  H   UNL     1      36.253 -12.160  -1.634  1.00  0.00     0.191 HD
HETATM    6  C   UNL     1      37.934 -11.766  -0.372  1.00  0.00     0.175 A 
HETATM    7  C   UNL     1      39.152 -12.392  -0.347  1.00  0.00     0.035 A 
HETATM    8  C   UNL     1      40.212 -11.959   0.613  1.00  0.00     0.111 A 
HETATM    9  C   UNL     1      39.668 -10.804   1.473  1.00  0.00     0.067 A 
HETATM   10  C   UNL     1      40.611 -10.282   2.543  1.00  0.00     0.020 C 
HETATM   11  N   UNL     1      41.394  -9.849   3.432  1.00  0.00    -0.096 N 
HETATM   12  C   UNL     1      38.422 -10.277   1.341  1.00  0.00     0.139 A 
HETATM   13  O   UNL     1      37.511 -10.761   0.385  1.00  0.00    -0.279 OA
ENDROOT
BRANCH   8  14
HETATM   14  C   UNL     1      40.739 -13.128   1.427  1.00  0.00    -0.003 A 
HETATM   15  S   UNL     1      39.721 -13.884   2.579  1.00  0.00    -0.098 SA
HETATM   16  C   UNL     1      40.901 -15.056   2.970  1.00  0.00    -0.013 A 
HETATM   17  C   UNL     1      40.572 -16.130   3.955  1.00  0.00     0.057 C 
HETATM   18  C   UNL     1      42.092 -14.846   2.292  1.00  0.00    -0.020 A 
HETATM   19  C   UNL     1      41.976 -13.742   1.382  1.00  0.00     0.026 A 
BRANCH  18  20
HETATM   20  C   UNL     1      43.341 -15.672   2.461  1.00  0.00     0.215 C 
BRANCH  20  21
HETATM   21  O   UNL     1      43.141 -16.988   1.945  1.00  0.00    -0.347 OA
BRANCH  21  22
HETATM   22  C   UNL     1      43.452 -18.035   2.767  1.00  0.00     0.069 A 
HETATM   23  C   UNL     1      43.886 -17.942   4.093  1.00  0.00     0.040 A 
HETATM   24  C   UNL     1      44.163 -19.103   4.822  1.00  0.00     0.045 A 
HETATM   25  C   UNL     1      44.008 -20.347   4.223  1.00  0.00     0.116 A 
HETATM   26  F   UNL     1      44.275 -21.456   4.926  1.00  0.00    -0.206 F 
HETATM   27  C   UNL     1      43.579 -20.456   2.908  1.00  0.00     0.045 A 
HETATM   28  C   UNL     1      43.302 -19.297   2.181  1.00  0.00     0.040 A 
ENDBRANCH  21  22
ENDBRANCH  20  21
ENDBRANCH  18  20
ENDBRANCH   8  14
BRANCH  12  29
HETATM   29  N   UNL     1      37.905  -9.252   2.100  1.00  0.00    -0.282 NA
HETATM   30  H   UNL     1      36.981  -8.925   1.828  1.00  0.00     0.126 HD
HETATM   31  H   UNL     1      38.572  -8.496   2.228  1.00  0.00     0.126 HD
ENDBRANCH  12  29
TORSDOF 5
ENDMDL
MODEL 5
REMARK VINA RESULT:      -8.0      3.836      7.581
REMARK  5 active torsions:
REMARK  status: ('A' for Active; 'I' for Inactive)
REMARK    1  A    between atoms: C_8  and  C_9 
REMARK    2  A    between atoms: C_13  and  C_14 
REMARK    3  A    between atoms: C_14  and  O_15 
REMARK    4  A    between atoms: O_15  and  C_16 
REMARK    5  A    between atoms: C_27  and  N_28 
ROOT
HETATM    1  C   UNL     1      43.632 -13.379   6.044  1.00  0.00     0.073 C 
HETATM    2  C   UNL     1      43.488 -14.693   6.717  1.00  0.00     0.062 A 
HETATM    3  N   UNL     1      43.196 -14.756   8.027  1.00  0.00    -0.177 NA
HETATM    4  N   UNL     1      43.143 -16.078   8.295  1.00  0.00    -0.256 N 
HETATM    5  H   UNL     1      42.944 -16.379   9.242  1.00  0.00     0.191 HD
HETATM    6  C   UNL     1      43.375 -16.843   7.199  1.00  0.00     0.175 A 
HETATM    7  C   UNL     1      43.600 -15.986   6.154  1.00  0.00     0.035 A 
HETATM    8  C   UNL     1      43.898 -16.511   4.788  1.00  0.00     0.111 A 
HETATM    9  C   UNL     1      43.873 -18.049   4.825  1.00  0.00     0.067 A 
HETATM   10  C   UNL     1      44.105 -18.743   3.494  1.00  0.00     0.020 C 
HETATM   11  N   UNL     1      44.298 -19.318   2.388  1.00  0.00    -0.096 N 
HETATM   12  C   UNL     1      43.630 -18.781   5.945  1.00  0.00     0.139 A 
HETATM   13  O   UNL     1      43.375 -18.171   7.187  1.00  0.00    -0.279 OA
ENDROOT
BRANCH   8  14
HETATM   14  C   UNL     1      42.970 -15.912   3.745  1.00  0.00    -0.003 A 
HETATM   15  S   UNL     1      41.504 -16.710   3.359  1.00  0.00    -0.098 SA
HETATM   16  C   UNL     1      41.026 -15.478   2.276  1.00  0.00    -0.013 A 
HETATM   17  C   UNL     1      39.696 -15.567   1.602  1.00  0.00     0.057 C 
HETATM   18  C   UNL     1      41.994 -14.495   2.142  1.00  0.00    -0.020 A 
HETATM   19  C   UNL     1      43.104 -14.744   3.017  1.00  0.00     0.026 A 
BRANCH  18  20
HETATM   20  C   UNL     1      41.898 -13.306   1.221  1.00  0.00     0.215 C 
BRANCH  20  21
HETATM   21  O   UNL     1      40.873 -12.417   1.662  1.00  0.00    -0.347 OA
BRANCH  21  22
HETATM   22  C   UNL     1      41.104 -11.718   2.814  1.00  0.00     0.069 A 
HETATM   23  C   UNL     1      42.208 -10.899   3.074  1.00  0.00     0.040 A 
HETATM   24  C   UNL     1      42.313 -10.236   4.300  1.00  0.00     0.045 A 
HETATM   25  C   UNL     1      41.320 -10.396   5.259  1.00  0.00     0.116 A 
HETATM   26  F   UNL     1      41.427  -9.758   6.432  1.00  0.00    -0.206 F 
HETATM   27  C   UNL     1      40.220 -11.206   5.017  1.00  0.00     0.045 A 
HETATM   28  C   UNL     1      40.114 -11.867   3.792  1.00  0.00     0.040 A 
ENDBRANCH  21  22
ENDBRANCH  20  21
ENDBRANCH  18  20
ENDBRANCH   8  14
BRANCH  12  29
HETATM   29  N   UNL     1      43.592 -20.155   6.008  1.00  0.00    -0.282 NA
HETATM   30  H   UNL     1      44.459 -20.608   6.288  1.00  0.00     0.126 HD
HETATM   31  H   UNL     1      43.179 -20.566   5.175  1.00  0.00     0.126 HD
ENDBRANCH  12  29
TORSDOF 5
ENDMDL
MODEL 6
REMARK VINA RESULT:      -7.9      2.126      4.008
REMARK  5 active torsions:
REMARK  status: ('A' for Active; 'I' for Inactive)
REMARK    1  A    between atoms: C_8  and  C_9 
REMARK    2  A    between atoms: C_13  and  C_14 
REMARK    3  A    between atoms: C_14  and  O_15 
REMARK    4  A    between atoms: O_15  and  C_16 
REMARK    5  A    between atoms: C_27  and  N_28 
ROOT
HETATM    1  C   UNL     1      42.759 -14.793   6.917  1.00  0.00     0.073 C 
HETATM    2  C   UNL     1      43.106 -13.360   6.753  1.00  0.00     0.062 A 
HETATM    3  N   UNL     1      44.161 -12.839   7.400  1.00  0.00    -0.177 NA
HETATM    4  N   UNL     1      44.176 -11.543   7.026  1.00  0.00    -0.256 N 
HETATM    5  H   UNL     1      44.893 -10.932   7.402  1.00  0.00     0.191 HD
HETATM    6  C   UNL     1      43.179 -11.238   6.157  1.00  0.00     0.175 A 
HETATM    7  C   UNL     1      42.464 -12.388   5.952  1.00  0.00     0.035 A 
HETATM    8  C   UNL     1      41.280 -12.396   5.042  1.00  0.00     0.111 A 
HETATM    9  C   UNL     1      41.092 -10.987   4.450  1.00  0.00     0.067 A 
HETATM   10  C   UNL     1      39.954 -10.839   3.455  1.00  0.00     0.020 C 
HETATM   11  N   UNL     1      39.009 -10.716   2.629  1.00  0.00    -0.096 N 
HETATM   12  C   UNL     1      41.888  -9.925   4.742  1.00  0.00     0.139 A 
HETATM   13  O   UNL     1      42.973 -10.036   5.631  1.00  0.00    -0.279 OA
ENDROOT
BRANCH   8  14
HETATM   14  C   UNL     1      41.389 -13.487   3.991  1.00  0.00    -0.003 A 
HETATM   15  S   UNL     1      39.966 -14.155   3.312  1.00  0.00    -0.098 SA
HETATM   16  C   UNL     1      40.847 -15.156   2.246  1.00  0.00    -0.013 A 
HETATM   17  C   UNL     1      40.114 -16.013   1.266  1.00  0.00     0.057 C 
HETATM   18  C   UNL     1      42.216 -15.050   2.440  1.00  0.00    -0.020 A 
HETATM   19  C   UNL     1      42.518 -14.062   3.436  1.00  0.00     0.026 A 
BRANCH  18  20
HETATM   20  C   UNL     1      43.259 -15.844   1.698  1.00  0.00     0.215 C 
BRANCH  20  21
HETATM   21  O   UNL     1      42.889 -17.221   1.640  1.00  0.00    -0.347 OA
BRANCH  21  22
HETATM   22  C   UNL     1      43.335 -18.031   2.647  1.00  0.00     0.069 A 
HETATM   23  C   UNL     1      43.736 -17.617   3.922  1.00  0.00     0.040 A 
HETATM   24  C   UNL     1      44.166 -18.561   4.860  1.00  0.00     0.045 A 
HETATM   25  C   UNL     1      44.197 -19.908   4.521  1.00  0.00     0.116 A 
HETATM   26  F   UNL     1      44.610 -20.807   5.424  1.00  0.00    -0.206 F 
HETATM   27  C   UNL     1      43.803 -20.334   3.260  1.00  0.00     0.045 A 
HETATM   28  C   UNL     1      43.373 -19.393   2.324  1.00  0.00     0.040 A 
ENDBRANCH  21  22
ENDBRANCH  20  21
ENDBRANCH  18  20
ENDBRANCH   8  14
BRANCH  12  29
HETATM   29  N   UNL     1      41.752  -8.658   4.223  1.00  0.00    -0.282 NA
HETATM   30  H   UNL     1      41.899  -8.574   3.220  1.00  0.00     0.126 HD
HETATM   31  H   UNL     1      42.270  -7.967   4.759  1.00  0.00     0.126 HD
ENDBRANCH  12  29
TORSDOF 5
ENDMDL
MODEL 7
REMARK VINA RESULT:      -7.9      2.107      2.531
REMARK  5 active torsions:
REMARK  status: ('A' for Active; 'I' for Inactive)
REMARK    1  A    between atoms: C_8  and  C_9 
REMARK    2  A    between atoms: C_13  and  C_14 
REMARK    3  A    between atoms: C_14  and  O_15 
REMARK    4  A    between atoms: O_15  and  C_16 
REMARK    5  A    between atoms: C_27  and  N_28 
ROOT
HETATM    1  C   UNL     1      40.207 -12.662   0.938  1.00  0.00     0.073 C 
HETATM    2  C   UNL     1      39.312 -11.741   1.681  1.00  0.00     0.062 A 
HETATM    3  N   UNL     1      38.095 -11.442   1.199  1.00  0.00    -0.177 NA
HETATM    4  N   UNL     1      37.572 -10.596   2.111  1.00  0.00    -0.256 N 
HETATM    5  H   UNL     1      36.644 -10.219   1.956  1.00  0.00     0.191 HD
HETATM    6  C   UNL     1      38.411 -10.368   3.153  1.00  0.00     0.175 A 
HETATM    7  C   UNL     1      39.549 -11.093   2.916  1.00  0.00     0.035 A 
HETATM    8  C   UNL     1      40.690 -11.057   3.879  1.00  0.00     0.111 A 
HETATM    9  C   UNL     1      40.320 -10.145   5.062  1.00  0.00     0.067 A 
HETATM   10  C   UNL     1      41.360 -10.044   6.164  1.00  0.00     0.020 C 
HETATM   11  N   UNL     1      42.224  -9.960   7.079  1.00  0.00    -0.096 N 
HETATM   12  C   UNL     1      39.139  -9.481   5.172  1.00  0.00     0.139 A 
HETATM   13  O   UNL     1      38.139  -9.581   4.188  1.00  0.00    -0.279 OA
ENDROOT
BRANCH   8  14
HETATM   14  C   UNL     1      41.111 -12.455   4.297  1.00  0.00    -0.003 A 
HETATM   15  S   UNL     1      40.048 -13.414   5.238  1.00  0.00    -0.098 SA
HETATM   16  C   UNL     1      41.108 -14.753   5.216  1.00  0.00    -0.013 A 
HETATM   17  C   UNL     1      40.693 -16.031   5.869  1.00  0.00     0.057 C 
HETATM   18  C   UNL     1      42.298 -14.468   4.564  1.00  0.00    -0.020 A 
HETATM   19  C   UNL     1      42.277 -13.142   4.014  1.00  0.00     0.026 A 
BRANCH  18  20
HETATM   20  C   UNL     1      43.458 -15.419   4.425  1.00  0.00     0.215 C 
BRANCH  20  21
HETATM   21  O   UNL     1      43.306 -16.222   3.255  1.00  0.00    -0.347 OA
BRANCH  21  22
HETATM   22  C   UNL     1      43.511 -17.567   3.389  1.00  0.00     0.069 A 
HETATM   23  C   UNL     1      44.034 -18.213   4.514  1.00  0.00     0.040 A 
HETATM   24  C   UNL     1      44.184 -19.604   4.515  1.00  0.00     0.045 A 
HETATM   25  C   UNL     1      43.815 -20.339   3.395  1.00  0.00     0.116 A 
HETATM   26  F   UNL     1      43.961 -21.670   3.402  1.00  0.00    -0.206 F 
HETATM   27  C   UNL     1      43.296 -19.712   2.271  1.00  0.00     0.045 A 
HETATM   28  C   UNL     1      43.145 -18.325   2.271  1.00  0.00     0.040 A 
ENDBRANCH  21  22
ENDBRANCH  20  21
ENDBRANCH  18  20
ENDBRANCH   8  14
BRANCH  12  29
HETATM   29  N   UNL     1      38.775  -8.667   6.220  1.00  0.00    -0.282 NA
HETATM   30  H   UNL     1      37.939  -8.106   6.074  1.00  0.00     0.126 HD
HETATM   31  H   UNL     1      39.559  -8.126   6.575  1.00  0.00     0.126 HD
ENDBRANCH  12  29
TORSDOF 5
ENDMDL
MODEL 8
REMARK VINA RESULT:      -7.7      2.081      3.878
REMARK  5 active torsions:
REMARK  status: ('A' for Active; 'I' for Inactive)
REMARK    1  A    between atoms: C_8  and  C_9 
REMARK    2  A    between atoms: C_13  and  C_14 
REMARK    3  A    between atoms: C_14  and  O_15 
REMARK    4  A    between atoms: O_15  and  C_16 
REMARK    5  A    between atoms: C_27  and  N_28 
ROOT
HETATM    1  C   UNL     1      38.897 -11.138   6.217  1.00  0.00     0.073 C 
HETATM    2  C   UNL     1      38.923 -10.628   4.824  1.00  0.00     0.062 A 
HETATM    3  N   UNL     1      38.689  -9.329   4.573  1.00  0.00    -0.177 NA
HETATM    4  N   UNL     1      38.789  -9.225   3.231  1.00  0.00    -0.256 N 
HETATM    5  H   UNL     1      38.640  -8.321   2.797  1.00  0.00     0.191 HD
HETATM    6  C   UNL     1      39.093 -10.406   2.636  1.00  0.00     0.175 A 
HETATM    7  C   UNL     1      39.191 -11.341   3.633  1.00  0.00     0.035 A 
HETATM    8  C   UNL     1      39.511 -12.764   3.313  1.00  0.00     0.111 A 
HETATM    9  C   UNL     1      39.701 -12.906   1.792  1.00  0.00     0.067 A 
HETATM   10  C   UNL     1      40.087 -14.293   1.305  1.00  0.00     0.020 C 
HETATM   11  N   UNL     1      40.408 -15.443   0.901  1.00  0.00    -0.096 N 
HETATM   12  C   UNL     1      39.575 -11.881   0.909  1.00  0.00     0.139 A 
HETATM   13  O   UNL     1      39.255 -10.577   1.330  1.00  0.00    -0.279 OA
ENDROOT
BRANCH   8  14
HETATM   14  C   UNL     1      40.693 -13.267   4.123  1.00  0.00    -0.003 A 
HETATM   15  S   UNL     1      41.958 -12.187   4.535  1.00  0.00    -0.098 SA
HETATM   16  C   UNL     1      42.785 -13.375   5.442  1.00  0.00    -0.013 A 
HETATM   17  C   UNL     1      44.040 -13.008   6.164  1.00  0.00     0.057 C 
HETATM   18  C   UNL     1      42.157 -14.610   5.383  1.00  0.00    -0.020 A 
HETATM   19  C   UNL     1      40.933 -14.527   4.638  1.00  0.00     0.026 A 
BRANCH  18  20
HETATM   20  C   UNL     1      42.667 -15.872   6.029  1.00  0.00     0.215 C 
BRANCH  20  21
HETATM   21  O   UNL     1      43.829 -16.344   5.349  1.00  0.00    -0.347 OA
BRANCH  21  22
HETATM   22  C   UNL     1      43.643 -17.275   4.365  1.00  0.00     0.069 A 
HETATM   23  C   UNL     1      43.047 -17.051   3.120  1.00  0.00     0.040 A 
HETATM   24  C   UNL     1      42.927 -18.100   2.203  1.00  0.00     0.045 A 
HETATM   25  C   UNL     1      43.399 -19.365   2.535  1.00  0.00     0.116 A 
HETATM   26  F   UNL     1      43.280 -20.366   1.653  1.00  0.00    -0.206 F 
HETATM   27  C   UNL     1      43.990 -19.603   3.768  1.00  0.00     0.045 A 
HETATM   28  C   UNL     1      44.112 -18.555   4.682  1.00  0.00     0.040 A 
ENDBRANCH  21  22
ENDBRANCH  20  21
ENDBRANCH  18  20
ENDBRANCH   8  14
BRANCH  12  29
HETATM   29  N   UNL     1      39.748 -11.974  -0.453  1.00  0.00    -0.282 NA
HETATM   30  H   UNL     1      38.936 -11.737  -1.018  1.00  0.00     0.126 HD
HETATM   31  H   UNL     1      40.177 -12.854  -0.725  1.00  0.00     0.126 HD
ENDBRANCH  12  29
TORSDOF 5
ENDMDL
MODEL 9
REMARK VINA RESULT:      -7.6      4.501      7.289
REMARK  5 active torsions:
REMARK  status: ('A' for Active; 'I' for Inactive)
REMARK    1  A    between atoms: C_8  and  C_9 
REMARK    2  A    between atoms: C_13  and  C_14 
REMARK    3  A    between atoms: C_14  and  O_15 
REMARK    4  A    between atoms: O_15  and  C_16 
REMARK    5  A    between atoms: C_27  and  N_28 
ROOT
HETATM    1  C   UNL     1      39.074 -12.493   1.824  1.00  0.00     0.073 C 
HETATM    2  C   UNL     1      40.150 -13.472   1.538  1.00  0.00     0.062 A 
HETATM    3  N   UNL     1      40.620 -13.618   0.288  1.00  0.00    -0.177 NA
HETATM    4  N   UNL     1      41.568 -14.573   0.396  1.00  0.00    -0.256 N 
HETATM    5  H   UNL     1      42.066 -14.866  -0.437  1.00  0.00     0.191 HD
HETATM    6  C   UNL     1      41.720 -15.017   1.669  1.00  0.00     0.175 A 
HETATM    7  C   UNL     1      40.822 -14.328   2.441  1.00  0.00     0.035 A 
HETATM    8  C   UNL     1      40.724 -14.586   3.909  1.00  0.00     0.111 A 
HETATM    9  C   UNL     1      41.756 -15.659   4.300  1.00  0.00     0.067 A 
HETATM   10  C   UNL     1      41.822 -16.000   5.779  1.00  0.00     0.020 C 
HETATM   11  N   UNL     1      41.878 -16.283   7.007  1.00  0.00    -0.096 N 
HETATM   12  C   UNL     1      42.597 -16.265   3.420  1.00  0.00     0.139 A 
HETATM   13  O   UNL     1      42.587 -15.947   2.049  1.00  0.00    -0.279 OA
ENDROOT
BRANCH   8  14
HETATM   14  C   UNL     1      40.848 -13.303   4.712  1.00  0.00    -0.003 A 
HETATM   15  S   UNL     1      39.476 -12.676   5.523  1.00  0.00    -0.098 SA
HETATM   16  C   UNL     1      40.368 -11.392   6.210  1.00  0.00    -0.013 A 
HETATM   17  C   UNL     1      39.693 -10.444   7.146  1.00  0.00     0.057 C 
HETATM   18  C   UNL     1      41.686 -11.382   5.779  1.00  0.00    -0.020 A 
HETATM   19  C   UNL     1      41.958 -12.509   4.933  1.00  0.00     0.026 A 
BRANCH  18  20
HETATM   20  C   UNL     1      42.713 -10.346   6.158  1.00  0.00     0.215 C 
BRANCH  20  21
HETATM   21  O   UNL     1      43.749 -10.936   6.942  1.00  0.00    -0.347 OA
BRANCH  21  22
HETATM   22  C   UNL     1      43.991 -10.388   8.171  1.00  0.00     0.069 A 
HETATM   23  C   UNL     1      45.195 -10.455   8.880  1.00  0.00     0.040 A 
HETATM   24  C   UNL     1      45.304  -9.840  10.132  1.00  0.00     0.045 A 
HETATM   25  C   UNL     1      44.213  -9.166  10.668  1.00  0.00     0.116 A 
HETATM   26  F   UNL     1      44.324  -8.580  11.867  1.00  0.00    -0.206 F 
HETATM   27  C   UNL     1      43.012  -9.093   9.977  1.00  0.00     0.045 A 
HETATM   28  C   UNL     1      42.904  -9.705   8.727  1.00  0.00     0.040 A 
ENDBRANCH  21  22
ENDBRANCH  20  21
ENDBRANCH  18  20
ENDBRANCH   8  14
BRANCH  12  29
HETATM   29  N   UNL     1      43.535 -17.219   3.739  1.00  0.00    -0.282 NA
HETATM   30  H   UNL     1      44.106 -17.021   4.558  1.00  0.00     0.126 HD
HETATM   31  H   UNL     1      44.084 -17.502   2.932  1.00  0.00     0.126 HD
ENDBRANCH  12  29
TORSDOF 5
ENDMDL
MODEL 10
REMARK VINA RESULT:      -7.6      3.664      5.020
REMARK  5 active torsions:
REMARK  status: ('A' for Active; 'I' for Inactive)
REMARK    1  A    between atoms: C_8  and  C_9 
REMARK    2  A    between atoms: C_13  and  C_14 
REMARK    3  A    between atoms: C_14  and  O_15 
REMARK    4  A    between atoms: O_15  and  C_16 
REMARK    5  A    between atoms: C_27  and  N_28 
ROOT
HETATM    1  C   UNL     1      39.063 -14.928  -1.877  1.00  0.00     0.073 C 
HETATM    2  C   UNL     1      38.423 -13.660  -2.305  1.00  0.00     0.062 A 
HETATM    3  N   UNL     1      37.239 -13.678  -2.940  1.00  0.00    -0.177 NA
HETATM    4  N   UNL     1      36.965 -12.378  -3.175  1.00  0.00    -0.256 N 
HETATM    5  H   UNL     1      36.110 -12.137  -3.662  1.00  0.00     0.191 HD
HETATM    6  C   UNL     1      37.925 -11.547  -2.697  1.00  0.00     0.175 A 
HETATM    7  C   UNL     1      38.887 -12.336  -2.123  1.00  0.00     0.035 A 
HETATM    8  C   UNL     1      40.101 -11.728  -1.502  1.00  0.00     0.111 A 
HETATM    9  C   UNL     1      40.014 -10.196  -1.624  1.00  0.00     0.067 A 
HETATM   10  C   UNL     1      41.155  -9.420  -0.989  1.00  0.00     0.020 C 
HETATM   11  N   UNL     1      42.102  -8.776  -0.461  1.00  0.00    -0.096 N 
HETATM   12  C   UNL     1      38.988  -9.537  -2.223  1.00  0.00     0.139 A 
HETATM   13  O   UNL     1      37.898 -10.222  -2.790  1.00  0.00    -0.279 OA
ENDROOT
BRANCH   8  14
HETATM   14  C   UNL     1      40.302 -12.213  -0.076  1.00  0.00    -0.003 A 
HETATM   15  S   UNL     1      39.208 -11.724   1.147  1.00  0.00    -0.098 SA
HETATM   16  C   UNL     1      39.984 -12.675   2.334  1.00  0.00    -0.013 A 
HETATM   17  C   UNL     1      39.423 -12.727   3.717  1.00  0.00     0.057 C 
HETATM   18  C   UNL     1      41.113 -13.310   1.839  1.00  0.00    -0.020 A 
HETATM   19  C   UNL     1      41.271 -13.056   0.436  1.00  0.00     0.026 A 
BRANCH  18  20
HETATM   20  C   UNL     1      42.045 -14.173   2.650  1.00  0.00     0.215 C 
BRANCH  20  21
HETATM   21  O   UNL     1      41.698 -15.550   2.508  1.00  0.00    -0.347 OA
BRANCH  21  22
HETATM   22  C   UNL     1      42.502 -16.465   3.129  1.00  0.00     0.069 A 
HETATM   23  C   UNL     1      42.981 -16.386   4.441  1.00  0.00     0.040 A 
HETATM   24  C   UNL     1      43.795 -17.402   4.951  1.00  0.00     0.045 A 
HETATM   25  C   UNL     1      44.128 -18.487   4.149  1.00  0.00     0.116 A 
HETATM   26  F   UNL     1      44.908 -19.457   4.643  1.00  0.00    -0.206 F 
HETATM   27  C   UNL     1      43.663 -18.579   2.845  1.00  0.00     0.045 A 
HETATM   28  C   UNL     1      42.849 -17.565   2.337  1.00  0.00     0.040 A 
ENDBRANCH  21  22
ENDBRANCH  20  21
ENDBRANCH  18  20
ENDBRANCH   8  14
BRANCH  12  29
HETATM   29  N   UNL     1      38.877  -8.170  -2.341  1.00  0.00    -0.282 NA
HETATM   30  H   UNL     1      38.967  -7.799  -3.284  1.00  0.00     0.126 HD
HETATM   31  H   UNL     1      39.454  -7.679  -1.664  1.00  0.00     0.126 HD
ENDBRANCH  12  29
TORSDOF 5
ENDMDL
