MODEL 1
REMARK VINA RESULT:      -8.3      0.000      0.000
REMARK  7 active torsions:
REMARK  status: ('A' for Active; 'I' for Inactive)
REMARK    1  A    between atoms: C_4  and  O_5 
REMARK    2  A    between atoms: O_5  and  C_6 
REMARK    3  A    between atoms: C_9  and  N_10 
REMARK       I    between atoms: N_10  and  C_11 
REMARK    4  A    between atoms: C_11  and  C_12 
REMARK    5  A    between atoms: C_12  and  C_13 
REMARK    6  A    between atoms: C_13  and  N_14 
REMARK       I    between atoms: N_14  and  C_15 
REMARK    7  A    between atoms: C_15  and  C_16 
ROOT
HETATM    1  N   UNL     1      40.138 -13.648   3.177  1.00  0.00    -0.327 N 
HETATM    2  C   UNL     1      39.664 -12.484   3.754  1.00  0.00     0.223 C 
HETATM    3  O   UNL     1      40.009 -12.010   4.832  1.00  0.00    -0.273 OA
HETATM    4  H   UNL     1      39.721 -13.926   2.297  1.00  0.00     0.169 HD
ENDROOT
BRANCH   1   5
HETATM    5  C   UNL     1      41.176 -14.480   3.649  1.00  0.00     0.034 A 
HETATM    6  C   UNL     1      42.467 -14.505   3.116  1.00  0.00     0.032 A 
HETATM    7  C   UNL     1      43.428 -15.395   3.614  1.00  0.00     0.039 A 
HETATM    8  C   UNL     1      43.110 -16.251   4.667  1.00  0.00     0.076 A 
HETATM    9  C   UNL     1      41.822 -16.237   5.201  1.00  0.00     0.039 A 
HETATM   10  C   UNL     1      40.863 -15.354   4.699  1.00  0.00     0.032 A 
BRANCH   8  11
HETATM   11  O   UNL     1      43.964 -17.203   5.179  1.00  0.00    -0.311 OA
BRANCH  11  12
HETATM   12  C   UNL     1      43.865 -18.495   4.724  1.00  0.00     0.076 A 
HETATM   13  C   UNL     1      43.780 -18.814   3.366  1.00  0.00     0.044 A 
HETATM   14  C   UNL     1      43.738 -20.155   2.959  1.00  0.00    -0.059 A 
HETATM   15  C   UNL     1      43.668 -20.500   1.500  1.00  0.00     0.048 C 
HETATM   16  C   UNL     1      43.830 -21.165   3.925  1.00  0.00     0.007 A 
HETATM   17  C   UNL     1      43.941 -20.843   5.279  1.00  0.00     0.003 A 
HETATM   18  C   UNL     1      43.962 -19.508   5.677  1.00  0.00     0.037 A 
ENDBRANCH  11  12
ENDBRANCH   8  11
ENDBRANCH   1   5
BRANCH   2  19
HETATM   19  C   UNL     1      38.619 -11.785   2.907  1.00  0.00     0.123 C 
BRANCH  19  20
HETATM   20  C   UNL     1      39.246 -11.402   1.573  1.00  0.00     0.132 C 
BRANCH  20  21
HETATM   21  N   UNL     1      38.726 -12.168   0.459  1.00  0.00    -0.355 N 
HETATM   22  C   UNL     1      39.497 -13.069  -0.246  1.00  0.00     0.275 C 
HETATM   23  O   UNL     1      40.617 -13.408   0.126  1.00  0.00    -0.265 OA
HETATM   24  H   UNL     1      37.847 -11.893   0.032  1.00  0.00     0.162 HD
BRANCH  22  25
HETATM   25  C   UNL     1      38.871 -13.557  -1.458  1.00  0.00     0.142 A 
HETATM   26  O   UNL     1      37.654 -13.049  -1.840  1.00  0.00    -0.317 OA
HETATM   27  C   UNL     1      37.315 -13.656  -3.007  1.00  0.00     0.143 A 
HETATM   28  C   UNL     1      38.288 -14.551  -3.387  1.00  0.00     0.027 A 
HETATM   29  C   UNL     1      39.290 -14.489  -2.390  1.00  0.00     0.045 A 
ENDBRANCH  22  25
ENDBRANCH  20  21
ENDBRANCH  19  20
ENDBRANCH   2  19
TORSDOF 7
ENDMDL
MODEL 2
REMARK VINA RESULT:      -8.1      6.054      8.962
REMARK  7 active torsions:
REMARK  status: ('A' for Active; 'I' for Inactive)
REMARK    1  A    between atoms: C_4  and  O_5 
REMARK    2  A    between atoms: O_5  and  C_6 
REMARK    3  A    between atoms: C_9  and  N_10 
REMARK       I    between atoms: N_10  and  C_11 
REMARK    4  A    between atoms: C_11  and  C_12 
REMARK    5  A    between atoms: C_12  and  C_13 
REMARK    6  A    between atoms: C_13  and  N_14 
REMARK       I    between atoms: N_14  and  C_15 
REMARK    7  A    between atoms: C_15  and  C_16 
ROOT
HETATM    1  N   UNL     1      44.913 -10.888   7.164  1.00  0.00    -0.327 N 
HETATM    2  C   UNL     1      44.377  -9.829   7.874  1.00  0.00     0.223 C 
HETATM    3  O   UNL     1      43.193  -9.513   7.929  1.00  0.00    -0.273 OA
HETATM    4  H   UNL     1      45.921 -10.992   7.188  1.00  0.00     0.169 HD
ENDROOT
BRANCH   1   5
HETATM    5  C   UNL     1      44.215 -11.878   6.438  1.00  0.00     0.034 A 
HETATM    6  C   UNL     1      43.878 -11.770   5.087  1.00  0.00     0.032 A 
HETATM    7  C   UNL     1      43.142 -12.780   4.452  1.00  0.00     0.039 A 
HETATM    8  C   UNL     1      42.761 -13.919   5.160  1.00  0.00     0.076 A 
HETATM    9  C   UNL     1      43.089 -14.032   6.510  1.00  0.00     0.039 A 
HETATM   10  C   UNL     1      43.816 -13.020   7.144  1.00  0.00     0.032 A 
BRANCH   8  11
HETATM   11  O   UNL     1      41.984 -14.931   4.643  1.00  0.00    -0.311 OA
BRANCH  11  12
HETATM   12  C   UNL     1      42.604 -16.002   4.046  1.00  0.00     0.076 A 
HETATM   13  C   UNL     1      43.084 -17.097   4.770  1.00  0.00     0.044 A 
HETATM   14  C   UNL     1      43.657 -18.187   4.100  1.00  0.00    -0.059 A 
HETATM   15  C   UNL     1      44.155 -19.373   4.872  1.00  0.00     0.048 C 
HETATM   16  C   UNL     1      43.697 -18.183   2.699  1.00  0.00     0.007 A 
HETATM   17  C   UNL     1      43.192 -17.099   1.979  1.00  0.00     0.003 A 
HETATM   18  C   UNL     1      42.642 -16.011   2.652  1.00  0.00     0.037 A 
ENDBRANCH  11  12
ENDBRANCH   8  11
ENDBRANCH   1   5
BRANCH   2  19
HETATM   19  C   UNL     1      45.421  -9.032   8.630  1.00  0.00     0.123 C 
BRANCH  19  20
HETATM   20  C   UNL     1      45.489  -9.550  10.062  1.00  0.00     0.132 C 
BRANCH  20  21
HETATM   21  N   UNL     1      44.271  -9.315  10.810  1.00  0.00    -0.355 N 
HETATM   22  C   UNL     1      43.588 -10.329  11.451  1.00  0.00     0.275 C 
HETATM   23  O   UNL     1      44.053 -11.458  11.575  1.00  0.00    -0.265 OA
HETATM   24  H   UNL     1      43.774  -8.439  10.690  1.00  0.00     0.162 HD
BRANCH  22  25
HETATM   25  C   UNL     1      42.282  -9.937  11.943  1.00  0.00     0.142 A 
HETATM   26  O   UNL     1      41.224  -9.877  11.071  1.00  0.00    -0.317 OA
HETATM   27  C   UNL     1      40.132  -9.512  11.792  1.00  0.00     0.143 A 
HETATM   28  C   UNL     1      40.463  -9.332  13.114  1.00  0.00     0.027 A 
HETATM   29  C   UNL     1      41.848  -9.605  13.212  1.00  0.00     0.045 A 
ENDBRANCH  22  25
ENDBRANCH  20  21
ENDBRANCH  19  20
ENDBRANCH   2  19
TORSDOF 7
ENDMDL
MODEL 3
REMARK VINA RESULT:      -8.1      2.745      4.006
REMARK  7 active torsions:
REMARK  status: ('A' for Active; 'I' for Inactive)
REMARK    1  A    between atoms: C_4  and  O_5 
REMARK    2  A    between atoms: O_5  and  C_6 
REMARK    3  A    between atoms: C_9  and  N_10 
REMARK       I    between atoms: N_10  and  C_11 
REMARK    4  A    between atoms: C_11  and  C_12 
REMARK    5  A    between atoms: C_12  and  C_13 
REMARK    6  A    between atoms: C_13  and  N_14 
REMARK       I    between atoms: N_14  and  C_15 
REMARK    7  A    between atoms: C_15  and  C_16 
ROOT
HETATM    1  N   UNL     1      39.530 -13.641   0.323  1.00  0.00    -0.327 N 
HETATM    2  C   UNL     1      39.346 -13.837  -1.033  1.00  0.00     0.223 C 
HETATM    3  O   UNL     1      39.976 -14.607  -1.752  1.00  0.00    -0.273 OA
HETATM    4  H   UNL     1      38.953 -12.937   0.767  1.00  0.00     0.169 HD
ENDROOT
BRANCH   1   5
HETATM    5  C   UNL     1      40.402 -14.345   1.182  1.00  0.00     0.034 A 
HETATM    6  C   UNL     1      40.000 -15.367   2.045  1.00  0.00     0.032 A 
HETATM    7  C   UNL     1      40.923 -15.985   2.900  1.00  0.00     0.039 A 
HETATM    8  C   UNL     1      42.262 -15.599   2.880  1.00  0.00     0.076 A 
HETATM    9  C   UNL     1      42.671 -14.576   2.025  1.00  0.00     0.039 A 
HETATM   10  C   UNL     1      41.748 -13.956   1.179  1.00  0.00     0.032 A 
BRANCH   8  11
HETATM   11  O   UNL     1      43.228 -16.099   3.725  1.00  0.00    -0.311 OA
BRANCH  11  12
HETATM   12  C   UNL     1      43.425 -17.458   3.774  1.00  0.00     0.076 A 
HETATM   13  C   UNL     1      43.373 -18.272   2.639  1.00  0.00     0.044 A 
HETATM   14  C   UNL     1      43.639 -19.644   2.743  1.00  0.00    -0.059 A 
HETATM   15  C   UNL     1      43.605 -20.516   1.523  1.00  0.00     0.048 C 
HETATM   16  C   UNL     1      44.002 -20.176   3.987  1.00  0.00     0.007 A 
HETATM   17  C   UNL     1      44.079 -19.356   5.114  1.00  0.00     0.003 A 
HETATM   18  C   UNL     1      43.794 -17.997   5.006  1.00  0.00     0.037 A 
ENDBRANCH  11  12
ENDBRANCH   8  11
ENDBRANCH   1   5
BRANCH   2  19
HETATM   19  C   UNL     1      38.239 -12.978  -1.612  1.00  0.00     0.123 C 
BRANCH  19  20
HETATM   20  C   UNL     1      38.301 -11.600  -0.965  1.00  0.00     0.132 C 
BRANCH  20  21
HETATM   21  N   UNL     1      39.396 -10.789  -1.456  1.00  0.00    -0.355 N 
HETATM   22  C   UNL     1      40.397 -10.318  -0.632  1.00  0.00     0.275 C 
HETATM   23  O   UNL     1      40.522 -10.693   0.531  1.00  0.00    -0.265 OA
HETATM   24  H   UNL     1      39.327 -10.364  -2.375  1.00  0.00     0.162 HD
BRANCH  22  25
HETATM   25  C   UNL     1      41.264  -9.342  -1.260  1.00  0.00     0.142 A 
HETATM   26  O   UNL     1      42.469  -9.035  -0.677  1.00  0.00    -0.317 OA
HETATM   27  C   UNL     1      43.080  -8.123  -1.476  1.00  0.00     0.143 A 
HETATM   28  C   UNL     1      42.293  -7.830  -2.566  1.00  0.00     0.027 A 
HETATM   29  C   UNL     1      41.123  -8.614  -2.427  1.00  0.00     0.045 A 
ENDBRANCH  22  25
ENDBRANCH  20  21
ENDBRANCH  19  20
ENDBRANCH   2  19
TORSDOF 7
ENDMDL
MODEL 4
REMARK VINA RESULT:      -8.0      5.930      9.157
REMARK  7 active torsions:
REMARK  status: ('A' for Active; 'I' for Inactive)
REMARK    1  A    between atoms: C_4  and  O_5 
REMARK    2  A    between atoms: O_5  and  C_6 
REMARK    3  A    between atoms: C_9  and  N_10 
REMARK       I    between atoms: N_10  and  C_11 
REMARK    4  A    between atoms: C_11  and  C_12 
REMARK    5  A    between atoms: C_12  and  C_13 
REMARK    6  A    between atoms: C_13  and  N_14 
REMARK       I    between atoms: N_14  and  C_15 
REMARK    7  A    between atoms: C_15  and  C_16 
ROOT
HETATM    1  N   UNL     1      43.211 -12.476   5.026  1.00  0.00    -0.327 N 
HETATM    2  C   UNL     1      43.365 -12.108   3.702  1.00  0.00     0.223 C 
HETATM    3  O   UNL     1      43.727 -11.012   3.285  1.00  0.00    -0.273 OA
HETATM    4  H   UNL     1      42.864 -13.410   5.205  1.00  0.00     0.169 HD
ENDROOT
BRANCH   1   5
HETATM    5  C   UNL     1      43.527 -11.713   6.172  1.00  0.00     0.034 A 
HETATM    6  C   UNL     1      42.667 -10.780   6.756  1.00  0.00     0.032 A 
HETATM    7  C   UNL     1      43.076 -10.030   7.867  1.00  0.00     0.039 A 
HETATM    8  C   UNL     1      44.341 -10.227   8.417  1.00  0.00     0.076 A 
HETATM    9  C   UNL     1      45.207 -11.153   7.837  1.00  0.00     0.039 A 
HETATM   10  C   UNL     1      44.801 -11.895   6.724  1.00  0.00     0.032 A 
BRANCH   8  11
HETATM   11  O   UNL     1      44.855  -9.496   9.464  1.00  0.00    -0.311 OA
BRANCH  11  12
HETATM   12  C   UNL     1      44.189  -9.501  10.666  1.00  0.00     0.076 A 
HETATM   13  C   UNL     1      43.776  -8.330  11.307  1.00  0.00     0.044 A 
HETATM   14  C   UNL     1      43.050  -8.401  12.504  1.00  0.00    -0.059 A 
HETATM   15  C   UNL     1      42.587  -7.146  13.183  1.00  0.00     0.048 C 
HETATM   16  C   UNL     1      42.707  -9.657  13.021  1.00  0.00     0.007 A 
HETATM   17  C   UNL     1      43.099 -10.825  12.364  1.00  0.00     0.003 A 
HETATM   18  C   UNL     1      43.837 -10.747  11.185  1.00  0.00     0.037 A 
ENDBRANCH  11  12
ENDBRANCH   8  11
ENDBRANCH   1   5
BRANCH   2  19
HETATM   19  C   UNL     1      43.033 -13.226   2.733  1.00  0.00     0.123 C 
BRANCH  19  20
HETATM   20  C   UNL     1      41.944 -14.098   3.347  1.00  0.00     0.132 C 
BRANCH  20  21
HETATM   21  N   UNL     1      42.245 -15.513   3.285  1.00  0.00    -0.355 N 
HETATM   22  C   UNL     1      43.082 -16.134   4.189  1.00  0.00     0.275 C 
HETATM   23  O   UNL     1      43.489 -15.570   5.202  1.00  0.00    -0.265 OA
HETATM   24  H   UNL     1      42.024 -16.032   2.441  1.00  0.00     0.162 HD
BRANCH  22  25
HETATM   25  C   UNL     1      43.440 -17.489   3.824  1.00  0.00     0.142 A 
HETATM   26  O   UNL     1      43.938 -18.337   4.783  1.00  0.00    -0.317 OA
HETATM   27  C   UNL     1      44.163 -19.534   4.181  1.00  0.00     0.143 A 
HETATM   28  C   UNL     1      43.822 -19.477   2.850  1.00  0.00     0.027 A 
HETATM   29  C   UNL     1      43.358 -18.160   2.619  1.00  0.00     0.045 A 
ENDBRANCH  22  25
ENDBRANCH  20  21
ENDBRANCH  19  20
ENDBRANCH   2  19
TORSDOF 7
ENDMDL
MODEL 5
REMARK VINA RESULT:      -8.0      3.623      6.054
REMARK  7 active torsions:
REMARK  status: ('A' for Active; 'I' for Inactive)
REMARK    1  A    between atoms: C_4  and  O_5 
REMARK    2  A    between atoms: O_5  and  C_6 
REMARK    3  A    between atoms: C_9  and  N_10 
REMARK       I    between atoms: N_10  and  C_11 
REMARK    4  A    between atoms: C_11  and  C_12 
REMARK    5  A    between atoms: C_12  and  C_13 
REMARK    6  A    between atoms: C_13  and  N_14 
REMARK       I    between atoms: N_14  and  C_15 
REMARK    7  A    between atoms: C_15  and  C_16 
ROOT
HETATM    1  N   UNL     1      40.352 -13.165   4.164  1.00  0.00    -0.327 N 
HETATM    2  C   UNL     1      39.845 -12.996   5.439  1.00  0.00     0.223 C 
HETATM    3  O   UNL     1      39.954 -13.779   6.378  1.00  0.00    -0.273 OA
HETATM    4  H   UNL     1      40.140 -12.441   3.487  1.00  0.00     0.169 HD
ENDROOT
BRANCH   1   5
HETATM    5  C   UNL     1      41.176 -14.213   3.698  1.00  0.00     0.034 A 
HETATM    6  C   UNL     1      42.570 -14.149   3.639  1.00  0.00     0.032 A 
HETATM    7  C   UNL     1      43.312 -15.218   3.120  1.00  0.00     0.039 A 
HETATM    8  C   UNL     1      42.665 -16.371   2.678  1.00  0.00     0.076 A 
HETATM    9  C   UNL     1      41.273 -16.441   2.730  1.00  0.00     0.039 A 
HETATM   10  C   UNL     1      40.533 -15.370   3.241  1.00  0.00     0.032 A 
BRANCH   8  11
HETATM   11  O   UNL     1      43.300 -17.444   2.095  1.00  0.00    -0.311 OA
BRANCH  11  12
HETATM   12  C   UNL     1      43.550 -18.560   2.856  1.00  0.00     0.076 A 
HETATM   13  C   UNL     1      43.550 -18.538   4.254  1.00  0.00     0.044 A 
HETATM   14  C   UNL     1      43.757 -19.721   4.976  1.00  0.00    -0.059 A 
HETATM   15  C   UNL     1      43.736 -19.704   6.476  1.00  0.00     0.048 C 
HETATM   16  C   UNL     1      43.916 -20.927   4.281  1.00  0.00     0.007 A 
HETATM   17  C   UNL     1      43.889 -20.949   2.886  1.00  0.00     0.003 A 
HETATM   18  C   UNL     1      43.703 -19.766   2.174  1.00  0.00     0.037 A 
ENDBRANCH  11  12
ENDBRANCH   8  11
ENDBRANCH   1   5
BRANCH   2  19
HETATM   19  C   UNL     1      39.095 -11.690   5.612  1.00  0.00     0.123 C 
BRANCH  19  20
HETATM   20  C   UNL     1      39.753 -10.892   6.730  1.00  0.00     0.132 C 
BRANCH  20  21
HETATM   21  N   UNL     1      41.168 -11.170   6.871  1.00  0.00    -0.355 N 
HETATM   22  C   UNL     1      42.118 -10.171   6.929  1.00  0.00     0.275 C 
HETATM   23  O   UNL     1      41.818  -8.985   7.038  1.00  0.00    -0.265 OA
HETATM   24  H   UNL     1      41.509 -12.111   6.704  1.00  0.00     0.162 HD
BRANCH  22  25
HETATM   25  C   UNL     1      43.482 -10.651   6.835  1.00  0.00     0.142 A 
HETATM   26  O   UNL     1      44.416 -10.208   7.739  1.00  0.00    -0.317 OA
HETATM   27  C   UNL     1      45.587 -10.827   7.439  1.00  0.00     0.143 A 
HETATM   28  C   UNL     1      45.431 -11.660   6.356  1.00  0.00     0.027 A 
HETATM   29  C   UNL     1      44.075 -11.546   5.965  1.00  0.00     0.045 A 
ENDBRANCH  22  25
ENDBRANCH  20  21
ENDBRANCH  19  20
ENDBRANCH   2  19
TORSDOF 7
ENDMDL
MODEL 6
REMARK VINA RESULT:      -7.9      4.311      7.174
REMARK  7 active torsions:
REMARK  status: ('A' for Active; 'I' for Inactive)
REMARK    1  A    between atoms: C_4  and  O_5 
REMARK    2  A    between atoms: O_5  and  C_6 
REMARK    3  A    between atoms: C_9  and  N_10 
REMARK       I    between atoms: N_10  and  C_11 
REMARK    4  A    between atoms: C_11  and  C_12 
REMARK    5  A    between atoms: C_12  and  C_13 
REMARK    6  A    between atoms: C_13  and  N_14 
REMARK       I    between atoms: N_14  and  C_15 
REMARK    7  A    between atoms: C_15  and  C_16 
ROOT
HETATM    1  N   UNL     1      40.466 -12.112   6.520  1.00  0.00    -0.327 N 
HETATM    2  C   UNL     1      40.105 -10.786   6.375  1.00  0.00     0.223 C 
HETATM    3  O   UNL     1      40.307 -10.077   5.393  1.00  0.00    -0.273 OA
HETATM    4  H   UNL     1      40.263 -12.547   7.412  1.00  0.00     0.169 HD
ENDROOT
BRANCH   1   5
HETATM    5  C   UNL     1      41.049 -12.956   5.550  1.00  0.00     0.034 A 
HETATM    6  C   UNL     1      40.351 -13.933   4.838  1.00  0.00     0.032 A 
HETATM    7  C   UNL     1      41.016 -14.761   3.922  1.00  0.00     0.039 A 
HETATM    8  C   UNL     1      42.382 -14.599   3.695  1.00  0.00     0.076 A 
HETATM    9  C   UNL     1      43.087 -13.629   4.406  1.00  0.00     0.039 A 
HETATM   10  C   UNL     1      42.424 -12.809   5.324  1.00  0.00     0.032 A 
BRANCH   8  11
HETATM   11  O   UNL     1      43.133 -15.403   2.868  1.00  0.00    -0.311 OA
BRANCH  11  12
HETATM   12  C   UNL     1      43.361 -16.706   3.239  1.00  0.00     0.076 A 
HETATM   13  C   UNL     1      43.209 -17.781   2.360  1.00  0.00     0.044 A 
HETATM   14  C   UNL     1      43.512 -19.083   2.781  1.00  0.00    -0.059 A 
HETATM   15  C   UNL     1      43.370 -20.237   1.832  1.00  0.00     0.048 C 
HETATM   16  C   UNL     1      44.012 -19.284   4.074  1.00  0.00     0.007 A 
HETATM   17  C   UNL     1      44.187 -18.204   4.941  1.00  0.00     0.003 A 
HETATM   18  C   UNL     1      43.866 -16.915   4.522  1.00  0.00     0.037 A 
ENDBRANCH  11  12
ENDBRANCH   8  11
ENDBRANCH   1   5
BRANCH   2  19
HETATM   19  C   UNL     1      39.394 -10.227   7.592  1.00  0.00     0.123 C 
BRANCH  19  20
HETATM   20  C   UNL     1      40.380  -9.382   8.389  1.00  0.00     0.132 C 
BRANCH  20  21
HETATM   21  N   UNL     1      41.762  -9.740   8.146  1.00  0.00    -0.355 N 
HETATM   22  C   UNL     1      42.751  -9.568   9.093  1.00  0.00     0.275 C 
HETATM   23  O   UNL     1      42.500  -9.264  10.256  1.00  0.00    -0.265 OA
HETATM   24  H   UNL     1      42.072  -9.916   7.195  1.00  0.00     0.162 HD
BRANCH  22  25
HETATM   25  C   UNL     1      44.093  -9.765   8.585  1.00  0.00     0.142 A 
HETATM   26  O   UNL     1      44.972  -8.710   8.575  1.00  0.00    -0.317 OA
HETATM   27  C   UNL     1      46.147  -9.174   8.076  1.00  0.00     0.143 A 
HETATM   28  C   UNL     1      46.047 -10.508   7.760  1.00  0.00     0.027 A 
HETATM   29  C   UNL     1      44.723 -10.890   8.086  1.00  0.00     0.045 A 
ENDBRANCH  22  25
ENDBRANCH  20  21
ENDBRANCH  19  20
ENDBRANCH   2  19
TORSDOF 7
ENDMDL
MODEL 7
REMARK VINA RESULT:      -7.8      4.408      7.212
REMARK  7 active torsions:
REMARK  status: ('A' for Active; 'I' for Inactive)
REMARK    1  A    between atoms: C_4  and  O_5 
REMARK    2  A    between atoms: O_5  and  C_6 
REMARK    3  A    between atoms: C_9  and  N_10 
REMARK       I    between atoms: N_10  and  C_11 
REMARK    4  A    between atoms: C_11  and  C_12 
REMARK    5  A    between atoms: C_12  and  C_13 
REMARK    6  A    between atoms: C_13  and  N_14 
REMARK       I    between atoms: N_14  and  C_15 
REMARK    7  A    between atoms: C_15  and  C_16 
ROOT
HETATM    1  N   UNL     1      40.810 -13.329   6.414  1.00  0.00    -0.327 N 
HETATM    2  C   UNL     1      40.799 -12.006   6.010  1.00  0.00     0.223 C 
HETATM    3  O   UNL     1      41.698 -11.417   5.419  1.00  0.00    -0.273 OA
HETATM    4  H   UNL     1      40.002 -13.657   6.930  1.00  0.00     0.169 HD
ENDROOT
BRANCH   1   5
HETATM    5  C   UNL     1      41.800 -14.300   6.151  1.00  0.00     0.034 A 
HETATM    6  C   UNL     1      42.839 -14.620   7.027  1.00  0.00     0.032 A 
HETATM    7  C   UNL     1      43.810 -15.566   6.670  1.00  0.00     0.039 A 
HETATM    8  C   UNL     1      43.733 -16.217   5.439  1.00  0.00     0.076 A 
HETATM    9  C   UNL     1      42.701 -15.900   4.556  1.00  0.00     0.039 A 
HETATM   10  C   UNL     1      41.738 -14.951   4.911  1.00  0.00     0.032 A 
BRANCH   8  11
HETATM   11  O   UNL     1      44.671 -17.110   4.973  1.00  0.00    -0.311 OA
BRANCH  11  12
HETATM   12  C   UNL     1      44.264 -18.374   4.621  1.00  0.00     0.076 A 
HETATM   13  C   UNL     1      44.149 -18.790   3.292  1.00  0.00     0.044 A 
HETATM   14  C   UNL     1      43.783 -20.110   2.996  1.00  0.00    -0.059 A 
HETATM   15  C   UNL     1      43.680 -20.564   1.570  1.00  0.00     0.048 C 
HETATM   16  C   UNL     1      43.583 -21.015   4.046  1.00  0.00     0.007 A 
HETATM   17  C   UNL     1      43.725 -20.604   5.373  1.00  0.00     0.003 A 
HETATM   18  C   UNL     1      44.069 -19.285   5.660  1.00  0.00     0.037 A 
ENDBRANCH  11  12
ENDBRANCH   8  11
ENDBRANCH   1   5
BRANCH   2  19
HETATM   19  C   UNL     1      39.516 -11.285   6.373  1.00  0.00     0.123 C 
BRANCH  19  20
HETATM   20  C   UNL     1      39.869 -10.001   7.113  1.00  0.00     0.132 C 
BRANCH  20  21
HETATM   21  N   UNL     1      40.944 -10.172   8.068  1.00  0.00    -0.355 N 
HETATM   22  C   UNL     1      41.506  -9.112   8.750  1.00  0.00     0.275 C 
HETATM   23  O   UNL     1      41.024  -7.983   8.722  1.00  0.00    -0.265 OA
HETATM   24  H   UNL     1      41.457 -11.048   8.090  1.00  0.00     0.162 HD
BRANCH  22  25
HETATM   25  C   UNL     1      42.711  -9.454   9.478  1.00  0.00     0.142 A 
HETATM   26  O   UNL     1      42.609  -9.967  10.747  1.00  0.00    -0.317 OA
HETATM   27  C   UNL     1      43.872 -10.217  11.180  1.00  0.00     0.143 A 
HETATM   28  C   UNL     1      44.791  -9.873  10.216  1.00  0.00     0.027 A 
HETATM   29  C   UNL     1      44.044  -9.380   9.120  1.00  0.00     0.045 A 
ENDBRANCH  22  25
ENDBRANCH  20  21
ENDBRANCH  19  20
ENDBRANCH   2  19
TORSDOF 7
ENDMDL
MODEL 8
REMARK VINA RESULT:      -7.7      5.907      9.571
REMARK  7 active torsions:
REMARK  status: ('A' for Active; 'I' for Inactive)
REMARK    1  A    between atoms: C_4  and  O_5 
REMARK    2  A    between atoms: O_5  and  C_6 
REMARK    3  A    between atoms: C_9  and  N_10 
REMARK       I    between atoms: N_10  and  C_11 
REMARK    4  A    between atoms: C_11  and  C_12 
REMARK    5  A    between atoms: C_12  and  C_13 
REMARK    6  A    between atoms: C_13  and  N_14 
REMARK       I    between atoms: N_14  and  C_15 
REMARK    7  A    between atoms: C_15  and  C_16 
ROOT
HETATM    1  N   UNL     1      43.562 -12.751   5.365  1.00  0.00    -0.327 N 
HETATM    2  C   UNL     1      43.322 -12.672   4.006  1.00  0.00     0.223 C 
HETATM    3  O   UNL     1      43.439 -11.674   3.300  1.00  0.00    -0.273 OA
HETATM    4  H   UNL     1      43.379 -13.642   5.811  1.00  0.00     0.169 HD
ENDROOT
BRANCH   1   5
HETATM    5  C   UNL     1      44.082 -11.744   6.206  1.00  0.00     0.034 A 
HETATM    6  C   UNL     1      45.444 -11.545   6.444  1.00  0.00     0.032 A 
HETATM    7  C   UNL     1      45.876 -10.548   7.331  1.00  0.00     0.039 A 
HETATM    8  C   UNL     1      44.947  -9.727   7.967  1.00  0.00     0.076 A 
HETATM    9  C   UNL     1      43.585  -9.922   7.738  1.00  0.00     0.039 A 
HETATM   10  C   UNL     1      43.156 -10.921   6.860  1.00  0.00     0.032 A 
BRANCH   8  11
HETATM   11  O   UNL     1      45.269  -8.767   8.901  1.00  0.00    -0.311 OA
BRANCH  11  12
HETATM   12  C   UNL     1      44.278  -8.280   9.718  1.00  0.00     0.076 A 
HETATM   13  C   UNL     1      43.993  -8.828  10.972  1.00  0.00     0.044 A 
HETATM   14  C   UNL     1      43.008  -8.252  11.785  1.00  0.00    -0.059 A 
HETATM   15  C   UNL     1      42.715  -8.825  13.140  1.00  0.00     0.048 C 
HETATM   16  C   UNL     1      42.349  -7.096  11.345  1.00  0.00     0.007 A 
HETATM   17  C   UNL     1      42.654  -6.536  10.103  1.00  0.00     0.003 A 
HETATM   18  C   UNL     1      43.621  -7.126   9.292  1.00  0.00     0.037 A 
ENDBRANCH  11  12
ENDBRANCH   8  11
ENDBRANCH   1   5
BRANCH   2  19
HETATM   19  C   UNL     1      42.871 -13.988   3.404  1.00  0.00     0.123 C 
BRANCH  19  20
HETATM   20  C   UNL     1      42.903 -15.058   4.489  1.00  0.00     0.132 C 
BRANCH  20  21
HETATM   21  N   UNL     1      42.830 -16.404   3.963  1.00  0.00    -0.355 N 
HETATM   22  C   UNL     1      43.753 -17.379   4.285  1.00  0.00     0.275 C 
HETATM   23  O   UNL     1      44.593 -17.221   5.167  1.00  0.00    -0.265 OA
HETATM   24  H   UNL     1      42.226 -16.597   3.169  1.00  0.00     0.162 HD
BRANCH  22  25
HETATM   25  C   UNL     1      43.644 -18.580   3.483  1.00  0.00     0.142 A 
HETATM   26  O   UNL     1      44.116 -19.769   3.982  1.00  0.00    -0.317 OA
HETATM   27  C   UNL     1      43.868 -20.722   3.047  1.00  0.00     0.143 A 
HETATM   28  C   UNL     1      43.247 -20.173   1.949  1.00  0.00     0.027 A 
HETATM   29  C   UNL     1      43.103 -18.793   2.229  1.00  0.00     0.045 A 
ENDBRANCH  22  25
ENDBRANCH  20  21
ENDBRANCH  19  20
ENDBRANCH   2  19
TORSDOF 7
ENDMDL
MODEL 9
REMARK VINA RESULT:      -7.5      4.486      6.809
REMARK  7 active torsions:
REMARK  status: ('A' for Active; 'I' for Inactive)
REMARK    1  A    between atoms: C_4  and  O_5 
REMARK    2  A    between atoms: O_5  and  C_6 
REMARK    3  A    between atoms: C_9  and  N_10 
REMARK       I    between atoms: N_10  and  C_11 
REMARK    4  A    between atoms: C_11  and  C_12 
REMARK    5  A    between atoms: C_12  and  C_13 
REMARK    6  A    between atoms: C_13  and  N_14 
REMARK       I    between atoms: N_14  and  C_15 
REMARK    7  A    between atoms: C_15  and  C_16 
ROOT
HETATM    1  N   UNL     1      41.943 -14.601   4.169  1.00  0.00    -0.327 N 
HETATM    2  C   UNL     1      42.335 -15.671   3.385  1.00  0.00     0.223 C 
HETATM    3  O   UNL     1      43.484 -15.965   3.074  1.00  0.00    -0.273 OA
HETATM    4  H   UNL     1      40.947 -14.471   4.301  1.00  0.00     0.169 HD
ENDROOT
BRANCH   1   5
HETATM    5  C   UNL     1      42.773 -13.687   4.853  1.00  0.00     0.034 A 
HETATM    6  C   UNL     1      43.294 -13.903   6.130  1.00  0.00     0.032 A 
HETATM    7  C   UNL     1      44.075 -12.923   6.759  1.00  0.00     0.039 A 
HETATM    8  C   UNL     1      44.360 -11.727   6.100  1.00  0.00     0.076 A 
HETATM    9  C   UNL     1      43.840 -11.502   4.827  1.00  0.00     0.039 A 
HETATM   10  C   UNL     1      43.055 -12.477   4.205  1.00  0.00     0.032 A 
BRANCH   8  11
HETATM   11  O   UNL     1      45.061 -10.682   6.658  1.00  0.00    -0.311 OA
BRANCH  11  12
HETATM   12  C   UNL     1      44.673 -10.205   7.887  1.00  0.00     0.076 A 
HETATM   13  C   UNL     1      43.368  -9.784   8.158  1.00  0.00     0.044 A 
HETATM   14  C   UNL     1      43.018  -9.360   9.447  1.00  0.00    -0.059 A 
HETATM   15  C   UNL     1      41.613  -8.928   9.745  1.00  0.00     0.048 C 
HETATM   16  C   UNL     1      43.979  -9.409  10.466  1.00  0.00     0.007 A 
HETATM   17  C   UNL     1      45.274  -9.854  10.198  1.00  0.00     0.003 A 
HETATM   18  C   UNL     1      45.620 -10.256   8.909  1.00  0.00     0.037 A 
ENDBRANCH  11  12
ENDBRANCH   8  11
ENDBRANCH   1   5
BRANCH   2  19
HETATM   19  C   UNL     1      41.169 -16.512   2.903  1.00  0.00     0.123 C 
BRANCH  19  20
HETATM   20  C   UNL     1      40.013 -15.586   2.544  1.00  0.00     0.132 C 
BRANCH  20  21
HETATM   21  N   UNL     1      39.887 -15.359   1.120  1.00  0.00    -0.355 N 
HETATM   22  C   UNL     1      40.422 -14.250   0.495  1.00  0.00     0.275 C 
HETATM   23  O   UNL     1      41.182 -13.475   1.069  1.00  0.00    -0.265 OA
HETATM   24  H   UNL     1      39.210 -15.896   0.588  1.00  0.00     0.162 HD
BRANCH  22  25
HETATM   25  C   UNL     1      39.993 -14.086  -0.879  1.00  0.00     0.142 A 
HETATM   26  O   UNL     1      39.107 -14.984  -1.421  1.00  0.00    -0.317 OA
HETATM   27  C   UNL     1      38.862 -14.584  -2.696  1.00  0.00     0.143 A 
HETATM   28  C   UNL     1      39.573 -13.445  -2.991  1.00  0.00     0.027 A 
HETATM   29  C   UNL     1      40.303 -13.124  -1.822  1.00  0.00     0.045 A 
ENDBRANCH  22  25
ENDBRANCH  20  21
ENDBRANCH  19  20
ENDBRANCH   2  19
TORSDOF 7
ENDMDL
MODEL 10
REMARK VINA RESULT:      -7.2      6.577      9.489
REMARK  7 active torsions:
REMARK  status: ('A' for Active; 'I' for Inactive)
REMARK    1  A    between atoms: C_4  and  O_5 
REMARK    2  A    between atoms: O_5  and  C_6 
REMARK    3  A    between atoms: C_9  and  N_10 
REMARK       I    between atoms: N_10  and  C_11 
REMARK    4  A    between atoms: C_11  and  C_12 
REMARK    5  A    between atoms: C_12  and  C_13 
REMARK    6  A    between atoms: C_13  and  N_14 
REMARK       I    between atoms: N_14  and  C_15 
REMARK    7  A    between atoms: C_15  and  C_16 
ROOT
HETATM    1  N   UNL     1      44.138 -10.903   7.031  1.00  0.00    -0.327 N 
HETATM    2  C   UNL     1      44.452 -10.533   8.326  1.00  0.00     0.223 C 
HETATM    3  O   UNL     1      44.177 -11.152   9.349  1.00  0.00    -0.273 OA
HETATM    4  H   UNL     1      44.401 -10.260   6.294  1.00  0.00     0.169 HD
ENDROOT
BRANCH   1   5
HETATM    5  C   UNL     1      43.529 -12.103   6.604  1.00  0.00     0.034 A 
HETATM    6  C   UNL     1      43.837 -13.365   7.116  1.00  0.00     0.032 A 
HETATM    7  C   UNL     1      43.218 -14.514   6.604  1.00  0.00     0.039 A 
HETATM    8  C   UNL     1      42.267 -14.404   5.591  1.00  0.00     0.076 A 
HETATM    9  C   UNL     1      41.957 -13.148   5.071  1.00  0.00     0.039 A 
HETATM   10  C   UNL     1      42.581 -12.004   5.577  1.00  0.00     0.032 A 
BRANCH   8  11
HETATM   11  O   UNL     1      41.654 -15.476   4.981  1.00  0.00    -0.311 OA
BRANCH  11  12
HETATM   12  C   UNL     1      42.417 -16.334   4.227  1.00  0.00     0.076 A 
HETATM   13  C   UNL     1      43.040 -17.464   4.765  1.00  0.00     0.044 A 
HETATM   14  C   UNL     1      43.760 -18.333   3.935  1.00  0.00    -0.059 A 
HETATM   15  C   UNL     1      44.412 -19.558   4.506  1.00  0.00     0.048 C 
HETATM   16  C   UNL     1      43.806 -18.081   2.557  1.00  0.00     0.007 A 
HETATM   17  C   UNL     1      43.160 -16.966   2.019  1.00  0.00     0.003 A 
HETATM   18  C   UNL     1      42.463 -16.095   2.854  1.00  0.00     0.037 A 
ENDBRANCH  11  12
ENDBRANCH   8  11
ENDBRANCH   1   5
BRANCH   2  19
HETATM   19  C   UNL     1      45.209  -9.222   8.401  1.00  0.00     0.123 C 
BRANCH  19  20
HETATM   20  C   UNL     1      44.218  -8.100   8.688  1.00  0.00     0.132 C 
BRANCH  20  21
HETATM   21  N   UNL     1      43.691  -8.139  10.036  1.00  0.00    -0.355 N 
HETATM   22  C   UNL     1      42.914  -7.124  10.558  1.00  0.00     0.275 C 
HETATM   23  O   UNL     1      42.476  -6.210   9.865  1.00  0.00    -0.265 OA
HETATM   24  H   UNL     1      44.069  -8.807  10.701  1.00  0.00     0.162 HD
BRANCH  22  25
HETATM   25  C   UNL     1      42.681  -7.236  11.984  1.00  0.00     0.142 A 
HETATM   26  O   UNL     1      41.767  -6.406  12.585  1.00  0.00    -0.317 OA
HETATM   27  C   UNL     1      41.731  -6.738  13.902  1.00  0.00     0.143 A 
HETATM   28  C   UNL     1      42.607  -7.765  14.166  1.00  0.00     0.027 A 
HETATM   29  C   UNL     1      43.220  -8.086  12.931  1.00  0.00     0.045 A 
ENDBRANCH  22  25
ENDBRANCH  20  21
ENDBRANCH  19  20
ENDBRANCH   2  19
TORSDOF 7
ENDMDL
