MODEL 1
REMARK VINA RESULT:      -8.0      0.000      0.000
REMARK  4 active torsions:
REMARK  status: ('A' for Active; 'I' for Inactive)
REMARK    1  A    between atoms: C_2  and  N_3 
REMARK    2  A    between atoms: C_11  and  C_12 
REMARK    3  A    between atoms: C_12  and  N_13 
REMARK    4  A    between atoms: C_16  and  N_17 
ROOT
HETATM    1  N   UNL     1      42.332 -15.026   3.701  1.00  0.00    -0.065 N 
HETATM    2  H   UNL     1      41.547 -15.496   3.221  1.00  0.00     0.280 HD
HETATM    3  C   UNL     1      43.394 -16.047   4.069  1.00  0.00     0.268 C 
HETATM    4  C   UNL     1      42.911 -17.197   5.018  1.00  0.00     0.214 C 
HETATM    5  C   UNL     1      42.678 -16.690   6.448  1.00  0.00     0.035 C 
HETATM    6  C   UNL     1      41.310 -16.055   6.694  1.00  0.00     0.004 C 
HETATM    7  C   UNL     1      40.725 -15.177   5.594  1.00  0.00     0.028 C 
HETATM    8  C   UNL     1      41.716 -14.275   4.875  1.00  0.00     0.235 C 
ENDROOT
BRANCH   1   9
HETATM    9  C   UNL     1      42.847 -14.021   2.646  1.00  0.00     0.276 C 
BRANCH   9  10
HETATM   10  C   UNL     1      41.839 -13.658   1.594  1.00  0.00     0.009 A 
HETATM   11  C   UNL     1      41.504 -12.327   1.317  1.00  0.00     0.136 A 
HETATM   12  N   UNL     1      40.603 -11.898   0.418  1.00  0.00    -0.216 NA
HETATM   13 CL   UNL     1      42.164 -11.033   2.250  1.00  0.00    -0.062 Cl
HETATM   14  C   UNL     1      40.036 -12.895  -0.288  1.00  0.00     0.159 A 
HETATM   15  N   UNL     1      39.127 -12.783  -1.313  1.00  0.00    -0.248 N 
HETATM   16  C   UNL     1      40.267 -14.255  -0.131  1.00  0.00     0.031 A 
HETATM   17  N   UNL     1      38.689 -13.983  -1.758  1.00  0.00    -0.182 NA
HETATM   18  C   UNL     1      39.418 -14.867  -1.075  1.00  0.00     0.154 A 
HETATM   19  C   UNL     1      41.203 -14.659   0.837  1.00  0.00     0.029 A 
BRANCH  15  20
HETATM   20  C   UNL     1      38.634 -11.544  -1.911  1.00  0.00     0.104 C 
HETATM   21  C   UNL     1      37.232 -11.730  -2.485  1.00  0.00     0.034 C 
HETATM   22  C   UNL     1      39.600 -10.995  -2.963  1.00  0.00     0.034 C 
ENDBRANCH  15  20
ENDBRANCH   9  10
ENDBRANCH   1   9
BRANCH   4  23
HETATM   23  N   UNL     1      43.920 -18.357   5.090  1.00  0.00    -0.065 N 
HETATM   24  H   UNL     1      44.788 -17.959   5.490  1.00  0.00     0.280 HD
HETATM   25  C   UNL     1      44.363 -19.007   3.781  1.00  0.00     0.235 C 
HETATM   26  C   UNL     1      43.861 -20.431   3.890  1.00  0.00     0.029 C 
HETATM   27  C   UNL     1      44.042 -20.748   5.360  1.00  0.00     0.029 C 
HETATM   28  C   UNL     1      43.565 -19.490   6.059  1.00  0.00     0.235 C 
ENDBRANCH   4  23
TORSDOF 4
ENDMDL
MODEL 2
REMARK VINA RESULT:      -8.0      4.260      7.510
REMARK  4 active torsions:
REMARK  status: ('A' for Active; 'I' for Inactive)
REMARK    1  A    between atoms: C_2  and  N_3 
REMARK    2  A    between atoms: C_11  and  C_12 
REMARK    3  A    between atoms: C_12  and  N_13 
REMARK    4  A    between atoms: C_16  and  N_17 
ROOT
HETATM    1  N   UNL     1      43.194 -13.631   3.248  1.00  0.00    -0.065 N 
HETATM    2  H   UNL     1      44.225 -13.657   3.180  1.00  0.00     0.280 HD
HETATM    3  C   UNL     1      42.738 -14.446   4.446  1.00  0.00     0.268 C 
HETATM    4  C   UNL     1      43.150 -15.958   4.418  1.00  0.00     0.214 C 
HETATM    5  C   UNL     1      42.343 -16.744   3.375  1.00  0.00     0.035 C 
HETATM    6  C   UNL     1      42.889 -16.678   1.950  1.00  0.00     0.004 C 
HETATM    7  C   UNL     1      43.447 -15.346   1.463  1.00  0.00     0.028 C 
HETATM    8  C   UNL     1      42.674 -14.110   1.898  1.00  0.00     0.235 C 
ENDROOT
BRANCH   1   9
HETATM    9  C   UNL     1      42.883 -12.128   3.427  1.00  0.00     0.276 C 
BRANCH   9  10
HETATM   10  C   UNL     1      43.254 -11.577   4.774  1.00  0.00     0.009 A 
HETATM   11  C   UNL     1      42.299 -11.034   5.642  1.00  0.00     0.136 A 
HETATM   12  N   UNL     1      42.527 -10.496   6.851  1.00  0.00    -0.216 NA
HETATM   13 CL   UNL     1      40.648 -10.878   5.157  1.00  0.00    -0.062 Cl
HETATM   14  C   UNL     1      43.819 -10.561   7.228  1.00  0.00     0.159 A 
HETATM   15  N   UNL     1      44.362 -10.153   8.424  1.00  0.00    -0.248 N 
HETATM   16  C   UNL     1      44.874 -11.069   6.484  1.00  0.00     0.031 A 
HETATM   17  N   UNL     1      45.708 -10.279   8.456  1.00  0.00    -0.182 NA
HETATM   18  C   UNL     1      46.005 -10.878   7.303  1.00  0.00     0.154 A 
HETATM   19  C   UNL     1      44.590 -11.603   5.215  1.00  0.00     0.029 A 
BRANCH  15  20
HETATM   20  C   UNL     1      43.636  -9.629   9.579  1.00  0.00     0.104 C 
HETATM   21  C   UNL     1      43.620  -8.102   9.571  1.00  0.00     0.034 C 
HETATM   22  C   UNL     1      44.190 -10.174  10.896  1.00  0.00     0.034 C 
ENDBRANCH  15  20
ENDBRANCH   9  10
ENDBRANCH   1   9
BRANCH   4  23
HETATM   23  N   UNL     1      42.949 -16.642   5.781  1.00  0.00    -0.065 N 
HETATM   24  H   UNL     1      42.527 -17.565   5.581  1.00  0.00     0.280 HD
HETATM   25  C   UNL     1      41.993 -15.991   6.779  1.00  0.00     0.235 C 
HETATM   26  C   UNL     1      42.882 -15.612   7.945  1.00  0.00     0.029 C 
HETATM   27  C   UNL     1      43.879 -16.750   8.001  1.00  0.00     0.029 C 
HETATM   28  C   UNL     1      44.231 -16.991   6.546  1.00  0.00     0.235 C 
ENDBRANCH   4  23
TORSDOF 4
ENDMDL
MODEL 3
REMARK VINA RESULT:      -7.8      4.238      8.129
REMARK  4 active torsions:
REMARK  status: ('A' for Active; 'I' for Inactive)
REMARK    1  A    between atoms: C_2  and  N_3 
REMARK    2  A    between atoms: C_11  and  C_12 
REMARK    3  A    between atoms: C_12  and  N_13 
REMARK    4  A    between atoms: C_16  and  N_17 
ROOT
HETATM    1  N   UNL     1      42.160 -12.406   5.195  1.00  0.00    -0.065 N 
HETATM    2  H   UNL     1      41.713 -13.093   5.823  1.00  0.00     0.280 HD
HETATM    3  C   UNL     1      43.398 -11.831   5.862  1.00  0.00     0.268 C 
HETATM    4  C   UNL     1      43.141 -11.098   7.223  1.00  0.00     0.214 C 
HETATM    5  C   UNL     1      42.434  -9.751   7.015  1.00  0.00     0.035 C 
HETATM    6  C   UNL     1      40.914  -9.830   6.892  1.00  0.00     0.004 C 
HETATM    7  C   UNL     1      40.324 -10.997   6.107  1.00  0.00     0.028 C 
HETATM    8  C   UNL     1      41.078 -11.391   4.847  1.00  0.00     0.235 C 
ENDROOT
BRANCH   1   9
HETATM    9  C   UNL     1      42.520 -13.240   3.945  1.00  0.00     0.276 C 
BRANCH   9  10
HETATM   10  C   UNL     1      42.842 -14.678   4.234  1.00  0.00     0.009 A 
HETATM   11  C   UNL     1      43.309 -15.547   3.241  1.00  0.00     0.136 A 
HETATM   12  N   UNL     1      43.602 -16.849   3.389  1.00  0.00    -0.216 NA
HETATM   13 CL   UNL     1      43.441 -15.029   1.599  1.00  0.00    -0.062 Cl
HETATM   14  C   UNL     1      43.458 -17.290   4.653  1.00  0.00     0.159 A 
HETATM   15  N   UNL     1      43.731 -18.547   5.138  1.00  0.00    -0.248 N 
HETATM   16  C   UNL     1      43.009 -16.551   5.740  1.00  0.00     0.031 A 
HETATM   17  N   UNL     1      43.397 -18.689   6.441  1.00  0.00    -0.182 NA
HETATM   18  C   UNL     1      43.009 -17.468   6.811  1.00  0.00     0.154 A 
HETATM   19  C   UNL     1      42.694 -15.197   5.534  1.00  0.00     0.029 A 
BRANCH  15  20
HETATM   20  C   UNL     1      44.314 -19.661   4.394  1.00  0.00     0.104 C 
HETATM   21  C   UNL     1      43.659 -19.810   3.023  1.00  0.00     0.034 C 
HETATM   22  C   UNL     1      44.255 -20.968   5.187  1.00  0.00     0.034 C 
ENDBRANCH  15  20
ENDBRANCH   9  10
ENDBRANCH   1   9
BRANCH   4  23
HETATM   23  N   UNL     1      44.444 -10.830   7.996  1.00  0.00    -0.065 N 
HETATM   24  H   UNL     1      44.663 -11.705   8.504  1.00  0.00     0.280 HD
HETATM   25  C   UNL     1      44.432  -9.751   9.077  1.00  0.00     0.235 C 
HETATM   26  C   UNL     1      45.404  -8.709   8.567  1.00  0.00     0.029 C 
HETATM   27  C   UNL     1      46.476  -9.540   7.893  1.00  0.00     0.029 C 
HETATM   28  C   UNL     1      45.691 -10.593   7.136  1.00  0.00     0.235 C 
ENDBRANCH   4  23
TORSDOF 4
ENDMDL
MODEL 4
REMARK VINA RESULT:      -7.8      2.284      3.985
REMARK  4 active torsions:
REMARK  status: ('A' for Active; 'I' for Inactive)
REMARK    1  A    between atoms: C_2  and  N_3 
REMARK    2  A    between atoms: C_11  and  C_12 
REMARK    3  A    between atoms: C_12  and  N_13 
REMARK    4  A    between atoms: C_16  and  N_17 
ROOT
HETATM    1  N   UNL     1      41.281 -14.991   3.041  1.00  0.00    -0.065 N 
HETATM    2  H   UNL     1      41.919 -14.776   2.257  1.00  0.00     0.280 HD
HETATM    3  C   UNL     1      41.486 -13.984   4.160  1.00  0.00     0.268 C 
HETATM    4  C   UNL     1      42.935 -13.938   4.757  1.00  0.00     0.214 C 
HETATM    5  C   UNL     1      43.236 -15.180   5.606  1.00  0.00     0.035 C 
HETATM    6  C   UNL     1      43.713 -16.401   4.821  1.00  0.00     0.004 C 
HETATM    7  C   UNL     1      43.053 -16.683   3.475  1.00  0.00     0.028 C 
HETATM    8  C   UNL     1      41.552 -16.443   3.415  1.00  0.00     0.235 C 
ENDROOT
BRANCH   1   9
HETATM    9  C   UNL     1      39.878 -14.864   2.408  1.00  0.00     0.276 C 
BRANCH   9  10
HETATM   10  C   UNL     1      39.841 -14.057   1.142  1.00  0.00     0.009 A 
HETATM   11  C   UNL     1      39.531 -12.692   1.141  1.00  0.00     0.136 A 
HETATM   12  N   UNL     1      39.449 -11.890   0.068  1.00  0.00    -0.216 NA
HETATM   13 CL   UNL     1      39.072 -11.887   2.598  1.00  0.00    -0.062 Cl
HETATM   14  C   UNL     1      39.753 -12.510  -1.088  1.00  0.00     0.159 A 
HETATM   15  N   UNL     1      39.817 -11.955  -2.344  1.00  0.00    -0.248 N 
HETATM   16  C   UNL     1      40.081 -13.850  -1.246  1.00  0.00     0.031 A 
HETATM   17  N   UNL     1      40.070 -12.869  -3.308  1.00  0.00    -0.182 NA
HETATM   18  C   UNL     1      40.278 -14.002  -2.634  1.00  0.00     0.154 A 
HETATM   19  C   UNL     1      40.135 -14.657  -0.097  1.00  0.00     0.029 A 
BRANCH  15  20
HETATM   20  C   UNL     1      39.641 -10.545  -2.685  1.00  0.00     0.104 C 
HETATM   21  C   UNL     1      38.246 -10.286  -3.249  1.00  0.00     0.034 C 
HETATM   22  C   UNL     1      40.730 -10.049  -3.638  1.00  0.00     0.034 C 
ENDBRANCH  15  20
ENDBRANCH   9  10
ENDBRANCH   1   9
BRANCH   4  23
HETATM   23  N   UNL     1      43.162 -12.699   5.640  1.00  0.00    -0.065 N 
HETATM   24  H   UNL     1      42.222 -12.332   5.870  1.00  0.00     0.280 HD
HETATM   25  C   UNL     1      43.899 -11.507   5.033  1.00  0.00     0.235 C 
HETATM   26  C   UNL     1      45.163 -11.398   5.859  1.00  0.00     0.029 C 
HETATM   27  C   UNL     1      44.698 -11.776   7.250  1.00  0.00     0.029 C 
HETATM   28  C   UNL     1      43.789 -12.966   7.013  1.00  0.00     0.235 C 
ENDBRANCH   4  23
TORSDOF 4
ENDMDL
MODEL 5
REMARK VINA RESULT:      -7.6      4.082      8.425
REMARK  4 active torsions:
REMARK  status: ('A' for Active; 'I' for Inactive)
REMARK    1  A    between atoms: C_2  and  N_3 
REMARK    2  A    between atoms: C_11  and  C_12 
REMARK    3  A    between atoms: C_12  and  N_13 
REMARK    4  A    between atoms: C_16  and  N_17 
ROOT
HETATM    1  N   UNL     1      41.904 -12.834   2.875  1.00  0.00    -0.065 N 
HETATM    2  H   UNL     1      41.193 -12.651   3.603  1.00  0.00     0.280 HD
HETATM    3  C   UNL     1      41.247 -12.839   1.506  1.00  0.00     0.268 C 
HETATM    4  C   UNL     1      40.119 -13.910   1.314  1.00  0.00     0.214 C 
HETATM    5  C   UNL     1      40.696 -15.329   1.217  1.00  0.00     0.035 C 
HETATM    6  C   UNL     1      40.968 -16.010   2.557  1.00  0.00     0.004 C 
HETATM    7  C   UNL     1      41.536 -15.157   3.686  1.00  0.00     0.028 C 
HETATM    8  C   UNL     1      42.586 -14.136   3.275  1.00  0.00     0.235 C 
ENDROOT
BRANCH   1   9
HETATM    9  C   UNL     1      42.890 -11.654   3.031  1.00  0.00     0.276 C 
BRANCH   9  10
HETATM   10  C   UNL     1      43.206 -11.295   4.455  1.00  0.00     0.009 A 
HETATM   11  C   UNL     1      42.262 -10.689   5.293  1.00  0.00     0.136 A 
HETATM   12  N   UNL     1      42.450 -10.309   6.567  1.00  0.00    -0.216 NA
HETATM   13 CL   UNL     1      40.710 -10.228   4.693  1.00  0.00    -0.062 Cl
HETATM   14  C   UNL     1      43.673 -10.613   7.041  1.00  0.00     0.159 A 
HETATM   15  N   UNL     1      44.152 -10.409   8.314  1.00  0.00    -0.248 N 
HETATM   16  C   UNL     1      44.708 -11.213   6.336  1.00  0.00     0.031 A 
HETATM   17  N   UNL     1      45.454 -10.751   8.444  1.00  0.00    -0.182 NA
HETATM   18  C   UNL     1      45.769 -11.282   7.261  1.00  0.00     0.154 A 
HETATM   19  C   UNL     1      44.473 -11.575   4.999  1.00  0.00     0.029 A 
BRANCH  15  20
HETATM   20  C   UNL     1      43.404  -9.884   9.454  1.00  0.00     0.104 C 
HETATM   21  C   UNL     1      43.413  -8.357   9.461  1.00  0.00     0.034 C 
HETATM   22  C   UNL     1      43.912 -10.452  10.780  1.00  0.00     0.034 C 
ENDBRANCH  15  20
ENDBRANCH   9  10
ENDBRANCH   1   9
BRANCH   4  23
HETATM   23  N   UNL     1      39.283 -13.656   0.047  1.00  0.00    -0.065 N 
HETATM   24  H   UNL     1      38.293 -13.758   0.329  1.00  0.00     0.280 HD
HETATM   25  C   UNL     1      39.449 -14.615  -1.130  1.00  0.00     0.235 C 
HETATM   26  C   UNL     1      40.012 -13.747  -2.235  1.00  0.00     0.029 C 
HETATM   27  C   UNL     1      39.310 -12.422  -2.023  1.00  0.00     0.029 C 
HETATM   28  C   UNL     1      39.350 -12.233  -0.519  1.00  0.00     0.235 C 
ENDBRANCH   4  23
TORSDOF 4
ENDMDL
MODEL 6
REMARK VINA RESULT:      -7.6      4.582      7.379
REMARK  4 active torsions:
REMARK  status: ('A' for Active; 'I' for Inactive)
REMARK    1  A    between atoms: C_2  and  N_3 
REMARK    2  A    between atoms: C_11  and  C_12 
REMARK    3  A    between atoms: C_12  and  N_13 
REMARK    4  A    between atoms: C_16  and  N_17 
ROOT
HETATM    1  N   UNL     1      42.188 -13.725   4.516  1.00  0.00    -0.065 N 
HETATM    2  H   UNL     1      41.348 -13.786   3.916  1.00  0.00     0.280 HD
HETATM    3  C   UNL     1      43.180 -14.804   4.118  1.00  0.00     0.268 C 
HETATM    4  C   UNL     1      42.648 -16.274   4.234  1.00  0.00     0.214 C 
HETATM    5  C   UNL     1      42.516 -16.714   5.699  1.00  0.00     0.035 C 
HETATM    6  C   UNL     1      41.214 -16.301   6.383  1.00  0.00     0.004 C 
HETATM    7  C   UNL     1      40.654 -14.917   6.071  1.00  0.00     0.028 C 
HETATM    8  C   UNL     1      41.683 -13.803   5.952  1.00  0.00     0.235 C 
ENDROOT
BRANCH   1   9
HETATM    9  C   UNL     1      42.735 -12.310   4.227  1.00  0.00     0.276 C 
BRANCH   9  10
HETATM   10  C   UNL     1      43.099 -11.525   5.455  1.00  0.00     0.009 A 
HETATM   11  C   UNL     1      42.194 -10.655   6.074  1.00  0.00     0.136 A 
HETATM   12  N   UNL     1      42.427  -9.894   7.155  1.00  0.00    -0.216 NA
HETATM   13 CL   UNL     1      40.636 -10.363   5.390  1.00  0.00    -0.062 Cl
HETATM   14  C   UNL     1      43.656 -10.067   7.677  1.00  0.00     0.159 A 
HETATM   15  N   UNL     1      44.176  -9.482   8.807  1.00  0.00    -0.248 N 
HETATM   16  C   UNL     1      44.657 -10.891   7.180  1.00  0.00     0.031 A 
HETATM   17  N   UNL     1      45.473  -9.803   9.013  1.00  0.00    -0.182 NA
HETATM   18  C   UNL     1      45.743 -10.692   8.056  1.00  0.00     0.154 A 
HETATM   19  C   UNL     1      44.376 -11.654   6.033  1.00  0.00     0.029 A 
BRANCH  15  20
HETATM   20  C   UNL     1      43.473  -8.598   9.735  1.00  0.00     0.104 C 
HETATM   21  C   UNL     1      43.591  -7.140   9.300  1.00  0.00     0.034 C 
HETATM   22  C   UNL     1      43.946  -8.792  11.176  1.00  0.00     0.034 C 
ENDBRANCH  15  20
ENDBRANCH   9  10
ENDBRANCH   1   9
BRANCH   4  23
HETATM   23  N   UNL     1      43.565 -17.283   3.521  1.00  0.00    -0.065 N 
HETATM   24  H   UNL     1      44.481 -16.815   3.414  1.00  0.00     0.280 HD
HETATM   25  C   UNL     1      43.191 -17.722   2.107  1.00  0.00     0.235 C 
HETATM   26  C   UNL     1      42.920 -19.206   2.243  1.00  0.00     0.029 C 
HETATM   27  C   UNL     1      43.942 -19.650   3.268  1.00  0.00     0.029 C 
HETATM   28  C   UNL     1      43.901 -18.552   4.313  1.00  0.00     0.235 C 
ENDBRANCH   4  23
TORSDOF 4
ENDMDL
MODEL 7
REMARK VINA RESULT:      -7.5      5.714      8.656
REMARK  4 active torsions:
REMARK  status: ('A' for Active; 'I' for Inactive)
REMARK    1  A    between atoms: C_2  and  N_3 
REMARK    2  A    between atoms: C_11  and  C_12 
REMARK    3  A    between atoms: C_12  and  N_13 
REMARK    4  A    between atoms: C_16  and  N_17 
ROOT
HETATM    1  N   UNL     1      42.767 -10.488   7.816  1.00  0.00    -0.065 N 
HETATM    2  H   UNL     1      42.241 -11.355   8.016  1.00  0.00     0.280 HD
HETATM    3  C   UNL     1      43.375  -9.949   9.099  1.00  0.00     0.268 C 
HETATM    4  C   UNL     1      42.345  -9.600  10.228  1.00  0.00     0.214 C 
HETATM    5  C   UNL     1      41.543  -8.336   9.890  1.00  0.00     0.035 C 
HETATM    6  C   UNL     1      40.326  -8.561   8.996  1.00  0.00     0.004 C 
HETATM    7  C   UNL     1      40.456  -9.567   7.856  1.00  0.00     0.028 C 
HETATM    8  C   UNL     1      41.786  -9.555   7.118  1.00  0.00     0.235 C 
ENDROOT
BRANCH   1   9
HETATM    9  C   UNL     1      43.853 -10.950   6.819  1.00  0.00     0.276 C 
BRANCH   9  10
HETATM   10  C   UNL     1      43.551 -12.251   6.133  1.00  0.00     0.009 A 
HETATM   11  C   UNL     1      43.167 -12.309   4.788  1.00  0.00     0.136 A 
HETATM   12  N   UNL     1      42.853 -13.413   4.091  1.00  0.00    -0.216 NA
HETATM   13 CL   UNL     1      42.921 -10.865   3.874  1.00  0.00    -0.062 Cl
HETATM   14  C   UNL     1      42.988 -14.550   4.801  1.00  0.00     0.159 A 
HETATM   15  N   UNL     1      42.801 -15.838   4.360  1.00  0.00    -0.248 N 
HETATM   16  C   UNL     1      43.361 -14.653   6.134  1.00  0.00     0.031 A 
HETATM   17  N   UNL     1      42.936 -16.753   5.347  1.00  0.00    -0.182 NA
HETATM   18  C   UNL     1      43.323 -16.036   6.403  1.00  0.00     0.154 A 
HETATM   19  C   UNL     1      43.660 -13.469   6.830  1.00  0.00     0.029 A 
BRANCH  15  20
HETATM   20  C   UNL     1      42.487 -16.258   2.997  1.00  0.00     0.104 C 
HETATM   21  C   UNL     1      40.981 -16.229   2.746  1.00  0.00     0.034 C 
HETATM   22  C   UNL     1      43.081 -17.628   2.670  1.00  0.00     0.034 C 
ENDBRANCH  15  20
ENDBRANCH   9  10
ENDBRANCH   1   9
BRANCH   4  23
HETATM   23  N   UNL     1      43.026  -9.374  11.589  1.00  0.00    -0.065 N 
HETATM   24  H   UNL     1      44.006  -9.689  11.477  1.00  0.00     0.280 HD
HETATM   25  C   UNL     1      42.507 -10.158  12.793  1.00  0.00     0.235 C 
HETATM   26  C   UNL     1      41.979  -9.089  13.727  1.00  0.00     0.029 C 
HETATM   27  C   UNL     1      42.955  -7.948  13.530  1.00  0.00     0.029 C 
HETATM   28  C   UNL     1      43.167  -7.913  12.029  1.00  0.00     0.235 C 
ENDBRANCH   4  23
TORSDOF 4
ENDMDL
MODEL 8
REMARK VINA RESULT:      -7.5      3.948      7.277
REMARK  4 active torsions:
REMARK  status: ('A' for Active; 'I' for Inactive)
REMARK    1  A    between atoms: C_2  and  N_3 
REMARK    2  A    between atoms: C_11  and  C_12 
REMARK    3  A    between atoms: C_12  and  N_13 
REMARK    4  A    between atoms: C_16  and  N_17 
ROOT
HETATM    1  N   UNL     1      40.458 -13.106   3.316  1.00  0.00    -0.065 N 
HETATM    2  H   UNL     1      41.361 -12.685   3.041  1.00  0.00     0.280 HD
HETATM    3  C   UNL     1      40.675 -14.543   3.756  1.00  0.00     0.268 C 
HETATM    4  C   UNL     1      41.298 -15.485   2.668  1.00  0.00     0.214 C 
HETATM    5  C   UNL     1      40.290 -15.810   1.558  1.00  0.00     0.035 C 
HETATM    6  C   UNL     1      40.192 -14.767   0.447  1.00  0.00     0.004 C 
HETATM    7  C   UNL     1      40.264 -13.296   0.843  1.00  0.00     0.028 C 
HETATM    8  C   UNL     1      39.529 -12.923   2.122  1.00  0.00     0.235 C 
ENDROOT
BRANCH   1   9
HETATM    9  C   UNL     1      39.989 -12.215   4.488  1.00  0.00     0.276 C 
BRANCH   9  10
HETATM   10  C   UNL     1      41.094 -11.745   5.389  1.00  0.00     0.009 A 
HETATM   11  C   UNL     1      40.972 -10.592   6.174  1.00  0.00     0.136 A 
HETATM   12  N   UNL     1      41.905 -10.076   6.990  1.00  0.00    -0.216 NA
HETATM   13 CL   UNL     1      39.570  -9.590   6.065  1.00  0.00    -0.062 Cl
HETATM   14  C   UNL     1      43.029 -10.815   7.052  1.00  0.00     0.159 A 
HETATM   15  N   UNL     1      44.138 -10.588   7.833  1.00  0.00    -0.248 N 
HETATM   16  C   UNL     1      43.296 -11.976   6.339  1.00  0.00     0.031 A 
HETATM   17  N   UNL     1      45.133 -11.473   7.598  1.00  0.00    -0.182 NA
HETATM   18  C   UNL     1      44.601 -12.337   6.733  1.00  0.00     0.154 A 
HETATM   19  C   UNL     1      42.298 -12.468   5.481  1.00  0.00     0.029 A 
BRANCH  15  20
HETATM   20  C   UNL     1      44.303  -9.531   8.828  1.00  0.00     0.104 C 
HETATM   21  C   UNL     1      45.673  -8.870   8.705  1.00  0.00     0.034 C 
HETATM   22  C   UNL     1      44.054 -10.041  10.248  1.00  0.00     0.034 C 
ENDBRANCH  15  20
ENDBRANCH   9  10
ENDBRANCH   1   9
BRANCH   4  23
HETATM   23  N   UNL     1      41.788 -16.817   3.263  1.00  0.00    -0.065 N 
HETATM   24  H   UNL     1      40.949 -17.415   3.361  1.00  0.00     0.280 HD
HETATM   25  C   UNL     1      42.410 -16.797   4.657  1.00  0.00     0.235 C 
HETATM   26  C   UNL     1      43.840 -17.238   4.428  1.00  0.00     0.029 C 
HETATM   27  C   UNL     1      43.709 -18.270   3.326  1.00  0.00     0.029 C 
HETATM   28  C   UNL     1      42.716 -17.645   2.366  1.00  0.00     0.235 C 
ENDBRANCH   4  23
TORSDOF 4
ENDMDL
MODEL 9
REMARK VINA RESULT:      -7.4      6.209      9.415
REMARK  4 active torsions:
REMARK  status: ('A' for Active; 'I' for Inactive)
REMARK    1  A    between atoms: C_2  and  N_3 
REMARK    2  A    between atoms: C_11  and  C_12 
REMARK    3  A    between atoms: C_12  and  N_13 
REMARK    4  A    between atoms: C_16  and  N_17 
ROOT
HETATM    1  N   UNL     1      41.585  -9.919   8.141  1.00  0.00    -0.065 N 
HETATM    2  H   UNL     1      41.259 -10.870   8.381  1.00  0.00     0.280 HD
HETATM    3  C   UNL     1      42.426  -9.365   9.278  1.00  0.00     0.268 C 
HETATM    4  C   UNL     1      41.690  -9.254  10.658  1.00  0.00     0.214 C 
HETATM    5  C   UNL     1      40.656  -8.120  10.659  1.00  0.00     0.035 C 
HETATM    6  C   UNL     1      39.291  -8.489  10.080  1.00  0.00     0.004 C 
HETATM    7  C   UNL     1      39.259  -9.390   8.851  1.00  0.00     0.028 C 
HETATM    8  C   UNL     1      40.332  -9.119   7.807  1.00  0.00     0.235 C 
ENDROOT
BRANCH   1   9
HETATM    9  C   UNL     1      42.425 -10.138   6.863  1.00  0.00     0.276 C 
BRANCH   9  10
HETATM   10  C   UNL     1      42.613 -11.580   6.486  1.00  0.00     0.009 A 
HETATM   11  C   UNL     1      43.782 -12.282   6.799  1.00  0.00     0.136 A 
HETATM   12  N   UNL     1      44.058 -13.559   6.489  1.00  0.00    -0.216 NA
HETATM   13 CL   UNL     1      45.119 -11.489   7.551  1.00  0.00    -0.062 Cl
HETATM   14  C   UNL     1      43.047 -14.185   5.855  1.00  0.00     0.159 A 
HETATM   15  N   UNL     1      42.996 -15.500   5.458  1.00  0.00    -0.248 N 
HETATM   16  C   UNL     1      41.833 -13.625   5.481  1.00  0.00     0.031 A 
HETATM   17  N   UNL     1      41.869 -15.795   4.770  1.00  0.00    -0.182 NA
HETATM   18  C   UNL     1      41.149 -14.673   4.831  1.00  0.00     0.154 A 
HETATM   19  C   UNL     1      41.596 -12.279   5.809  1.00  0.00     0.029 A 
BRANCH  15  20
HETATM   20  C   UNL     1      44.003 -16.528   5.708  1.00  0.00     0.104 C 
HETATM   21  C   UNL     1      44.027 -17.560   4.583  1.00  0.00     0.034 C 
HETATM   22  C   UNL     1      43.814 -17.192   7.073  1.00  0.00     0.034 C 
ENDBRANCH  15  20
ENDBRANCH   9  10
ENDBRANCH   1   9
BRANCH   4  23
HETATM   23  N   UNL     1      42.666  -9.001  11.820  1.00  0.00    -0.065 N 
HETATM   24  H   UNL     1      43.607  -9.244  11.465  1.00  0.00     0.280 HD
HETATM   25  C   UNL     1      42.507  -9.836  13.089  1.00  0.00     0.235 C 
HETATM   26  C   UNL     1      42.154  -8.821  14.155  1.00  0.00     0.029 C 
HETATM   27  C   UNL     1      42.977  -7.611  13.764  1.00  0.00     0.029 C 
HETATM   28  C   UNL     1      42.815  -7.539  12.258  1.00  0.00     0.235 C 
ENDBRANCH   4  23
TORSDOF 4
ENDMDL
MODEL 10
REMARK VINA RESULT:      -7.3      5.089      8.180
REMARK  4 active torsions:
REMARK  status: ('A' for Active; 'I' for Inactive)
REMARK    1  A    between atoms: C_2  and  N_3 
REMARK    2  A    between atoms: C_11  and  C_12 
REMARK    3  A    between atoms: C_12  and  N_13 
REMARK    4  A    between atoms: C_16  and  N_17 
ROOT
HETATM    1  N   UNL     1      40.786 -10.377   7.284  1.00  0.00    -0.065 N 
HETATM    2  H   UNL     1      40.774 -11.309   7.730  1.00  0.00     0.280 HD
HETATM    3  C   UNL     1      41.976  -9.581   7.792  1.00  0.00     0.268 C 
HETATM    4  C   UNL     1      42.004  -9.342   9.342  1.00  0.00     0.214 C 
HETATM    5  C   UNL     1      40.938  -8.326   9.776  1.00  0.00     0.035 C 
HETATM    6  C   UNL     1      39.544  -8.908   9.998  1.00  0.00     0.004 C 
HETATM    7  C   UNL     1      39.057  -9.979   9.029  1.00  0.00     0.028 C 
HETATM    8  C   UNL     1      39.422  -9.760   7.568  1.00  0.00     0.235 C 
ENDROOT
BRANCH   1   9
HETATM    9  C   UNL     1      40.915 -10.698   5.779  1.00  0.00     0.276 C 
BRANCH   9  10
HETATM   10  C   UNL     1      41.315 -12.115   5.481  1.00  0.00     0.009 A 
HETATM   11  C   UNL     1      42.399 -12.419   4.649  1.00  0.00     0.136 A 
HETATM   12  N   UNL     1      42.822 -13.645   4.302  1.00  0.00    -0.216 NA
HETATM   13 CL   UNL     1      43.271 -11.171   3.836  1.00  0.00    -0.062 Cl
HETATM   14  C   UNL     1      42.123 -14.638   4.885  1.00  0.00     0.159 A 
HETATM   15  N   UNL     1      42.343 -15.990   4.779  1.00  0.00    -0.248 N 
HETATM   16  C   UNL     1      41.031 -14.494   5.730  1.00  0.00     0.031 A 
HETATM   17  N   UNL     1      41.408 -16.725   5.424  1.00  0.00    -0.182 NA
HETATM   18  C   UNL     1      40.649 -15.815   6.037  1.00  0.00     0.154 A 
HETATM   19  C   UNL     1      40.610 -13.192   6.050  1.00  0.00     0.029 A 
BRANCH  15  20
HETATM   20  C   UNL     1      43.440 -16.644   4.068  1.00  0.00     0.104 C 
HETATM   21  C   UNL     1      42.959 -17.244   2.749  1.00  0.00     0.034 C 
HETATM   22  C   UNL     1      44.140 -17.690   4.936  1.00  0.00     0.034 C 
ENDBRANCH  15  20
ENDBRANCH   9  10
ENDBRANCH   1   9
BRANCH   4  23
HETATM   23  N   UNL     1      43.370  -8.826   9.826  1.00  0.00    -0.065 N 
HETATM   24  H   UNL     1      43.170  -8.124  10.560  1.00  0.00     0.280 HD
HETATM   25  C   UNL     1      44.259  -8.091   8.825  1.00  0.00     0.235 C 
HETATM   26  C   UNL     1      45.481  -8.977   8.700  1.00  0.00     0.029 C 
HETATM   27  C   UNL     1      45.663  -9.511  10.105  1.00  0.00     0.029 C 
HETATM   28  C   UNL     1      44.253  -9.853  10.544  1.00  0.00     0.235 C 
ENDBRANCH   4  23
TORSDOF 4
ENDMDL
