MODEL 1
REMARK VINA RESULT:     -10.4      0.000      0.000
REMARK  7 active torsions:
REMARK  status: ('A' for Active; 'I' for Inactive)
REMARK    1  A    between atoms: C_4  and  C_5 
REMARK    2  A    between atoms: C_5  and  C_6 
REMARK    3  A    between atoms: C_6  and  N_7 
REMARK       I    between atoms: N_7  and  C_8 
REMARK    4  A    between atoms: C_8  and  C_9 
REMARK    5  A    between atoms: C_10  and  N_11 
REMARK    6  A    between atoms: N_12  and  N_13 
REMARK    7  A    between atoms: C_14  and  C_15 
ROOT
HETATM    1  C   UNL     1      42.829 -12.362   4.217  1.00  0.00     0.104 C 
HETATM    2  C   UNL     1      42.452 -11.775   3.020  1.00  0.00     0.123 C 
HETATM    3  N   UNL     1      41.989 -12.783   2.172  1.00  0.00    -0.202 N 
HETATM    4  C   UNL     1      42.437 -13.988   2.684  1.00  0.00     0.183 A 
HETATM    5  C   UNL     1      42.887 -13.755   3.981  1.00  0.00     0.124 A 
HETATM    6  N   UNL     1      43.325 -14.768   4.772  1.00  0.00    -0.242 NA
HETATM    7  C   UNL     1      43.368 -15.970   4.166  1.00  0.00     0.086 A 
HETATM    8  C   UNL     1      42.920 -16.178   2.833  1.00  0.00     0.088 A 
HETATM    9  N   UNL     1      42.404 -15.198   2.078  1.00  0.00    -0.225 NA
HETATM   10  C   UNL     1      43.893 -17.050   4.866  1.00  0.00     0.034 A 
HETATM   11  C   UNL     1      44.005 -18.316   4.288  1.00  0.00     0.002 A 
HETATM   12  C   UNL     1      43.573 -18.514   2.985  1.00  0.00     0.002 A 
HETATM   13  C   UNL     1      43.030 -17.445   2.274  1.00  0.00     0.034 A 
ENDROOT
BRANCH   1  14
HETATM   14  C   UNL     1      43.161 -11.596   5.397  1.00  0.00     0.257 C 
HETATM   15  N   UNL     1      44.401 -11.908   5.934  1.00  0.00    -0.356 N 
HETATM   16  H   UNL     1      44.920 -12.631   5.451  1.00  0.00     0.162 HD
HETATM   17  O   UNL     1      42.330 -10.904   5.975  1.00  0.00    -0.267 OA
BRANCH  15  18
HETATM   18  C   UNL     1      44.528 -11.848   7.378  1.00  0.00     0.127 C 
BRANCH  18  19
HETATM   19  C   UNL     1      45.531 -10.805   7.869  1.00  0.00     0.058 C 
BRANCH  19  20
HETATM   20  C   UNL     1      44.885  -9.870   8.867  1.00  0.00    -0.057 A 
HETATM   21  C   UNL     1      44.905 -10.163  10.238  1.00  0.00     0.007 A 
HETATM   22  C   UNL     1      44.253  -9.330  11.150  1.00  0.00     0.001 A 
HETATM   23  C   UNL     1      43.574  -8.198  10.702  1.00  0.00     0.000 A 
HETATM   24  C   UNL     1      43.554  -7.894   9.342  1.00  0.00     0.001 A 
HETATM   25  C   UNL     1      44.209  -8.722   8.430  1.00  0.00     0.007 A 
ENDBRANCH  19  20
ENDBRANCH  18  19
ENDBRANCH  15  18
ENDBRANCH   1  14
BRANCH   2  26
HETATM   26  N   UNL     1      42.468 -10.455   2.666  1.00  0.00    -0.286 NA
HETATM   27  H   UNL     1      42.262  -9.785   3.416  1.00  0.00     0.125 HD
HETATM   28  H   UNL     1      43.266 -10.125   2.120  1.00  0.00     0.125 HD
ENDBRANCH   2  26
BRANCH   3  29
HETATM   29  N   UNL     1      41.251 -12.654   1.020  1.00  0.00    -0.176 NA
HETATM   30  C   UNL     1      39.975 -12.598   1.216  1.00  0.00     0.153 C 
BRANCH  30  31
HETATM   31  C   UNL     1      39.068 -12.426   0.105  1.00  0.00     0.011 A 
HETATM   32  C   UNL     1      38.900 -13.324  -0.996  1.00  0.00     0.004 A 
HETATM   33  C   UNL     1      37.963 -12.754  -1.858  1.00  0.00     0.043 A 
HETATM   34  C   UNL     1      39.449 -14.580  -1.331  1.00  0.00     0.014 A 
HETATM   35  C   UNL     1      37.559 -13.371  -3.047  1.00  0.00     0.030 A 
HETATM   36  N   UNL     1      37.573 -11.558  -1.298  1.00  0.00    -0.364 N 
HETATM   37  C   UNL     1      38.115 -14.617  -3.354  1.00  0.00     0.002 A 
HETATM   38  C   UNL     1      39.044 -15.217  -2.508  1.00  0.00     0.001 A 
HETATM   39  H   UNL     1      36.904 -10.923  -1.710  1.00  0.00     0.165 HD
HETATM   40  C   UNL     1      38.216 -11.361  -0.106  1.00  0.00     0.102 A 
ENDBRANCH  30  31
ENDBRANCH   3  29
TORSDOF 7
ENDMDL
MODEL 2
REMARK VINA RESULT:     -10.0      1.695      9.317
REMARK  7 active torsions:
REMARK  status: ('A' for Active; 'I' for Inactive)
REMARK    1  A    between atoms: C_4  and  C_5 
REMARK    2  A    between atoms: C_5  and  C_6 
REMARK    3  A    between atoms: C_6  and  N_7 
REMARK       I    between atoms: N_7  and  C_8 
REMARK    4  A    between atoms: C_8  and  C_9 
REMARK    5  A    between atoms: C_10  and  N_11 
REMARK    6  A    between atoms: N_12  and  N_13 
REMARK    7  A    between atoms: C_14  and  C_15 
ROOT
HETATM    1  C   UNL     1      40.935 -13.746   3.547  1.00  0.00     0.104 C 
HETATM    2  C   UNL     1      41.259 -13.065   4.709  1.00  0.00     0.123 C 
HETATM    3  N   UNL     1      42.452 -13.597   5.203  1.00  0.00    -0.202 N 
HETATM    4  C   UNL     1      42.641 -14.821   4.586  1.00  0.00     0.183 A 
HETATM    5  C   UNL     1      41.761 -14.893   3.509  1.00  0.00     0.124 A 
HETATM    6  N   UNL     1      41.761 -15.955   2.663  1.00  0.00    -0.242 NA
HETATM    7  C   UNL     1      42.605 -16.945   3.012  1.00  0.00     0.086 A 
HETATM    8  C   UNL     1      43.480 -16.856   4.128  1.00  0.00     0.088 A 
HETATM    9  N   UNL     1      43.546 -15.772   4.914  1.00  0.00    -0.225 NA
HETATM   10  C   UNL     1      42.605 -18.114   2.259  1.00  0.00     0.034 A 
HETATM   11  C   UNL     1      43.425 -19.198   2.585  1.00  0.00     0.002 A 
HETATM   12  C   UNL     1      44.272 -19.109   3.680  1.00  0.00     0.002 A 
HETATM   13  C   UNL     1      44.296 -17.938   4.435  1.00  0.00     0.034 A 
ENDROOT
BRANCH   1  14
HETATM   14  C   UNL     1      39.877 -13.323   2.658  1.00  0.00     0.257 C 
HETATM   15  N   UNL     1      40.305 -13.061   1.365  1.00  0.00    -0.356 N 
HETATM   16  H   UNL     1      41.296 -13.185   1.197  1.00  0.00     0.162 HD
HETATM   17  O   UNL     1      38.763 -13.023   3.074  1.00  0.00    -0.267 OA
BRANCH  15  18
HETATM   18  C   UNL     1      39.638 -11.985   0.655  1.00  0.00     0.127 C 
BRANCH  18  19
HETATM   19  C   UNL     1      40.048 -11.864  -0.812  1.00  0.00     0.058 C 
BRANCH  19  20
HETATM   20  C   UNL     1      39.259 -12.828  -1.670  1.00  0.00    -0.057 A 
HETATM   21  C   UNL     1      39.852 -14.003  -2.155  1.00  0.00     0.007 A 
HETATM   22  C   UNL     1      39.140 -14.859  -2.998  1.00  0.00     0.001 A 
HETATM   23  C   UNL     1      37.832 -14.550  -3.366  1.00  0.00     0.000 A 
HETATM   24  C   UNL     1      37.231 -13.389  -2.885  1.00  0.00     0.001 A 
HETATM   25  C   UNL     1      37.939 -12.534  -2.038  1.00  0.00     0.007 A 
ENDBRANCH  19  20
ENDBRANCH  18  19
ENDBRANCH  15  18
ENDBRANCH   1  14
BRANCH   2  26
HETATM   26  N   UNL     1      40.603 -12.028   5.310  1.00  0.00    -0.286 NA
HETATM   27  H   UNL     1      41.161 -11.453   5.952  1.00  0.00     0.125 HD
HETATM   28  H   UNL     1      40.034 -11.424   4.713  1.00  0.00     0.125 HD
ENDBRANCH   2  26
BRANCH   3  29
HETATM   29  N   UNL     1      43.297 -13.062   6.145  1.00  0.00    -0.176 NA
HETATM   30  C   UNL     1      43.999 -12.066   5.715  1.00  0.00     0.153 C 
BRANCH  30  31
HETATM   31  C   UNL     1      44.908 -11.373   6.598  1.00  0.00     0.011 A 
HETATM   32  C   UNL     1      44.554 -10.656   7.785  1.00  0.00     0.004 A 
HETATM   33  C   UNL     1      45.725 -10.107   8.304  1.00  0.00     0.043 A 
HETATM   34  C   UNL     1      43.341 -10.438   8.474  1.00  0.00     0.014 A 
HETATM   35  C   UNL     1      45.743  -9.336   9.472  1.00  0.00     0.030 A 
HETATM   36  N   UNL     1      46.753 -10.480   7.468  1.00  0.00    -0.364 N 
HETATM   37  C   UNL     1      44.529  -9.137  10.138  1.00  0.00     0.002 A 
HETATM   38  C   UNL     1      43.345  -9.682   9.650  1.00  0.00     0.001 A 
HETATM   39  H   UNL     1      47.720 -10.218   7.595  1.00  0.00     0.165 HD
HETATM   40  C   UNL     1      46.276 -11.260   6.450  1.00  0.00     0.102 A 
ENDBRANCH  30  31
ENDBRANCH   3  29
TORSDOF 7
ENDMDL
MODEL 3
REMARK VINA RESULT:      -9.9      1.832      6.271
REMARK  7 active torsions:
REMARK  status: ('A' for Active; 'I' for Inactive)
REMARK    1  A    between atoms: C_4  and  C_5 
REMARK    2  A    between atoms: C_5  and  C_6 
REMARK    3  A    between atoms: C_6  and  N_7 
REMARK       I    between atoms: N_7  and  C_8 
REMARK    4  A    between atoms: C_8  and  C_9 
REMARK    5  A    between atoms: C_10  and  N_11 
REMARK    6  A    between atoms: N_12  and  N_13 
REMARK    7  A    between atoms: C_14  and  C_15 
ROOT
HETATM    1  C   UNL     1      40.555 -11.954   3.252  1.00  0.00     0.104 C 
HETATM    2  C   UNL     1      40.670 -13.026   4.123  1.00  0.00     0.123 C 
HETATM    3  N   UNL     1      40.836 -14.184   3.361  1.00  0.00    -0.202 N 
HETATM    4  C   UNL     1      40.441 -13.886   2.070  1.00  0.00     0.183 A 
HETATM    5  C   UNL     1      40.340 -12.501   1.967  1.00  0.00     0.124 A 
HETATM    6  N   UNL     1      40.036 -11.898   0.789  1.00  0.00    -0.242 NA
HETATM    7  C   UNL     1      39.758 -12.749  -0.218  1.00  0.00     0.086 A 
HETATM    8  C   UNL     1      39.850 -14.160  -0.082  1.00  0.00     0.088 A 
HETATM    9  N   UNL     1      40.236 -14.758   1.054  1.00  0.00    -0.225 NA
HETATM   10  C   UNL     1      39.343 -12.224  -1.436  1.00  0.00     0.034 A 
HETATM   11  C   UNL     1      39.000 -13.046  -2.512  1.00  0.00     0.002 A 
HETATM   12  C   UNL     1      39.085 -14.424  -2.374  1.00  0.00     0.002 A 
HETATM   13  C   UNL     1      39.514 -14.966  -1.163  1.00  0.00     0.034 A 
ENDROOT
BRANCH   1  14
HETATM   14  C   UNL     1      40.579 -10.578   3.694  1.00  0.00     0.257 C 
HETATM   15  N   UNL     1      41.773 -10.205   4.293  1.00  0.00    -0.356 N 
HETATM   16  H   UNL     1      42.476 -10.930   4.360  1.00  0.00     0.162 HD
HETATM   17  O   UNL     1      39.564  -9.890   3.725  1.00  0.00    -0.267 OA
BRANCH  15  18
HETATM   18  C   UNL     1      41.693  -9.252   5.384  1.00  0.00     0.127 C 
BRANCH  18  19
HETATM   19  C   UNL     1      41.728  -9.893   6.771  1.00  0.00     0.058 C 
BRANCH  19  20
HETATM   20  C   UNL     1      43.153 -10.146   7.208  1.00  0.00    -0.057 A 
HETATM   21  C   UNL     1      43.848  -9.191   7.965  1.00  0.00     0.007 A 
HETATM   22  C   UNL     1      45.185  -9.400   8.313  1.00  0.00     0.001 A 
HETATM   23  C   UNL     1      45.840 -10.561   7.908  1.00  0.00     0.000 A 
HETATM   24  C   UNL     1      45.157 -11.520   7.161  1.00  0.00     0.001 A 
HETATM   25  C   UNL     1      43.820 -11.315   6.816  1.00  0.00     0.007 A 
ENDBRANCH  19  20
ENDBRANCH  18  19
ENDBRANCH  15  18
ENDBRANCH   1  14
BRANCH   2  26
HETATM   26  N   UNL     1      40.665 -13.029   5.489  1.00  0.00    -0.286 NA
HETATM   27  H   UNL     1      40.408 -12.143   5.941  1.00  0.00     0.125 HD
HETATM   28  H   UNL     1      40.187 -13.803   5.955  1.00  0.00     0.125 HD
ENDBRANCH   2  26
BRANCH   3  29
HETATM   29  N   UNL     1      41.277 -15.419   3.775  1.00  0.00    -0.176 NA
HETATM   30  C   UNL     1      42.560 -15.503   3.902  1.00  0.00     0.153 C 
BRANCH  30  31
HETATM   31  C   UNL     1      43.173 -16.727   4.364  1.00  0.00     0.011 A 
HETATM   32  C   UNL     1      43.262 -17.955   3.636  1.00  0.00     0.004 A 
HETATM   33  C   UNL     1      43.887 -18.886   4.465  1.00  0.00     0.043 A 
HETATM   34  C   UNL     1      42.881 -18.357   2.338  1.00  0.00     0.014 A 
HETATM   35  C   UNL     1      44.136 -20.204   4.067  1.00  0.00     0.030 A 
HETATM   36  N   UNL     1      44.172 -18.244   5.651  1.00  0.00    -0.364 N 
HETATM   37  C   UNL     1      43.751 -20.576   2.775  1.00  0.00     0.002 A 
HETATM   38  C   UNL     1      43.136 -19.666   1.919  1.00  0.00     0.001 A 
HETATM   39  H   UNL     1      44.621 -18.679   6.444  1.00  0.00     0.165 HD
HETATM   40  C   UNL     1      43.766 -16.939   5.592  1.00  0.00     0.102 A 
ENDBRANCH  30  31
ENDBRANCH   3  29
TORSDOF 7
ENDMDL
MODEL 4
REMARK VINA RESULT:      -9.8      3.268      6.146
REMARK  7 active torsions:
REMARK  status: ('A' for Active; 'I' for Inactive)
REMARK    1  A    between atoms: C_4  and  C_5 
REMARK    2  A    between atoms: C_5  and  C_6 
REMARK    3  A    between atoms: C_6  and  N_7 
REMARK       I    between atoms: N_7  and  C_8 
REMARK    4  A    between atoms: C_8  and  C_9 
REMARK    5  A    between atoms: C_10  and  N_11 
REMARK    6  A    between atoms: N_12  and  N_13 
REMARK    7  A    between atoms: C_14  and  C_15 
ROOT
HETATM    1  C   UNL     1      40.527 -11.011   6.443  1.00  0.00     0.104 C 
HETATM    2  C   UNL     1      40.372 -11.655   5.226  1.00  0.00     0.123 C 
HETATM    3  N   UNL     1      41.580 -12.282   4.914  1.00  0.00    -0.202 N 
HETATM    4  C   UNL     1      42.556 -11.713   5.711  1.00  0.00     0.183 A 
HETATM    5  C   UNL     1      41.915 -10.987   6.712  1.00  0.00     0.124 A 
HETATM    6  N   UNL     1      42.614 -10.368   7.698  1.00  0.00    -0.242 NA
HETATM    7  C   UNL     1      43.952 -10.444   7.564  1.00  0.00     0.086 A 
HETATM    8  C   UNL     1      44.583 -11.176   6.523  1.00  0.00     0.088 A 
HETATM    9  N   UNL     1      43.897 -11.863   5.598  1.00  0.00    -0.225 NA
HETATM   10  C   UNL     1      44.751  -9.759   8.473  1.00  0.00     0.034 A 
HETATM   11  C   UNL     1      46.144  -9.760   8.374  1.00  0.00     0.002 A 
HETATM   12  C   UNL     1      46.756 -10.471   7.352  1.00  0.00     0.002 A 
HETATM   13  C   UNL     1      45.970 -11.176   6.441  1.00  0.00     0.034 A 
ENDROOT
BRANCH   1  14
HETATM   14  C   UNL     1      39.421 -10.434   7.172  1.00  0.00     0.257 C 
HETATM   15  N   UNL     1      39.809  -9.546   8.165  1.00  0.00    -0.356 N 
HETATM   16  H   UNL     1      40.807  -9.414   8.270  1.00  0.00     0.162 HD
HETATM   17  O   UNL     1      38.277 -10.861   7.058  1.00  0.00    -0.267 OA
BRANCH  15  18
HETATM   18  C   UNL     1      39.002  -9.512   9.371  1.00  0.00     0.127 C 
BRANCH  18  19
HETATM   19  C   UNL     1      39.408  -8.418  10.357  1.00  0.00     0.058 C 
BRANCH  19  20
HETATM   20  C   UNL     1      40.820  -8.640  10.852  1.00  0.00    -0.057 A 
HETATM   21  C   UNL     1      41.136  -9.765  11.627  1.00  0.00     0.007 A 
HETATM   22  C   UNL     1      42.426  -9.934  12.135  1.00  0.00     0.001 A 
HETATM   23  C   UNL     1      43.411  -8.982  11.876  1.00  0.00     0.000 A 
HETATM   24  C   UNL     1      43.109  -7.864  11.101  1.00  0.00     0.001 A 
HETATM   25  C   UNL     1      41.821  -7.695  10.589  1.00  0.00     0.007 A 
ENDBRANCH  19  20
ENDBRANCH  18  19
ENDBRANCH  15  18
ENDBRANCH   1  14
BRANCH   2  26
HETATM   26  N   UNL     1      39.264 -11.739   4.432  1.00  0.00    -0.286 NA
HETATM   27  H   UNL     1      39.339 -12.358   3.616  1.00  0.00     0.125 HD
HETATM   28  H   UNL     1      38.365 -11.888   4.895  1.00  0.00     0.125 HD
ENDBRANCH   2  26
BRANCH   3  29
HETATM   29  N   UNL     1      41.814 -13.261   3.978  1.00  0.00    -0.176 NA
HETATM   30  C   UNL     1      41.669 -14.463   4.428  1.00  0.00     0.153 C 
BRANCH  30  31
HETATM   31  C   UNL     1      41.845 -15.601   3.555  1.00  0.00     0.011 A 
HETATM   32  C   UNL     1      42.747 -16.693   3.760  1.00  0.00     0.004 A 
HETATM   33  C   UNL     1      42.628 -17.542   2.661  1.00  0.00     0.043 A 
HETATM   34  C   UNL     1      43.644 -17.045   4.791  1.00  0.00     0.014 A 
HETATM   35  C   UNL     1      43.374 -18.719   2.532  1.00  0.00     0.030 A 
HETATM   36  N   UNL     1      41.686 -16.989   1.822  1.00  0.00    -0.364 N 
HETATM   37  C   UNL     1      44.253 -19.047   3.569  1.00  0.00     0.002 A 
HETATM   38  C   UNL     1      44.385 -18.226   4.686  1.00  0.00     0.001 A 
HETATM   39  H   UNL     1      41.400 -17.387   0.939  1.00  0.00     0.165 HD
HETATM   40  C   UNL     1      41.193 -15.832   2.361  1.00  0.00     0.102 A 
ENDBRANCH  30  31
ENDBRANCH   3  29
TORSDOF 7
ENDMDL
MODEL 5
REMARK VINA RESULT:      -9.7      2.132      6.147
REMARK  7 active torsions:
REMARK  status: ('A' for Active; 'I' for Inactive)
REMARK    1  A    between atoms: C_4  and  C_5 
REMARK    2  A    between atoms: C_5  and  C_6 
REMARK    3  A    between atoms: C_6  and  N_7 
REMARK       I    between atoms: N_7  and  C_8 
REMARK    4  A    between atoms: C_8  and  C_9 
REMARK    5  A    between atoms: C_10  and  N_11 
REMARK    6  A    between atoms: N_12  and  N_13 
REMARK    7  A    between atoms: C_14  and  C_15 
ROOT
HETATM    1  C   UNL     1      42.890 -12.181   5.526  1.00  0.00     0.104 C 
HETATM    2  C   UNL     1      42.620 -13.462   5.980  1.00  0.00     0.123 C 
HETATM    3  N   UNL     1      42.394 -14.275   4.867  1.00  0.00    -0.202 N 
HETATM    4  C   UNL     1      42.141 -13.440   3.794  1.00  0.00     0.183 A 
HETATM    5  C   UNL     1      42.520 -12.151   4.162  1.00  0.00     0.124 A 
HETATM    6  N   UNL     1      42.456 -11.115   3.286  1.00  0.00    -0.242 NA
HETATM    7  C   UNL     1      41.919 -11.429   2.091  1.00  0.00     0.086 A 
HETATM    8  C   UNL     1      41.523 -12.749   1.746  1.00  0.00     0.088 A 
HETATM    9  N   UNL     1      41.666 -13.791   2.577  1.00  0.00    -0.225 NA
HETATM   10  C   UNL     1      41.725 -10.412   1.163  1.00  0.00     0.034 A 
HETATM   11  C   UNL     1      41.138 -10.656  -0.081  1.00  0.00     0.002 A 
HETATM   12  C   UNL     1      40.746 -11.945  -0.412  1.00  0.00     0.002 A 
HETATM   13  C   UNL     1      40.948 -12.978   0.502  1.00  0.00     0.034 A 
ENDROOT
BRANCH   1  14
HETATM   14  C   UNL     1      43.374 -11.128   6.390  1.00  0.00     0.257 C 
HETATM   15  N   UNL     1      44.669 -11.330   6.844  1.00  0.00    -0.356 N 
HETATM   16  H   UNL     1      45.116 -12.183   6.531  1.00  0.00     0.162 HD
HETATM   17  O   UNL     1      42.629 -10.264   6.839  1.00  0.00    -0.267 OA
BRANCH  15  18
HETATM   18  C   UNL     1      44.976 -10.870   8.185  1.00  0.00     0.127 C 
BRANCH  18  19
HETATM   19  C   UNL     1      45.300  -9.379   8.270  1.00  0.00     0.058 C 
BRANCH  19  20
HETATM   20  C   UNL     1      44.440  -8.703   9.315  1.00  0.00    -0.057 A 
HETATM   21  C   UNL     1      43.757  -7.515   9.018  1.00  0.00     0.007 A 
HETATM   22  C   UNL     1      43.014  -6.861  10.004  1.00  0.00     0.001 A 
HETATM   23  C   UNL     1      42.949  -7.383  11.294  1.00  0.00     0.000 A 
HETATM   24  C   UNL     1      43.619  -8.567  11.598  1.00  0.00     0.001 A 
HETATM   25  C   UNL     1      44.357  -9.226  10.613  1.00  0.00     0.007 A 
ENDBRANCH  19  20
ENDBRANCH  18  19
ENDBRANCH  15  18
ENDBRANCH   1  14
BRANCH   2  26
HETATM   26  N   UNL     1      42.595 -13.933   7.263  1.00  0.00    -0.286 NA
HETATM   27  H   UNL     1      43.052 -14.840   7.419  1.00  0.00     0.125 HD
HETATM   28  H   UNL     1      42.857 -13.283   8.006  1.00  0.00     0.125 HD
ENDBRANCH   2  26
BRANCH   3  29
HETATM   29  N   UNL     1      42.382 -15.648   4.804  1.00  0.00    -0.176 NA
HETATM   30  C   UNL     1      43.504 -16.198   5.132  1.00  0.00     0.153 C 
BRANCH  30  31
HETATM   31  C   UNL     1      43.639 -17.637   5.151  1.00  0.00     0.011 A 
HETATM   32  C   UNL     1      43.672 -18.497   4.008  1.00  0.00     0.004 A 
HETATM   33  C   UNL     1      43.767 -19.807   4.477  1.00  0.00     0.043 A 
HETATM   34  C   UNL     1      43.647 -18.279   2.614  1.00  0.00     0.014 A 
HETATM   35  C   UNL     1      43.821 -20.913   3.621  1.00  0.00     0.030 A 
HETATM   36  N   UNL     1      43.795 -19.743   5.852  1.00  0.00    -0.364 N 
HETATM   37  C   UNL     1      43.798 -20.669   2.244  1.00  0.00     0.002 A 
HETATM   38  C   UNL     1      43.716 -19.372   1.745  1.00  0.00     0.001 A 
HETATM   39  H   UNL     1      43.853 -20.546   6.462  1.00  0.00     0.165 HD
HETATM   40  C   UNL     1      43.740 -18.440   6.267  1.00  0.00     0.102 A 
ENDBRANCH  30  31
ENDBRANCH   3  29
TORSDOF 7
ENDMDL
MODEL 6
REMARK VINA RESULT:      -9.7      3.219      6.240
REMARK  7 active torsions:
REMARK  status: ('A' for Active; 'I' for Inactive)
REMARK    1  A    between atoms: C_4  and  C_5 
REMARK    2  A    between atoms: C_5  and  C_6 
REMARK    3  A    between atoms: C_6  and  N_7 
REMARK       I    between atoms: N_7  and  C_8 
REMARK    4  A    between atoms: C_8  and  C_9 
REMARK    5  A    between atoms: C_10  and  N_11 
REMARK    6  A    between atoms: N_12  and  N_13 
REMARK    7  A    between atoms: C_14  and  C_15 
ROOT
HETATM    1  C   UNL     1      40.208  -8.910   7.550  1.00  0.00     0.104 C 
HETATM    2  C   UNL     1      39.613  -9.737   6.611  1.00  0.00     0.123 C 
HETATM    3  N   UNL     1      40.480 -10.805   6.367  1.00  0.00    -0.202 N 
HETATM    4  C   UNL     1      41.727 -10.437   6.839  1.00  0.00     0.183 A 
HETATM    5  C   UNL     1      41.561  -9.310   7.640  1.00  0.00     0.124 A 
HETATM    6  N   UNL     1      42.605  -8.753   8.306  1.00  0.00    -0.242 NA
HETATM    7  C   UNL     1      43.798  -9.326   8.051  1.00  0.00     0.086 A 
HETATM    8  C   UNL     1      43.943 -10.465   7.215  1.00  0.00     0.088 A 
HETATM    9  N   UNL     1      42.903 -11.072   6.625  1.00  0.00    -0.225 NA
HETATM   10  C   UNL     1      44.939  -8.764   8.613  1.00  0.00     0.034 A 
HETATM   11  C   UNL     1      46.212  -9.279   8.361  1.00  0.00     0.002 A 
HETATM   12  C   UNL     1      46.351 -10.388   7.539  1.00  0.00     0.002 A 
HETATM   13  C   UNL     1      45.215 -10.973   6.980  1.00  0.00     0.034 A 
ENDROOT
BRANCH   1  14
HETATM   14  C   UNL     1      39.508  -7.820   8.192  1.00  0.00     0.257 C 
HETATM   15  N   UNL     1      40.306  -7.067   9.041  1.00  0.00    -0.356 N 
HETATM   16  H   UNL     1      41.269  -7.368   9.121  1.00  0.00     0.162 HD
HETATM   17  O   UNL     1      38.287  -7.719   8.147  1.00  0.00    -0.267 OA
BRANCH  15  18
HETATM   18  C   UNL     1      39.675  -6.530  10.232  1.00  0.00     0.127 C 
BRANCH  18  19
HETATM   19  C   UNL     1      39.595  -7.522  11.393  1.00  0.00     0.058 C 
BRANCH  19  20
HETATM   20  C   UNL     1      40.940  -8.167  11.639  1.00  0.00    -0.057 A 
HETATM   21  C   UNL     1      42.042  -7.394  12.032  1.00  0.00     0.007 A 
HETATM   22  C   UNL     1      43.297  -7.984  12.197  1.00  0.00     0.001 A 
HETATM   23  C   UNL     1      43.465  -9.349  11.970  1.00  0.00     0.000 A 
HETATM   24  C   UNL     1      42.375 -10.127  11.585  1.00  0.00     0.001 A 
HETATM   25  C   UNL     1      41.118  -9.541  11.424  1.00  0.00     0.007 A 
ENDBRANCH  19  20
ENDBRANCH  18  19
ENDBRANCH  15  18
ENDBRANCH   1  14
BRANCH   2  26
HETATM   26  N   UNL     1      38.392  -9.618   6.011  1.00  0.00    -0.286 NA
HETATM   27  H   UNL     1      37.818  -8.822   6.311  1.00  0.00     0.125 HD
HETATM   28  H   UNL     1      38.360  -9.702   4.992  1.00  0.00     0.125 HD
ENDBRANCH   2  26
BRANCH   3  29
HETATM   29  N   UNL     1      40.203 -12.001   5.751  1.00  0.00    -0.176 NA
HETATM   30  C   UNL     1      40.470 -12.015   4.487  1.00  0.00     0.153 C 
BRANCH  30  31
HETATM   31  C   UNL     1      40.267 -13.214   3.706  1.00  0.00     0.011 A 
HETATM   32  C   UNL     1      41.189 -14.299   3.568  1.00  0.00     0.004 A 
HETATM   33  C   UNL     1      40.616 -15.223   2.695  1.00  0.00     0.043 A 
HETATM   34  C   UNL     1      42.456 -14.587   4.120  1.00  0.00     0.014 A 
HETATM   35  C   UNL     1      41.254 -16.414   2.332  1.00  0.00     0.030 A 
HETATM   36  N   UNL     1      39.390 -14.720   2.321  1.00  0.00    -0.364 N 
HETATM   37  C   UNL     1      42.506 -16.678   2.896  1.00  0.00     0.002 A 
HETATM   38  C   UNL     1      43.100 -15.781   3.780  1.00  0.00     0.001 A 
HETATM   39  H   UNL     1      38.752 -15.177   1.685  1.00  0.00     0.165 HD
HETATM   40  C   UNL     1      39.160 -13.522   2.941  1.00  0.00     0.102 A 
ENDBRANCH  30  31
ENDBRANCH   3  29
TORSDOF 7
ENDMDL
MODEL 7
REMARK VINA RESULT:      -9.6      2.042      9.091
REMARK  7 active torsions:
REMARK  status: ('A' for Active; 'I' for Inactive)
REMARK    1  A    between atoms: C_4  and  C_5 
REMARK    2  A    between atoms: C_5  and  C_6 
REMARK    3  A    between atoms: C_6  and  N_7 
REMARK       I    between atoms: N_7  and  C_8 
REMARK    4  A    between atoms: C_8  and  C_9 
REMARK    5  A    between atoms: C_10  and  N_11 
REMARK    6  A    between atoms: N_12  and  N_13 
REMARK    7  A    between atoms: C_14  and  C_15 
ROOT
HETATM    1  C   UNL     1      40.488 -13.703   2.282  1.00  0.00     0.104 C 
HETATM    2  C   UNL     1      40.136 -12.986   3.414  1.00  0.00     0.123 C 
HETATM    3  N   UNL     1      41.034 -13.316   4.431  1.00  0.00    -0.202 N 
HETATM    4  C   UNL     1      41.668 -14.487   4.054  1.00  0.00     0.183 A 
HETATM    5  C   UNL     1      41.403 -14.696   2.703  1.00  0.00     0.124 A 
HETATM    6  N   UNL     1      41.952 -15.737   2.025  1.00  0.00    -0.242 NA
HETATM    7  C   UNL     1      42.681 -16.575   2.787  1.00  0.00     0.086 A 
HETATM    8  C   UNL     1      42.922 -16.349   4.169  1.00  0.00     0.088 A 
HETATM    9  N   UNL     1      42.455 -15.276   4.822  1.00  0.00    -0.225 NA
HETATM   10  C   UNL     1      43.203 -17.722   2.200  1.00  0.00     0.034 A 
HETATM   11  C   UNL     1      43.936 -18.656   2.936  1.00  0.00     0.002 A 
HETATM   12  C   UNL     1      44.163 -18.436   4.287  1.00  0.00     0.002 A 
HETATM   13  C   UNL     1      43.659 -17.282   4.887  1.00  0.00     0.034 A 
ENDROOT
BRANCH   1  14
HETATM   14  C   UNL     1      39.905 -13.456   0.983  1.00  0.00     0.257 C 
HETATM   15  N   UNL     1      39.841 -14.582   0.176  1.00  0.00    -0.356 N 
HETATM   16  H   UNL     1      40.213 -15.433   0.579  1.00  0.00     0.162 HD
HETATM   17  O   UNL     1      39.695 -12.319   0.573  1.00  0.00    -0.267 OA
BRANCH  15  18
HETATM   18  C   UNL     1      40.028 -14.383  -1.249  1.00  0.00     0.127 C 
BRANCH  18  19
HETATM   19  C   UNL     1      38.722 -14.323  -2.042  1.00  0.00     0.058 C 
BRANCH  19  20
HETATM   20  C   UNL     1      38.441 -12.909  -2.502  1.00  0.00    -0.057 A 
HETATM   21  C   UNL     1      39.488 -12.064  -2.896  1.00  0.00     0.007 A 
HETATM   22  C   UNL     1      39.231 -10.741  -3.259  1.00  0.00     0.001 A 
HETATM   23  C   UNL     1      37.928 -10.247  -3.230  1.00  0.00     0.000 A 
HETATM   24  C   UNL     1      36.879 -11.081  -2.846  1.00  0.00     0.001 A 
HETATM   25  C   UNL     1      37.133 -12.406  -2.488  1.00  0.00     0.007 A 
ENDBRANCH  19  20
ENDBRANCH  18  19
ENDBRANCH  15  18
ENDBRANCH   1  14
BRANCH   2  26
HETATM   26  N   UNL     1      39.129 -12.077   3.578  1.00  0.00    -0.286 NA
HETATM   27  H   UNL     1      39.374 -11.220   4.086  1.00  0.00     0.125 HD
HETATM   28  H   UNL     1      38.571 -11.842   2.755  1.00  0.00     0.125 HD
ENDBRANCH   2  26
BRANCH   3  29
HETATM   29  N   UNL     1      41.262 -12.655   5.614  1.00  0.00    -0.176 NA
HETATM   30  C   UNL     1      42.079 -11.659   5.510  1.00  0.00     0.153 C 
BRANCH  30  31
HETATM   31  C   UNL     1      42.391 -10.841   6.660  1.00  0.00     0.011 A 
HETATM   32  C   UNL     1      43.690 -10.628   7.218  1.00  0.00     0.004 A 
HETATM   33  C   UNL     1      43.533  -9.815   8.340  1.00  0.00     0.043 A 
HETATM   34  C   UNL     1      44.992 -11.040   6.860  1.00  0.00     0.014 A 
HETATM   35  C   UNL     1      44.611  -9.406   9.133  1.00  0.00     0.030 A 
HETATM   36  N   UNL     1      42.188  -9.542   8.455  1.00  0.00    -0.364 N 
HETATM   37  C   UNL     1      45.891  -9.825   8.755  1.00  0.00     0.002 A 
HETATM   38  C   UNL     1      46.082 -10.627   7.633  1.00  0.00     0.001 A 
HETATM   39  H   UNL     1      41.779  -8.977   9.186  1.00  0.00     0.165 HD
HETATM   40  C   UNL     1      41.494 -10.137   7.437  1.00  0.00     0.102 A 
ENDBRANCH  30  31
ENDBRANCH   3  29
TORSDOF 7
ENDMDL
MODEL 8
REMARK VINA RESULT:      -9.5      3.157     10.091
REMARK  7 active torsions:
REMARK  status: ('A' for Active; 'I' for Inactive)
REMARK    1  A    between atoms: C_4  and  C_5 
REMARK    2  A    between atoms: C_5  and  C_6 
REMARK    3  A    between atoms: C_6  and  N_7 
REMARK       I    between atoms: N_7  and  C_8 
REMARK    4  A    between atoms: C_8  and  C_9 
REMARK    5  A    between atoms: C_10  and  N_11 
REMARK    6  A    between atoms: N_12  and  N_13 
REMARK    7  A    between atoms: C_14  and  C_15 
ROOT
HETATM    1  C   UNL     1      42.821 -12.942   6.374  1.00  0.00     0.104 C 
HETATM    2  C   UNL     1      43.493 -11.865   6.931  1.00  0.00     0.123 C 
HETATM    3  N   UNL     1      42.703 -10.727   6.757  1.00  0.00    -0.202 N 
HETATM    4  C   UNL     1      41.768 -11.022   5.781  1.00  0.00     0.183 A 
HETATM    5  C   UNL     1      41.774 -12.402   5.592  1.00  0.00     0.124 A 
HETATM    6  N   UNL     1      40.906 -13.005   4.740  1.00  0.00    -0.242 NA
HETATM    7  C   UNL     1      40.125 -12.155   4.047  1.00  0.00     0.086 A 
HETATM    8  C   UNL     1      40.149 -10.748   4.245  1.00  0.00     0.088 A 
HETATM    9  N   UNL     1      40.943 -10.156   5.149  1.00  0.00    -0.225 NA
HETATM   10  C   UNL     1      39.271 -12.675   3.080  1.00  0.00     0.034 A 
HETATM   11  C   UNL     1      38.460 -11.851   2.296  1.00  0.00     0.002 A 
HETATM   12  C   UNL     1      38.492 -10.477   2.488  1.00  0.00     0.002 A 
HETATM   13  C   UNL     1      39.332  -9.941   3.464  1.00  0.00     0.034 A 
ENDROOT
BRANCH   1  14
HETATM   14  C   UNL     1      43.246 -14.311   6.555  1.00  0.00     0.257 C 
HETATM   15  N   UNL     1      43.301 -15.039   5.375  1.00  0.00    -0.356 N 
HETATM   16  H   UNL     1      43.031 -14.538   4.538  1.00  0.00     0.162 HD
HETATM   17  O   UNL     1      43.335 -14.821   7.667  1.00  0.00    -0.267 OA
BRANCH  15  18
HETATM   18  C   UNL     1      42.953 -16.445   5.452  1.00  0.00     0.127 C 
BRANCH  18  19
HETATM   19  C   UNL     1      44.158 -17.385   5.419  1.00  0.00     0.058 C 
BRANCH  19  20
HETATM   20  C   UNL     1      43.970 -18.459   4.371  1.00  0.00    -0.057 A 
HETATM   21  C   UNL     1      43.545 -18.128   3.076  1.00  0.00     0.007 A 
HETATM   22  C   UNL     1      43.313 -19.129   2.130  1.00  0.00     0.001 A 
HETATM   23  C   UNL     1      43.499 -20.468   2.468  1.00  0.00     0.000 A 
HETATM   24  C   UNL     1      43.927 -20.808   3.750  1.00  0.00     0.001 A 
HETATM   25  C   UNL     1      44.165 -19.809   4.695  1.00  0.00     0.007 A 
ENDBRANCH  19  20
ENDBRANCH  18  19
ENDBRANCH  15  18
ENDBRANCH   1  14
BRANCH   2  26
HETATM   26  N   UNL     1      44.695 -11.844   7.580  1.00  0.00    -0.286 NA
HETATM   27  H   UNL     1      44.828 -12.556   8.307  1.00  0.00     0.125 HD
HETATM   28  H   UNL     1      45.537 -11.778   7.004  1.00  0.00     0.125 HD
ENDBRANCH   2  26
BRANCH   3  29
HETATM   29  N   UNL     1      42.812  -9.511   7.387  1.00  0.00    -0.176 NA
HETATM   30  C   UNL     1      42.235  -9.464   8.542  1.00  0.00     0.153 C 
BRANCH  30  31
HETATM   31  C   UNL     1      42.293  -8.264   9.345  1.00  0.00     0.011 A 
HETATM   32  C   UNL     1      42.478  -8.202  10.762  1.00  0.00     0.004 A 
HETATM   33  C   UNL     1      42.426  -6.859  11.130  1.00  0.00     0.043 A 
HETATM   34  C   UNL     1      42.702  -9.169  11.766  1.00  0.00     0.014 A 
HETATM   35  C   UNL     1      42.571  -6.433  12.455  1.00  0.00     0.030 A 
HETATM   36  N   UNL     1      42.222  -6.131   9.978  1.00  0.00    -0.364 N 
HETATM   37  C   UNL     1      42.795  -7.410  13.430  1.00  0.00     0.002 A 
HETATM   38  C   UNL     1      42.864  -8.759  13.093  1.00  0.00     0.001 A 
HETATM   39  H   UNL     1      42.136  -5.126   9.943  1.00  0.00     0.165 HD
HETATM   40  C   UNL     1      42.162  -6.966   8.896  1.00  0.00     0.102 A 
ENDBRANCH  30  31
ENDBRANCH   3  29
TORSDOF 7
ENDMDL
MODEL 9
REMARK VINA RESULT:      -9.4      2.116      7.062
REMARK  7 active torsions:
REMARK  status: ('A' for Active; 'I' for Inactive)
REMARK    1  A    between atoms: C_4  and  C_5 
REMARK    2  A    between atoms: C_5  and  C_6 
REMARK    3  A    between atoms: C_6  and  N_7 
REMARK       I    between atoms: N_7  and  C_8 
REMARK    4  A    between atoms: C_8  and  C_9 
REMARK    5  A    between atoms: C_10  and  N_11 
REMARK    6  A    between atoms: N_12  and  N_13 
REMARK    7  A    between atoms: C_14  and  C_15 
ROOT
HETATM    1  C   UNL     1      41.954 -13.361   5.839  1.00  0.00     0.104 C 
HETATM    2  C   UNL     1      40.807 -13.550   5.084  1.00  0.00     0.123 C 
HETATM    3  N   UNL     1      40.393 -12.302   4.611  1.00  0.00    -0.202 N 
HETATM    4  C   UNL     1      41.032 -11.342   5.374  1.00  0.00     0.183 A 
HETATM    5  C   UNL     1      42.054 -11.972   6.080  1.00  0.00     0.124 A 
HETATM    6  N   UNL     1      42.909 -11.271   6.868  1.00  0.00    -0.242 NA
HETATM    7  C   UNL     1      42.622  -9.959   6.971  1.00  0.00     0.086 A 
HETATM    8  C   UNL     1      41.561  -9.342   6.255  1.00  0.00     0.088 A 
HETATM    9  N   UNL     1      40.770 -10.014   5.407  1.00  0.00    -0.225 NA
HETATM   10  C   UNL     1      43.385  -9.178   7.832  1.00  0.00     0.034 A 
HETATM   11  C   UNL     1      43.121  -7.819   8.020  1.00  0.00     0.002 A 
HETATM   12  C   UNL     1      42.080  -7.222   7.324  1.00  0.00     0.002 A 
HETATM   13  C   UNL     1      41.315  -7.988   6.445  1.00  0.00     0.034 A 
ENDROOT
BRANCH   1  14
HETATM   14  C   UNL     1      42.771 -14.456   6.310  1.00  0.00     0.257 C 
HETATM   15  N   UNL     1      42.997 -15.435   5.354  1.00  0.00    -0.356 N 
HETATM   16  H   UNL     1      42.563 -15.279   4.453  1.00  0.00     0.162 HD
HETATM   17  O   UNL     1      43.046 -14.596   7.497  1.00  0.00    -0.267 OA
BRANCH  15  18
HETATM   18  C   UNL     1      43.083 -16.806   5.822  1.00  0.00     0.127 C 
BRANCH  18  19
HETATM   19  C   UNL     1      44.366 -17.525   5.403  1.00  0.00     0.058 C 
BRANCH  19  20
HETATM   20  C   UNL     1      44.076 -18.553   4.332  1.00  0.00    -0.057 A 
HETATM   21  C   UNL     1      43.633 -18.157   3.062  1.00  0.00     0.007 A 
HETATM   22  C   UNL     1      43.307 -19.111   2.096  1.00  0.00     0.001 A 
HETATM   23  C   UNL     1      43.418 -20.469   2.389  1.00  0.00     0.000 A 
HETATM   24  C   UNL     1      43.863 -20.874   3.646  1.00  0.00     0.001 A 
HETATM   25  C   UNL     1      44.194 -19.922   4.611  1.00  0.00     0.007 A 
ENDBRANCH  19  20
ENDBRANCH  18  19
ENDBRANCH  15  18
ENDBRANCH   1  14
BRANCH   2  26
HETATM   26  N   UNL     1      40.157 -14.713   4.782  1.00  0.00    -0.286 NA
HETATM   27  H   UNL     1      39.231 -14.612   4.350  1.00  0.00     0.125 HD
HETATM   28  H   UNL     1      40.689 -15.433   4.290  1.00  0.00     0.125 HD
ENDBRANCH   2  26
BRANCH   3  29
HETATM   29  N   UNL     1      39.499 -12.028   3.604  1.00  0.00    -0.176 NA
HETATM   30  C   UNL     1      39.958 -12.258   2.418  1.00  0.00     0.153 C 
BRANCH  30  31
HETATM   31  C   UNL     1      39.125 -12.053   1.255  1.00  0.00     0.011 A 
HETATM   32  C   UNL     1      39.282 -12.683  -0.020  1.00  0.00     0.004 A 
HETATM   33  C   UNL     1      38.298 -12.168  -0.862  1.00  0.00     0.043 A 
HETATM   34  C   UNL     1      40.166 -13.659  -0.531  1.00  0.00     0.014 A 
HETATM   35  C   UNL     1      38.161 -12.569  -2.196  1.00  0.00     0.030 A 
HETATM   36  N   UNL     1      37.567 -11.264  -0.124  1.00  0.00    -0.364 N 
HETATM   37  C   UNL     1      39.046 -13.539  -2.676  1.00  0.00     0.002 A 
HETATM   38  C   UNL     1      40.033 -14.081  -1.857  1.00  0.00     0.001 A 
HETATM   39  H   UNL     1      36.788 -10.729  -0.482  1.00  0.00     0.165 HD
HETATM   40  C   UNL     1      38.043 -11.203   1.157  1.00  0.00     0.102 A 
ENDBRANCH  30  31
ENDBRANCH   3  29
TORSDOF 7
ENDMDL
MODEL 10
REMARK VINA RESULT:      -9.3      3.996      7.763
REMARK  7 active torsions:
REMARK  status: ('A' for Active; 'I' for Inactive)
REMARK    1  A    between atoms: C_4  and  C_5 
REMARK    2  A    between atoms: C_5  and  C_6 
REMARK    3  A    between atoms: C_6  and  N_7 
REMARK       I    between atoms: N_7  and  C_8 
REMARK    4  A    between atoms: C_8  and  C_9 
REMARK    5  A    between atoms: C_10  and  N_11 
REMARK    6  A    between atoms: N_12  and  N_13 
REMARK    7  A    between atoms: C_14  and  C_15 
ROOT
HETATM    1  C   UNL     1      39.959 -13.941   1.717  1.00  0.00     0.104 C 
HETATM    2  C   UNL     1      39.623 -13.462   0.460  1.00  0.00     0.123 C 
HETATM    3  N   UNL     1      39.529 -12.071   0.540  1.00  0.00    -0.202 N 
HETATM    4  C   UNL     1      39.420 -11.743   1.879  1.00  0.00     0.183 A 
HETATM    5  C   UNL     1      39.761 -12.872   2.621  1.00  0.00     0.124 A 
HETATM    6  N   UNL     1      39.817 -12.839   3.977  1.00  0.00    -0.242 NA
HETATM    7  C   UNL     1      39.430 -11.670   4.523  1.00  0.00     0.086 A 
HETATM    8  C   UNL     1      39.068 -10.537   3.744  1.00  0.00     0.088 A 
HETATM    9  N   UNL     1      39.097 -10.538   2.404  1.00  0.00    -0.225 NA
HETATM   10  C   UNL     1      39.362 -11.573   5.908  1.00  0.00     0.034 A 
HETATM   11  C   UNL     1      38.933 -10.405   6.543  1.00  0.00     0.002 A 
HETATM   12  C   UNL     1      38.574  -9.304   5.779  1.00  0.00     0.002 A 
HETATM   13  C   UNL     1      38.651  -9.379   4.388  1.00  0.00     0.034 A 
ENDROOT
BRANCH   1  14
HETATM   14  C   UNL     1      40.341 -15.313   1.958  1.00  0.00     0.257 C 
HETATM   15  N   UNL     1      41.540 -15.447   2.641  1.00  0.00    -0.356 N 
HETATM   16  H   UNL     1      42.008 -14.582   2.881  1.00  0.00     0.162 HD
HETATM   17  O   UNL     1      39.764 -16.251   1.416  1.00  0.00    -0.267 OA
BRANCH  15  18
HETATM   18  C   UNL     1      42.376 -16.581   2.291  1.00  0.00     0.127 C 
BRANCH  18  19
HETATM   19  C   UNL     1      43.484 -16.870   3.303  1.00  0.00     0.058 C 
BRANCH  19  20
HETATM   20  C   UNL     1      43.642 -18.360   3.513  1.00  0.00    -0.057 A 
HETATM   21  C   UNL     1      44.021 -18.869   4.763  1.00  0.00     0.007 A 
HETATM   22  C   UNL     1      44.227 -20.239   4.936  1.00  0.00     0.001 A 
HETATM   23  C   UNL     1      44.059 -21.113   3.864  1.00  0.00     0.000 A 
HETATM   24  C   UNL     1      43.677 -20.619   2.618  1.00  0.00     0.001 A 
HETATM   25  C   UNL     1      43.465 -19.250   2.444  1.00  0.00     0.007 A 
ENDBRANCH  19  20
ENDBRANCH  18  19
ENDBRANCH  15  18
ENDBRANCH   1  14
BRANCH   2  26
HETATM   26  N   UNL     1      39.434 -14.155  -0.702  1.00  0.00    -0.286 NA
HETATM   27  H   UNL     1      38.584 -13.926  -1.230  1.00  0.00     0.125 HD
HETATM   28  H   UNL     1      40.228 -14.224  -1.341  1.00  0.00     0.125 HD
ENDBRANCH   2  26
BRANCH   3  29
HETATM   29  N   UNL     1      39.513 -11.159  -0.488  1.00  0.00    -0.176 NA
HETATM   30  C   UNL     1      40.670 -10.952  -1.025  1.00  0.00     0.153 C 
BRANCH  30  31
HETATM   31  C   UNL     1      40.810 -10.047  -2.142  1.00  0.00     0.011 A 
HETATM   32  C   UNL     1      41.702  -8.931  -2.220  1.00  0.00     0.004 A 
HETATM   33  C   UNL     1      41.480  -8.306  -3.446  1.00  0.00     0.043 A 
HETATM   34  C   UNL     1      42.692  -8.403  -1.362  1.00  0.00     0.014 A 
HETATM   35  C   UNL     1      42.188  -7.169  -3.852  1.00  0.00     0.030 A 
HETATM   36  N   UNL     1      40.494  -9.019  -4.091  1.00  0.00    -0.364 N 
HETATM   37  C   UNL     1      43.166  -6.669  -2.987  1.00  0.00     0.002 A 
HETATM   38  C   UNL     1      43.418  -7.277  -1.760  1.00  0.00     0.001 A 
HETATM   39  H   UNL     1      40.124  -8.790  -5.002  1.00  0.00     0.165 HD
HETATM   40  C   UNL     1      40.099 -10.081  -3.324  1.00  0.00     0.102 A 
ENDBRANCH  30  31
ENDBRANCH   3  29
TORSDOF 7
ENDMDL
