MODEL 1
REMARK VINA RESULT:      -7.9      0.000      0.000
REMARK  6 active torsions:
REMARK  status: ('A' for Active; 'I' for Inactive)
REMARK    1  A    between atoms: C_2  and  C_3 
REMARK    2  A    between atoms: C_3  and  C_4 
REMARK    3  A    between atoms: C_4  and  N_5 
REMARK       I    between atoms: N_5  and  C_6 
REMARK       I    between atoms: C_6  and  N_7 
REMARK    4  A    between atoms: N_7  and  C_8 
REMARK    5  A    between atoms: N_11  and  C_12 
REMARK    6  A    between atoms: C_15  and  O_16 
ROOT
HETATM    1  C   UNL     1      40.568 -14.615   1.930  1.00  0.00     0.123 C 
HETATM    2  C   UNL     1      41.004 -13.688   3.005  1.00  0.00     0.009 A 
HETATM    3  C   UNL     1      42.104 -13.883   3.823  1.00  0.00     0.047 A 
HETATM    4  N   UNL     1      42.263 -12.707   4.554  1.00  0.00    -0.238 N 
HETATM    5  N   UNL     1      41.224 -11.854   4.308  1.00  0.00    -0.179 NA
HETATM    6  C   UNL     1      40.489 -12.443   3.371  1.00  0.00     0.150 A 
HETATM    7  C   UNL     1      42.948 -15.114   3.828  1.00  0.00     0.069 C 
HETATM    8  C   UNL     1      42.630 -16.079   2.637  1.00  0.00    -0.040 C 
HETATM    9  C   UNL     1      42.941 -17.525   3.085  1.00  0.00     0.015 C 
HETATM   10  C   UNL     1      43.564 -15.756   1.452  1.00  0.00     0.015 C 
HETATM   11  C   UNL     1      41.134 -16.026   2.189  1.00  0.00     0.039 C 
ENDROOT
BRANCH   1  12
HETATM   12  N   UNL     1      41.028 -14.024   0.686  1.00  0.00    -0.334 N 
HETATM   13  C   UNL     1      40.385 -13.327  -0.273  1.00  0.00     0.316 C 
HETATM   14  N   UNL     1      39.032 -13.248  -0.181  1.00  0.00    -0.343 N 
HETATM   15  O   UNL     1      41.042 -12.816  -1.173  1.00  0.00    -0.247 OA
HETATM   16  H   UNL     1      38.615 -13.471   0.707  1.00  0.00     0.164 HD
HETATM   17  H   UNL     1      42.025 -14.048   0.506  1.00  0.00     0.165 HD
BRANCH  14  18
HETATM   18  C   UNL     1      38.271 -12.373  -1.051  1.00  0.00     0.124 C 
BRANCH  18  19
HETATM   19  C   UNL     1      37.471 -13.066  -2.158  1.00  0.00     0.019 C 
BRANCH  19  20
HETATM   20  C   UNL     1      38.312 -13.762  -3.230  1.00  0.00    -0.003 C 
HETATM   21  C   UNL     1      38.579 -15.232  -2.953  1.00  0.00     0.005 C 
ENDBRANCH  19  20
ENDBRANCH  18  19
ENDBRANCH  14  18
ENDBRANCH   1  12
BRANCH   4  22
HETATM   22  C   UNL     1      43.321 -12.259   5.406  1.00  0.00     0.058 A 
HETATM   23  C   UNL     1      43.119 -12.297   6.797  1.00  0.00     0.034 A 
HETATM   24  C   UNL     1      44.071 -11.773   7.676  1.00  0.00     0.039 A 
HETATM   25  C   UNL     1      45.245 -11.207   7.188  1.00  0.00     0.068 A 
HETATM   26  C   UNL     1      45.483 -11.219   5.815  1.00  0.00     0.039 A 
HETATM   27  C   UNL     1      44.529 -11.746   4.928  1.00  0.00     0.034 A 
BRANCH  25  28
HETATM   28  O   UNL     1      46.078 -10.696   8.143  1.00  0.00    -0.356 OA
HETATM   29  C   UNL     1      46.111  -9.278   8.260  1.00  0.00     0.210 C 
ENDBRANCH  25  28
ENDBRANCH   4  22
TORSDOF 6
ENDMDL
MODEL 2
REMARK VINA RESULT:      -7.9      3.984      8.887
REMARK  6 active torsions:
REMARK  status: ('A' for Active; 'I' for Inactive)
REMARK    1  A    between atoms: C_2  and  C_3 
REMARK    2  A    between atoms: C_3  and  C_4 
REMARK    3  A    between atoms: C_4  and  N_5 
REMARK       I    between atoms: N_5  and  C_6 
REMARK       I    between atoms: C_6  and  N_7 
REMARK    4  A    between atoms: N_7  and  C_8 
REMARK    5  A    between atoms: N_11  and  C_12 
REMARK    6  A    between atoms: C_15  and  O_16 
ROOT
HETATM    1  C   UNL     1      42.640 -11.996   6.402  1.00  0.00     0.123 C 
HETATM    2  C   UNL     1      42.591 -13.473   6.258  1.00  0.00     0.009 A 
HETATM    3  C   UNL     1      42.681 -14.156   5.057  1.00  0.00     0.047 A 
HETATM    4  N   UNL     1      42.780 -15.508   5.380  1.00  0.00    -0.238 N 
HETATM    5  N   UNL     1      42.621 -15.683   6.726  1.00  0.00    -0.179 NA
HETATM    6  C   UNL     1      42.526 -14.463   7.240  1.00  0.00     0.150 A 
HETATM    7  C   UNL     1      42.719 -13.506   3.713  1.00  0.00     0.069 C 
HETATM    8  C   UNL     1      42.905 -11.953   3.790  1.00  0.00    -0.040 C 
HETATM    9  C   UNL     1      42.226 -11.320   2.554  1.00  0.00     0.015 C 
HETATM   10  C   UNL     1      44.407 -11.612   3.712  1.00  0.00     0.015 C 
HETATM   11  C   UNL     1      42.262 -11.323   5.067  1.00  0.00     0.039 C 
ENDROOT
BRANCH   1  12
HETATM   12  N   UNL     1      43.986 -11.685   6.848  1.00  0.00    -0.334 N 
HETATM   13  C   UNL     1      44.463 -11.228   8.023  1.00  0.00     0.316 C 
HETATM   14  N   UNL     1      43.553 -10.839   8.954  1.00  0.00    -0.343 N 
HETATM   15  O   UNL     1      45.677 -11.176   8.189  1.00  0.00    -0.247 OA
HETATM   16  H   UNL     1      42.605 -11.153   8.832  1.00  0.00     0.164 HD
HETATM   17  H   UNL     1      44.745 -11.917   6.217  1.00  0.00     0.165 HD
BRANCH  14  18
HETATM   18  C   UNL     1      43.956 -10.510  10.307  1.00  0.00     0.124 C 
BRANCH  18  19
HETATM   19  C   UNL     1      44.027  -9.015  10.636  1.00  0.00     0.019 C 
BRANCH  19  20
HETATM   20  C   UNL     1      43.520  -8.632  12.028  1.00  0.00    -0.003 C 
HETATM   21  C   UNL     1      42.644  -9.687  12.683  1.00  0.00     0.005 C 
ENDBRANCH  19  20
ENDBRANCH  18  19
ENDBRANCH  14  18
ENDBRANCH   1  12
BRANCH   4  22
HETATM   22  C   UNL     1      43.081 -16.653   4.577  1.00  0.00     0.058 A 
HETATM   23  C   UNL     1      44.044 -17.563   5.048  1.00  0.00     0.034 A 
HETATM   24  C   UNL     1      44.458 -18.640   4.261  1.00  0.00     0.039 A 
HETATM   25  C   UNL     1      43.919 -18.837   2.993  1.00  0.00     0.068 A 
HETATM   26  C   UNL     1      42.920 -17.977   2.541  1.00  0.00     0.039 A 
HETATM   27  C   UNL     1      42.499 -16.893   3.330  1.00  0.00     0.034 A 
BRANCH  25  28
HETATM   28  O   UNL     1      44.432 -19.901   2.306  1.00  0.00    -0.356 OA
HETATM   29  C   UNL     1      43.513 -20.649   1.520  1.00  0.00     0.210 C 
ENDBRANCH  25  28
ENDBRANCH   4  22
TORSDOF 6
ENDMDL
MODEL 3
REMARK VINA RESULT:      -7.6      1.179      1.701
REMARK  6 active torsions:
REMARK  status: ('A' for Active; 'I' for Inactive)
REMARK    1  A    between atoms: C_2  and  C_3 
REMARK    2  A    between atoms: C_3  and  C_4 
REMARK    3  A    between atoms: C_4  and  N_5 
REMARK       I    between atoms: N_5  and  C_6 
REMARK       I    between atoms: C_6  and  N_7 
REMARK    4  A    between atoms: N_7  and  C_8 
REMARK    5  A    between atoms: N_11  and  C_12 
REMARK    6  A    between atoms: C_15  and  O_16 
ROOT
HETATM    1  C   UNL     1      40.053 -14.999   1.484  1.00  0.00     0.123 C 
HETATM    2  C   UNL     1      40.240 -14.181   2.709  1.00  0.00     0.009 A 
HETATM    3  C   UNL     1      41.240 -14.375   3.647  1.00  0.00     0.047 A 
HETATM    4  N   UNL     1      41.171 -13.294   4.524  1.00  0.00    -0.238 N 
HETATM    5  N   UNL     1      40.084 -12.519   4.232  1.00  0.00    -0.179 NA
HETATM    6  C   UNL     1      39.547 -13.048   3.140  1.00  0.00     0.150 A 
HETATM    7  C   UNL     1      42.209 -15.511   3.631  1.00  0.00     0.069 C 
HETATM    8  C   UNL     1      42.158 -16.339   2.303  1.00  0.00    -0.040 C 
HETATM    9  C   UNL     1      42.568 -17.795   2.621  1.00  0.00     0.015 C 
HETATM   10  C   UNL     1      43.195 -15.778   1.308  1.00  0.00     0.015 C 
HETATM   11  C   UNL     1      40.735 -16.372   1.657  1.00  0.00     0.039 C 
ENDROOT
BRANCH   1  12
HETATM   12  N   UNL     1      40.601 -14.212   0.394  1.00  0.00    -0.334 N 
HETATM   13  C   UNL     1      40.119 -13.904  -0.827  1.00  0.00     0.316 C 
HETATM   14  N   UNL     1      38.977 -14.528  -1.219  1.00  0.00    -0.343 N 
HETATM   15  O   UNL     1      40.731 -13.098  -1.518  1.00  0.00    -0.247 OA
HETATM   16  H   UNL     1      38.420 -14.964  -0.503  1.00  0.00     0.164 HD
HETATM   17  H   UNL     1      41.468 -13.718   0.574  1.00  0.00     0.165 HD
BRANCH  14  18
HETATM   18  C   UNL     1      38.282 -14.132  -2.428  1.00  0.00     0.124 C 
BRANCH  18  19
HETATM   19  C   UNL     1      37.260 -13.002  -2.269  1.00  0.00     0.019 C 
BRANCH  19  20
HETATM   20  C   UNL     1      37.765 -11.610  -2.653  1.00  0.00    -0.003 C 
HETATM   21  C   UNL     1      38.001 -10.687  -1.469  1.00  0.00     0.005 C 
ENDBRANCH  19  20
ENDBRANCH  18  19
ENDBRANCH  14  18
ENDBRANCH   1  12
BRANCH   4  22
HETATM   22  C   UNL     1      42.054 -12.861   5.564  1.00  0.00     0.058 A 
HETATM   23  C   UNL     1      42.149 -11.483   5.827  1.00  0.00     0.034 A 
HETATM   24  C   UNL     1      43.072 -10.992   6.754  1.00  0.00     0.039 A 
HETATM   25  C   UNL     1      43.914 -11.861   7.441  1.00  0.00     0.068 A 
HETATM   26  C   UNL     1      43.786 -13.233   7.232  1.00  0.00     0.039 A 
HETATM   27  C   UNL     1      42.858 -13.732   6.302  1.00  0.00     0.034 A 
BRANCH  25  28
HETATM   28  O   UNL     1      44.797 -11.258   8.291  1.00  0.00    -0.356 OA
HETATM   29  C   UNL     1      45.963 -10.698   7.698  1.00  0.00     0.210 C 
ENDBRANCH  25  28
ENDBRANCH   4  22
TORSDOF 6
ENDMDL
MODEL 4
REMARK VINA RESULT:      -7.4      2.813      7.640
REMARK  6 active torsions:
REMARK  status: ('A' for Active; 'I' for Inactive)
REMARK    1  A    between atoms: C_2  and  C_3 
REMARK    2  A    between atoms: C_3  and  C_4 
REMARK    3  A    between atoms: C_4  and  N_5 
REMARK       I    between atoms: N_5  and  C_6 
REMARK       I    between atoms: C_6  and  N_7 
REMARK    4  A    between atoms: N_7  and  C_8 
REMARK    5  A    between atoms: N_11  and  C_12 
REMARK    6  A    between atoms: C_15  and  O_16 
ROOT
HETATM    1  C   UNL     1      41.101 -15.607   5.443  1.00  0.00     0.123 C 
HETATM    2  C   UNL     1      40.877 -15.519   3.978  1.00  0.00     0.009 A 
HETATM    3  C   UNL     1      40.511 -14.369   3.299  1.00  0.00     0.047 A 
HETATM    4  N   UNL     1      40.589 -14.673   1.941  1.00  0.00    -0.238 N 
HETATM    5  N   UNL     1      40.862 -16.001   1.770  1.00  0.00    -0.179 NA
HETATM    6  C   UNL     1      41.047 -16.491   2.990  1.00  0.00     0.150 A 
HETATM    7  C   UNL     1      40.169 -13.071   3.953  1.00  0.00     0.069 C 
HETATM    8  C   UNL     1      40.506 -13.049   5.482  1.00  0.00    -0.040 C 
HETATM    9  C   UNL     1      39.522 -12.086   6.183  1.00  0.00     0.015 C 
HETATM   10  C   UNL     1      41.926 -12.481   5.685  1.00  0.00     0.015 C 
HETATM   11  C   UNL     1      40.371 -14.451   6.158  1.00  0.00     0.039 C 
ENDROOT
BRANCH   1  12
HETATM   12  N   UNL     1      42.542 -15.585   5.626  1.00  0.00    -0.334 N 
HETATM   13  C   UNL     1      43.464 -16.568   5.633  1.00  0.00     0.316 C 
HETATM   14  N   UNL     1      43.008 -17.848   5.605  1.00  0.00    -0.343 N 
HETATM   15  O   UNL     1      44.651 -16.265   5.675  1.00  0.00    -0.247 OA
HETATM   16  H   UNL     1      42.055 -17.992   5.317  1.00  0.00     0.164 HD
HETATM   17  H   UNL     1      42.985 -14.675   5.681  1.00  0.00     0.165 HD
BRANCH  14  18
HETATM   18  C   UNL     1      43.915 -18.964   5.424  1.00  0.00     0.124 C 
BRANCH  18  19
HETATM   19  C   UNL     1      44.542 -19.095   4.033  1.00  0.00     0.019 C 
BRANCH  19  20
HETATM   20  C   UNL     1      43.553 -19.041   2.866  1.00  0.00    -0.003 C 
HETATM   21  C   UNL     1      43.543 -20.292   2.002  1.00  0.00     0.005 C 
ENDBRANCH  19  20
ENDBRANCH  18  19
ENDBRANCH  14  18
ENDBRANCH   1  12
BRANCH   4  22
HETATM   22  C   UNL     1      40.510 -13.841   0.780  1.00  0.00     0.058 A 
HETATM   23  C   UNL     1      39.891 -14.361  -0.371  1.00  0.00     0.034 A 
HETATM   24  C   UNL     1      39.880 -13.639  -1.568  1.00  0.00     0.039 A 
HETATM   25  C   UNL     1      40.478 -12.384  -1.641  1.00  0.00     0.068 A 
HETATM   26  C   UNL     1      41.041 -11.834  -0.491  1.00  0.00     0.039 A 
HETATM   27  C   UNL     1      41.054 -12.556   0.715  1.00  0.00     0.034 A 
BRANCH  25  28
HETATM   28  O   UNL     1      40.434 -11.795  -2.873  1.00  0.00    -0.356 OA
HETATM   29  C   UNL     1      39.301 -10.979  -3.144  1.00  0.00     0.210 C 
ENDBRANCH  25  28
ENDBRANCH   4  22
TORSDOF 6
ENDMDL
MODEL 5
REMARK VINA RESULT:      -7.3      3.864      5.995
REMARK  6 active torsions:
REMARK  status: ('A' for Active; 'I' for Inactive)
REMARK    1  A    between atoms: C_2  and  C_3 
REMARK    2  A    between atoms: C_3  and  C_4 
REMARK    3  A    between atoms: C_4  and  N_5 
REMARK       I    between atoms: N_5  and  C_6 
REMARK       I    between atoms: C_6  and  N_7 
REMARK    4  A    between atoms: N_7  and  C_8 
REMARK    5  A    between atoms: N_11  and  C_12 
REMARK    6  A    between atoms: C_15  and  O_16 
ROOT
HETATM    1  C   UNL     1      42.725 -12.714   4.990  1.00  0.00     0.123 C 
HETATM    2  C   UNL     1      43.449 -12.045   6.101  1.00  0.00     0.009 A 
HETATM    3  C   UNL     1      42.942 -11.014   6.873  1.00  0.00     0.047 A 
HETATM    4  N   UNL     1      43.855 -10.808   7.905  1.00  0.00    -0.238 N 
HETATM    5  N   UNL     1      44.963 -11.587   7.715  1.00  0.00    -0.179 NA
HETATM    6  C   UNL     1      44.703 -12.330   6.647  1.00  0.00     0.150 A 
HETATM    7  C   UNL     1      41.634 -10.336   6.627  1.00  0.00     0.069 C 
HETATM    8  C   UNL     1      40.757 -11.069   5.557  1.00  0.00    -0.040 C 
HETATM    9  C   UNL     1      39.869 -10.019   4.853  1.00  0.00     0.015 C 
HETATM   10  C   UNL     1      39.814 -12.066   6.263  1.00  0.00     0.015 C 
HETATM   11  C   UNL     1      41.605 -11.794   4.462  1.00  0.00     0.039 C 
ENDROOT
BRANCH   1  12
HETATM   12  N   UNL     1      42.236 -13.969   5.534  1.00  0.00    -0.334 N 
HETATM   13  C   UNL     1      41.926 -15.144   4.951  1.00  0.00     0.316 C 
HETATM   14  N   UNL     1      41.919 -15.179   3.592  1.00  0.00    -0.343 N 
HETATM   15  O   UNL     1      41.660 -16.105   5.663  1.00  0.00    -0.247 OA
HETATM   16  H   UNL     1      42.391 -14.434   3.108  1.00  0.00     0.164 HD
HETATM   17  H   UNL     1      42.182 -14.042   6.544  1.00  0.00     0.165 HD
BRANCH  14  18
HETATM   18  C   UNL     1      41.781 -16.432   2.875  1.00  0.00     0.124 C 
BRANCH  18  19
HETATM   19  C   UNL     1      43.078 -17.027   2.317  1.00  0.00     0.019 C 
BRANCH  19  20
HETATM   20  C   UNL     1      43.541 -18.322   2.988  1.00  0.00    -0.003 C 
HETATM   21  C   UNL     1      43.289 -19.573   2.162  1.00  0.00     0.005 C 
ENDBRANCH  19  20
ENDBRANCH  18  19
ENDBRANCH  14  18
ENDBRANCH   1  12
BRANCH   4  22
HETATM   22  C   UNL     1      43.777 -10.017   9.094  1.00  0.00     0.058 A 
HETATM   23  C   UNL     1      43.905 -10.665  10.335  1.00  0.00     0.034 A 
HETATM   24  C   UNL     1      43.730  -9.964  11.532  1.00  0.00     0.039 A 
HETATM   25  C   UNL     1      43.430  -8.605  11.516  1.00  0.00     0.068 A 
HETATM   26  C   UNL     1      43.361  -7.941  10.293  1.00  0.00     0.039 A 
HETATM   27  C   UNL     1      43.538  -8.641   9.088  1.00  0.00     0.034 A 
BRANCH  25  28
HETATM   28  O   UNL     1      43.244  -8.042  12.747  1.00  0.00    -0.356 OA
HETATM   29  C   UNL     1      42.257  -8.643  13.576  1.00  0.00     0.210 C 
ENDBRANCH  25  28
ENDBRANCH   4  22
TORSDOF 6
ENDMDL
MODEL 6
REMARK VINA RESULT:      -7.2     16.870     18.871
REMARK  6 active torsions:
REMARK  status: ('A' for Active; 'I' for Inactive)
REMARK    1  A    between atoms: C_2  and  C_3 
REMARK    2  A    between atoms: C_3  and  C_4 
REMARK    3  A    between atoms: C_4  and  N_5 
REMARK       I    between atoms: N_5  and  C_6 
REMARK       I    between atoms: C_6  and  N_7 
REMARK    4  A    between atoms: N_7  and  C_8 
REMARK    5  A    between atoms: N_11  and  C_12 
REMARK    6  A    between atoms: C_15  and  O_16 
ROOT
HETATM    1  C   UNL     1      47.767 -28.484  -0.456  1.00  0.00     0.123 C 
HETATM    2  C   UNL     1      46.728 -28.853   0.539  1.00  0.00     0.009 A 
HETATM    3  C   UNL     1      45.400 -29.106   0.243  1.00  0.00     0.047 A 
HETATM    4  N   UNL     1      44.821 -29.591   1.415  1.00  0.00    -0.238 N 
HETATM    5  N   UNL     1      45.715 -29.519   2.446  1.00  0.00    -0.179 NA
HETATM    6  C   UNL     1      46.852 -29.093   1.909  1.00  0.00     0.150 A 
HETATM    7  C   UNL     1      44.783 -28.929  -1.105  1.00  0.00     0.069 C 
HETATM    8  C   UNL     1      45.839 -28.668  -2.231  1.00  0.00    -0.040 C 
HETATM    9  C   UNL     1      45.176 -27.810  -3.332  1.00  0.00     0.015 C 
HETATM   10  C   UNL     1      46.242 -30.010  -2.877  1.00  0.00     0.015 C 
HETATM   11  C   UNL     1      47.102 -27.901  -1.720  1.00  0.00     0.039 C 
ENDROOT
BRANCH   1  12
HETATM   12  N   UNL     1      48.525 -29.697  -0.706  1.00  0.00    -0.334 N 
HETATM   13  C   UNL     1      49.505 -30.307  -0.010  1.00  0.00     0.316 C 
HETATM   14  N   UNL     1      50.014 -29.640   1.060  1.00  0.00    -0.343 N 
HETATM   15  O   UNL     1      49.892 -31.411  -0.376  1.00  0.00    -0.247 OA
HETATM   16  H   UNL     1      49.472 -28.878   1.429  1.00  0.00     0.164 HD
HETATM   17  H   UNL     1      48.240 -30.263  -1.498  1.00  0.00     0.165 HD
BRANCH  14  18
HETATM   18  C   UNL     1      50.934 -30.284   1.976  1.00  0.00     0.124 C 
BRANCH  18  19
HETATM   19  C   UNL     1      50.292 -31.062   3.129  1.00  0.00     0.019 C 
BRANCH  19  20
HETATM   20  C   UNL     1      50.448 -30.423   4.511  1.00  0.00    -0.003 C 
HETATM   21  C   UNL     1      51.484 -31.099   5.394  1.00  0.00     0.005 C 
ENDBRANCH  19  20
ENDBRANCH  18  19
ENDBRANCH  14  18
ENDBRANCH   1  12
BRANCH   4  22
HETATM   22  C   UNL     1      43.544 -30.186   1.663  1.00  0.00     0.058 A 
HETATM   23  C   UNL     1      42.795 -29.723   2.759  1.00  0.00     0.034 A 
HETATM   24  C   UNL     1      41.592 -30.337   3.117  1.00  0.00     0.039 A 
HETATM   25  C   UNL     1      41.108 -31.420   2.388  1.00  0.00     0.068 A 
HETATM   26  C   UNL     1      41.812 -31.849   1.265  1.00  0.00     0.039 A 
HETATM   27  C   UNL     1      43.022 -31.233   0.900  1.00  0.00     0.034 A 
BRANCH  25  28
HETATM   28  O   UNL     1      39.944 -31.958   2.859  1.00  0.00    -0.356 OA
HETATM   29  C   UNL     1      39.856 -32.145   4.266  1.00  0.00     0.210 C 
ENDBRANCH  25  28
ENDBRANCH   4  22
TORSDOF 6
ENDMDL
MODEL 7
REMARK VINA RESULT:      -7.0      4.534      9.377
REMARK  6 active torsions:
REMARK  status: ('A' for Active; 'I' for Inactive)
REMARK    1  A    between atoms: C_2  and  C_3 
REMARK    2  A    between atoms: C_3  and  C_4 
REMARK    3  A    between atoms: C_4  and  N_5 
REMARK       I    between atoms: N_5  and  C_6 
REMARK       I    between atoms: C_6  and  N_7 
REMARK    4  A    between atoms: N_7  and  C_8 
REMARK    5  A    between atoms: N_11  and  C_12 
REMARK    6  A    between atoms: C_15  and  O_16 
ROOT
HETATM    1  C   UNL     1      42.148  -9.535   7.600  1.00  0.00     0.123 C 
HETATM    2  C   UNL     1      42.096 -10.763   6.767  1.00  0.00     0.009 A 
HETATM    3  C   UNL     1      43.118 -11.690   6.654  1.00  0.00     0.047 A 
HETATM    4  N   UNL     1      42.598 -12.765   5.936  1.00  0.00    -0.238 N 
HETATM    5  N   UNL     1      41.338 -12.470   5.495  1.00  0.00    -0.179 NA
HETATM    6  C   UNL     1      41.044 -11.283   6.010  1.00  0.00     0.150 A 
HETATM    7  C   UNL     1      44.475 -11.533   7.259  1.00  0.00     0.069 C 
HETATM    8  C   UNL     1      44.564 -10.330   8.257  1.00  0.00    -0.040 C 
HETATM    9  C   UNL     1      46.014  -9.797   8.248  1.00  0.00     0.015 C 
HETATM   10  C   UNL     1      44.267 -10.827   9.687  1.00  0.00     0.015 C 
HETATM   11  C   UNL     1      43.615  -9.147   7.876  1.00  0.00     0.039 C 
ENDROOT
BRANCH   1  12
HETATM   12  N   UNL     1      41.393  -9.840   8.803  1.00  0.00    -0.334 N 
HETATM   13  C   UNL     1      41.141  -9.121   9.915  1.00  0.00     0.316 C 
HETATM   14  N   UNL     1      41.800  -7.940  10.053  1.00  0.00    -0.343 N 
HETATM   15  O   UNL     1      40.350  -9.565  10.739  1.00  0.00    -0.247 OA
HETATM   16  H   UNL     1      42.218  -7.545   9.229  1.00  0.00     0.164 HD
HETATM   17  H   UNL     1      40.877 -10.712   8.814  1.00  0.00     0.165 HD
BRANCH  14  18
HETATM   18  C   UNL     1      41.462  -7.012  11.115  1.00  0.00     0.124 C 
BRANCH  18  19
HETATM   19  C   UNL     1      42.520  -6.838  12.209  1.00  0.00     0.019 C 
BRANCH  19  20
HETATM   20  C   UNL     1      43.193  -8.131  12.675  1.00  0.00    -0.003 C 
HETATM   21  C   UNL     1      42.354  -8.957  13.636  1.00  0.00     0.005 C 
ENDBRANCH  19  20
ENDBRANCH  18  19
ENDBRANCH  14  18
ENDBRANCH   1  12
BRANCH   4  22
HETATM   22  C   UNL     1      43.120 -14.071   5.677  1.00  0.00     0.058 A 
HETATM   23  C   UNL     1      42.861 -14.656   4.425  1.00  0.00     0.034 A 
HETATM   24  C   UNL     1      43.250 -15.970   4.152  1.00  0.00     0.039 A 
HETATM   25  C   UNL     1      43.910 -16.725   5.117  1.00  0.00     0.068 A 
HETATM   26  C   UNL     1      44.226 -16.135   6.340  1.00  0.00     0.039 A 
HETATM   27  C   UNL     1      43.837 -14.813   6.618  1.00  0.00     0.034 A 
BRANCH  25  28
HETATM   28  O   UNL     1      44.205 -18.007   4.745  1.00  0.00    -0.356 OA
HETATM   29  C   UNL     1      43.970 -18.339   3.382  1.00  0.00     0.210 C 
ENDBRANCH  25  28
ENDBRANCH   4  22
TORSDOF 6
ENDMDL
MODEL 8
REMARK VINA RESULT:      -7.0      1.891      8.579
REMARK  6 active torsions:
REMARK  status: ('A' for Active; 'I' for Inactive)
REMARK    1  A    between atoms: C_2  and  C_3 
REMARK    2  A    between atoms: C_3  and  C_4 
REMARK    3  A    between atoms: C_4  and  N_5 
REMARK       I    between atoms: N_5  and  C_6 
REMARK       I    between atoms: C_6  and  N_7 
REMARK    4  A    between atoms: N_7  and  C_8 
REMARK    5  A    between atoms: N_11  and  C_12 
REMARK    6  A    between atoms: C_15  and  O_16 
ROOT
HETATM    1  C   UNL     1      42.812 -13.686   3.333  1.00  0.00     0.123 C 
HETATM    2  C   UNL     1      42.153 -13.108   2.133  1.00  0.00     0.009 A 
HETATM    3  C   UNL     1      41.386 -13.822   1.229  1.00  0.00     0.047 A 
HETATM    4  N   UNL     1      40.811 -12.884   0.374  1.00  0.00    -0.238 N 
HETATM    5  N   UNL     1      41.304 -11.638   0.643  1.00  0.00    -0.179 NA
HETATM    6  C   UNL     1      42.090 -11.782   1.703  1.00  0.00     0.150 A 
HETATM    7  C   UNL     1      41.204 -15.304   1.255  1.00  0.00     0.069 C 
HETATM    8  C   UNL     1      41.759 -15.965   2.561  1.00  0.00    -0.040 C 
HETATM    9  C   UNL     1      42.205 -17.406   2.226  1.00  0.00     0.015 C 
HETATM   10  C   UNL     1      40.628 -16.067   3.606  1.00  0.00     0.015 C 
HETATM   11  C   UNL     1      42.991 -15.207   3.155  1.00  0.00     0.039 C 
ENDROOT
BRANCH   1  12
HETATM   12  N   UNL     1      41.967 -13.329   4.459  1.00  0.00    -0.334 N 
HETATM   13  C   UNL     1      42.259 -12.891   5.701  1.00  0.00     0.316 C 
HETATM   14  N   UNL     1      43.567 -12.894   6.069  1.00  0.00    -0.343 N 
HETATM   15  O   UNL     1      41.343 -12.527   6.429  1.00  0.00    -0.247 OA
HETATM   16  H   UNL     1      44.253 -12.962   5.337  1.00  0.00     0.164 HD
HETATM   17  H   UNL     1      40.966 -13.315   4.298  1.00  0.00     0.165 HD
BRANCH  14  18
HETATM   18  C   UNL     1      44.000 -12.274   7.306  1.00  0.00     0.124 C 
BRANCH  18  19
HETATM   19  C   UNL     1      45.135 -11.253   7.178  1.00  0.00     0.019 C 
BRANCH  19  20
HETATM   20  C   UNL     1      44.921  -9.945   7.942  1.00  0.00    -0.003 C 
HETATM   21  C   UNL     1      46.201  -9.174   8.223  1.00  0.00     0.005 C 
ENDBRANCH  19  20
ENDBRANCH  18  19
ENDBRANCH  14  18
ENDBRANCH   1  12
BRANCH   4  22
HETATM   22  C   UNL     1      39.793 -13.010  -0.623  1.00  0.00     0.058 A 
HETATM   23  C   UNL     1      38.727 -12.095  -0.607  1.00  0.00     0.034 A 
HETATM   24  C   UNL     1      37.648 -12.233  -1.485  1.00  0.00     0.039 A 
HETATM   25  C   UNL     1      37.613 -13.281  -2.400  1.00  0.00     0.068 A 
HETATM   26  C   UNL     1      38.694 -14.158  -2.466  1.00  0.00     0.039 A 
HETATM   27  C   UNL     1      39.781 -14.023  -1.586  1.00  0.00     0.034 A 
BRANCH  25  28
HETATM   28  O   UNL     1      36.491 -13.330  -3.177  1.00  0.00    -0.356 OA
HETATM   29  C   UNL     1      35.769 -12.113  -3.325  1.00  0.00     0.210 C 
ENDBRANCH  25  28
ENDBRANCH   4  22
TORSDOF 6
ENDMDL
MODEL 9
REMARK VINA RESULT:      -6.9      1.784      8.850
REMARK  6 active torsions:
REMARK  status: ('A' for Active; 'I' for Inactive)
REMARK    1  A    between atoms: C_2  and  C_3 
REMARK    2  A    between atoms: C_3  and  C_4 
REMARK    3  A    between atoms: C_4  and  N_5 
REMARK       I    between atoms: N_5  and  C_6 
REMARK       I    between atoms: C_6  and  N_7 
REMARK    4  A    between atoms: N_7  and  C_8 
REMARK    5  A    between atoms: N_11  and  C_12 
REMARK    6  A    between atoms: C_15  and  O_16 
ROOT
HETATM    1  C   UNL     1      41.767 -12.900   5.257  1.00  0.00     0.123 C 
HETATM    2  C   UNL     1      41.532 -13.578   3.956  1.00  0.00     0.009 A 
HETATM    3  C   UNL     1      40.697 -13.108   2.957  1.00  0.00     0.047 A 
HETATM    4  N   UNL     1      40.905 -13.931   1.851  1.00  0.00    -0.238 N 
HETATM    5  N   UNL     1      41.737 -14.964   2.183  1.00  0.00    -0.179 NA
HETATM    6  C   UNL     1      42.117 -14.733   3.435  1.00  0.00     0.150 A 
HETATM    7  C   UNL     1      39.815 -11.910   3.083  1.00  0.00     0.069 C 
HETATM    8  C   UNL     1      40.103 -11.071   4.372  1.00  0.00    -0.040 C 
HETATM    9  C   UNL     1      38.793 -10.374   4.803  1.00  0.00     0.015 C 
HETATM   10  C   UNL     1      41.125  -9.963   4.045  1.00  0.00     0.015 C 
HETATM   11  C   UNL     1      40.600 -11.943   5.571  1.00  0.00     0.039 C 
ENDROOT
BRANCH   1  12
HETATM   12  N   UNL     1      43.049 -12.230   5.128  1.00  0.00    -0.334 N 
HETATM   13  C   UNL     1      43.851 -11.637   6.035  1.00  0.00     0.316 C 
HETATM   14  N   UNL     1      43.359 -11.486   7.294  1.00  0.00    -0.343 N 
HETATM   15  O   UNL     1      44.962 -11.258   5.684  1.00  0.00    -0.247 OA
HETATM   16  H   UNL     1      42.563 -12.045   7.548  1.00  0.00     0.164 HD
HETATM   17  H   UNL     1      43.497 -12.264   4.219  1.00  0.00     0.165 HD
BRANCH  14  18
HETATM   18  C   UNL     1      44.205 -11.032   8.380  1.00  0.00     0.124 C 
BRANCH  18  19
HETATM   19  C   UNL     1      43.997  -9.580   8.824  1.00  0.00     0.019 C 
BRANCH  19  20
HETATM   20  C   UNL     1      45.271  -8.737   8.908  1.00  0.00    -0.003 C 
HETATM   21  C   UNL     1      46.401  -9.229   8.019  1.00  0.00     0.005 C 
ENDBRANCH  19  20
ENDBRANCH  18  19
ENDBRANCH  14  18
ENDBRANCH   1  12
BRANCH   4  22
HETATM   22  C   UNL     1      40.470 -13.819   0.493  1.00  0.00     0.058 A 
HETATM   23  C   UNL     1      39.721 -14.875  -0.056  1.00  0.00     0.034 A 
HETATM   24  C   UNL     1      39.361 -14.873  -1.406  1.00  0.00     0.039 A 
HETATM   25  C   UNL     1      39.734 -13.819  -2.235  1.00  0.00     0.068 A 
HETATM   26  C   UNL     1      40.424 -12.739  -1.687  1.00  0.00     0.039 A 
HETATM   27  C   UNL     1      40.787 -12.736  -0.329  1.00  0.00     0.034 A 
BRANCH  25  28
HETATM   28  O   UNL     1      39.356 -13.950  -3.541  1.00  0.00    -0.356 OA
HETATM   29  C   UNL     1      38.155 -14.673  -3.782  1.00  0.00     0.210 C 
ENDBRANCH  25  28
ENDBRANCH   4  22
TORSDOF 6
ENDMDL
MODEL 10
REMARK VINA RESULT:      -6.9     16.691     19.703
REMARK  6 active torsions:
REMARK  status: ('A' for Active; 'I' for Inactive)
REMARK    1  A    between atoms: C_2  and  C_3 
REMARK    2  A    between atoms: C_3  and  C_4 
REMARK    3  A    between atoms: C_4  and  N_5 
REMARK       I    between atoms: N_5  and  C_6 
REMARK       I    between atoms: C_6  and  N_7 
REMARK    4  A    between atoms: N_7  and  C_8 
REMARK    5  A    between atoms: N_11  and  C_12 
REMARK    6  A    between atoms: C_15  and  O_16 
ROOT
HETATM    1  C   UNL     1      47.811 -29.385   2.318  1.00  0.00     0.123 C 
HETATM    2  C   UNL     1      48.656 -29.585   1.113  1.00  0.00     0.009 A 
HETATM    3  C   UNL     1      49.885 -30.220   1.102  1.00  0.00     0.047 A 
HETATM    4  N   UNL     1      50.246 -30.358  -0.237  1.00  0.00    -0.238 N 
HETATM    5  N   UNL     1      49.343 -29.713  -1.036  1.00  0.00    -0.179 NA
HETATM    6  C   UNL     1      48.392 -29.271  -0.222  1.00  0.00     0.150 A 
HETATM    7  C   UNL     1      50.605 -30.694   2.322  1.00  0.00     0.069 C 
HETATM    8  C   UNL     1      49.723 -30.635   3.614  1.00  0.00    -0.040 C 
HETATM    9  C   UNL     1      50.652 -30.415   4.829  1.00  0.00     0.015 C 
HETATM   10  C   UNL     1      49.020 -31.993   3.817  1.00  0.00     0.015 C 
HETATM   11  C   UNL     1      48.679 -29.472   3.590  1.00  0.00     0.039 C 
ENDROOT
BRANCH   1  12
HETATM   12  N   UNL     1      46.777 -30.402   2.251  1.00  0.00    -0.334 N 
HETATM   13  C   UNL     1      45.549 -30.402   1.694  1.00  0.00     0.316 C 
HETATM   14  N   UNL     1      45.085 -29.219   1.212  1.00  0.00    -0.343 N 
HETATM   15  O   UNL     1      44.915 -31.451   1.660  1.00  0.00    -0.247 OA
HETATM   16  H   UNL     1      45.759 -28.489   1.053  1.00  0.00     0.164 HD
HETATM   17  H   UNL     1      47.012 -31.322   2.605  1.00  0.00     0.165 HD
BRANCH  14  18
HETATM   18  C   UNL     1      43.863 -29.153   0.435  1.00  0.00     0.124 C 
BRANCH  18  19
HETATM   19  C   UNL     1      44.043 -29.070  -1.084  1.00  0.00     0.019 C 
BRANCH  19  20
HETATM   20  C   UNL     1      45.082 -28.053  -1.562  1.00  0.00    -0.003 C 
HETATM   21  C   UNL     1      45.276 -28.024  -3.069  1.00  0.00     0.005 C 
ENDBRANCH  19  20
ENDBRANCH  18  19
ENDBRANCH  14  18
ENDBRANCH   1  12
BRANCH   4  22
HETATM   22  C   UNL     1      51.304 -31.090  -0.861  1.00  0.00     0.058 A 
HETATM   23  C   UNL     1      51.646 -30.768  -2.187  1.00  0.00     0.034 A 
HETATM   24  C   UNL     1      52.595 -31.519  -2.886  1.00  0.00     0.039 A 
HETATM   25  C   UNL     1      53.227 -32.600  -2.278  1.00  0.00     0.068 A 
HETATM   26  C   UNL     1      52.940 -32.890  -0.946  1.00  0.00     0.039 A 
HETATM   27  C   UNL     1      51.987 -32.138  -0.238  1.00  0.00     0.034 A 
BRANCH  25  28
HETATM   28  O   UNL     1      54.106 -33.277  -3.076  1.00  0.00    -0.356 OA
HETATM   29  C   UNL     1      55.460 -33.306  -2.642  1.00  0.00     0.210 C 
ENDBRANCH  25  28
ENDBRANCH   4  22
TORSDOF 6
ENDMDL
