MODEL 1
REMARK VINA RESULT:      -8.8      0.000      0.000
REMARK  3 active torsions:
REMARK  status: ('A' for Active; 'I' for Inactive)
REMARK    1  A    between atoms: O_2  and  C_3 
REMARK    2  A    between atoms: C_5  and  C_26 
REMARK    3  A    between atoms: C_11  and  C_15 
ROOT
HETATM    1  C   UNL     1      42.810 -15.130   3.866  1.00  0.00     0.096 A 
HETATM    2  C   UNL     1      43.334 -16.428   3.887  1.00  0.00     0.051 A 
HETATM    3  C   UNL     1      42.799 -17.435   3.061  1.00  0.00    -0.019 A 
HETATM    4  C   UNL     1      41.734 -17.124   2.209  1.00  0.00     0.031 A 
HETATM    5  C   UNL     1      41.217 -15.826   2.201  1.00  0.00     0.062 A 
HETATM    6  C   UNL     1      40.097 -15.453   1.339  1.00  0.00     0.259 A 
HETATM    7  O   UNL     1      39.536 -16.187   0.552  1.00  0.00    -0.267 OA
HETATM    8  N   UNL     1      39.646 -14.119   1.446  1.00  0.00    -0.312 N 
HETATM    9  C   UNL     1      40.189 -13.239   2.262  1.00  0.00     0.091 A 
HETATM   10  N   UNL     1      41.216 -13.557   3.033  1.00  0.00    -0.342 N 
HETATM   11  H   UNL     1      41.644 -12.882   3.668  1.00  0.00     0.167 HD
HETATM   12  C   UNL     1      41.732 -14.824   3.019  1.00  0.00     0.083 A 
HETATM   13  H   UNL     1      38.853 -13.856   0.863  1.00  0.00     0.170 HD
ENDROOT
BRANCH   9  14
HETATM   14  C   UNL     1      39.650 -11.844   2.361  1.00  0.00     0.082 C 
HETATM   15  C   UNL     1      40.747 -10.785   2.404  1.00  0.00     0.188 C 
HETATM   16  O   UNL     1      41.540 -10.790   1.209  1.00  0.00    -0.350 OA
HETATM   17  C   UNL     1      40.817 -10.739   0.044  1.00  0.00     0.075 A 
HETATM   18  C   UNL     1      41.523 -10.368  -1.102  1.00  0.00     0.040 A 
HETATM   19  C   UNL     1      39.473 -11.125  -0.034  1.00  0.00    -0.021 A 
HETATM   20  C   UNL     1      40.879 -10.349  -2.338  1.00  0.00     0.045 A 
HETATM   21  C   UNL     1      39.539 -10.706  -2.414  1.00  0.00     0.117 A 
HETATM   22  F   UNL     1      38.918 -10.692  -3.601  1.00  0.00    -0.206 F 
HETATM   23  C   UNL     1      38.832 -11.090  -1.279  1.00  0.00     0.052 A 
HETATM   24  C   UNL     1      38.712 -11.540   1.192  1.00  0.00     0.056 C 
ENDBRANCH   9  14
BRANCH   1  25
HETATM   25  O   UNL     1      43.254 -14.074   4.627  1.00  0.00    -0.354 OA
HETATM   26  C   UNL     1      43.240 -14.247   6.044  1.00  0.00     0.210 C 
ENDBRANCH   1  25
BRANCH   3  27
HETATM   27  C   UNL     1      43.339 -18.781   3.115  1.00  0.00     0.010 A 
HETATM   28  C   UNL     1      43.307 -19.829   2.164  1.00  0.00     0.152 A 
HETATM   29  N   UNL     1      43.915 -20.934   2.595  1.00  0.00    -0.187 NA
HETATM   30  N   UNL     1      44.347 -20.606   3.822  1.00  0.00    -0.289 N 
HETATM   31  H   UNL     1      44.851 -21.305   4.359  1.00  0.00     0.188 HD
HETATM   32  C   UNL     1      44.024 -19.325   4.181  1.00  0.00     0.123 A 
ENDBRANCH   3  27
TORSDOF 3
ENDMDL
MODEL 2
REMARK VINA RESULT:      -8.8      2.372      3.840
REMARK  3 active torsions:
REMARK  status: ('A' for Active; 'I' for Inactive)
REMARK    1  A    between atoms: O_2  and  C_3 
REMARK    2  A    between atoms: C_5  and  C_26 
REMARK    3  A    between atoms: C_11  and  C_15 
ROOT
HETATM    1  C   UNL     1      42.986 -15.601   3.089  1.00  0.00     0.096 A 
HETATM    2  C   UNL     1      43.264 -16.964   2.925  1.00  0.00     0.051 A 
HETATM    3  C   UNL     1      43.412 -17.809   4.042  1.00  0.00    -0.019 A 
HETATM    4  C   UNL     1      43.274 -17.273   5.326  1.00  0.00     0.031 A 
HETATM    5  C   UNL     1      43.001 -15.911   5.477  1.00  0.00     0.062 A 
HETATM    6  C   UNL     1      42.859 -15.299   6.796  1.00  0.00     0.259 A 
HETATM    7  O   UNL     1      42.933 -15.884   7.858  1.00  0.00    -0.267 OA
HETATM    8  N   UNL     1      42.615 -13.909   6.815  1.00  0.00    -0.312 N 
HETATM    9  C   UNL     1      42.509 -13.181   5.722  1.00  0.00     0.091 A 
HETATM   10  N   UNL     1      42.615 -13.725   4.520  1.00  0.00    -0.342 N 
HETATM   11  H   UNL     1      42.535 -13.170   3.668  1.00  0.00     0.167 HD
HETATM   12  C   UNL     1      42.860 -15.064   4.381  1.00  0.00     0.083 A 
HETATM   13  H   UNL     1      42.535 -13.470   7.731  1.00  0.00     0.170 HD
ENDROOT
BRANCH   9  14
HETATM   14  C   UNL     1      42.283 -11.702   5.799  1.00  0.00     0.082 C 
HETATM   15  C   UNL     1      43.120 -10.920   4.792  1.00  0.00     0.188 C 
HETATM   16  O   UNL     1      42.796 -11.272   3.441  1.00  0.00    -0.350 OA
HETATM   17  C   UNL     1      41.457 -11.229   3.145  1.00  0.00     0.075 A 
HETATM   18  C   UNL     1      41.128 -11.193   1.789  1.00  0.00     0.040 A 
HETATM   19  C   UNL     1      40.459 -11.312   4.124  1.00  0.00    -0.021 A 
HETATM   20  C   UNL     1      39.790 -11.207   1.399  1.00  0.00     0.045 A 
HETATM   21  C   UNL     1      38.797 -11.264   2.369  1.00  0.00     0.117 A 
HETATM   22  F   UNL     1      37.511 -11.281   1.998  1.00  0.00    -0.206 F 
HETATM   23  C   UNL     1      39.118 -11.313   3.722  1.00  0.00     0.052 A 
HETATM   24  C   UNL     1      40.806 -11.366   5.584  1.00  0.00     0.056 C 
ENDBRANCH   9  14
BRANCH   1  25
HETATM   25  O   UNL     1      42.821 -14.690   2.074  1.00  0.00    -0.354 OA
HETATM   26  C   UNL     1      41.684 -14.863   1.227  1.00  0.00     0.210 C 
ENDBRANCH   1  25
BRANCH   3  27
HETATM   27  C   UNL     1      43.725 -19.214   3.852  1.00  0.00     0.010 A 
HETATM   28  C   UNL     1      43.704 -20.017   2.687  1.00  0.00     0.152 A 
HETATM   29  N   UNL     1      44.052 -21.281   2.926  1.00  0.00    -0.187 NA
HETATM   30  N   UNL     1      44.302 -21.302   4.244  1.00  0.00    -0.289 N 
HETATM   31  H   UNL     1      44.591 -22.179   4.666  1.00  0.00     0.188 HD
HETATM   32  C   UNL     1      44.118 -20.086   4.845  1.00  0.00     0.123 A 
ENDBRANCH   3  27
TORSDOF 3
ENDMDL
MODEL 3
REMARK VINA RESULT:      -8.6      7.180     10.849
REMARK  3 active torsions:
REMARK  status: ('A' for Active; 'I' for Inactive)
REMARK    1  A    between atoms: O_2  and  C_3 
REMARK    2  A    between atoms: C_5  and  C_26 
REMARK    3  A    between atoms: C_11  and  C_15 
ROOT
HETATM    1  C   UNL     1      41.075  -8.831   9.927  1.00  0.00     0.096 A 
HETATM    2  C   UNL     1      41.019  -8.462  11.277  1.00  0.00     0.051 A 
HETATM    3  C   UNL     1      42.102  -8.718  12.139  1.00  0.00    -0.019 A 
HETATM    4  C   UNL     1      43.245  -9.346  11.632  1.00  0.00     0.031 A 
HETATM    5  C   UNL     1      43.286  -9.713  10.285  1.00  0.00     0.062 A 
HETATM    6  C   UNL     1      44.450 -10.382   9.708  1.00  0.00     0.259 A 
HETATM    7  O   UNL     1      45.473 -10.656  10.302  1.00  0.00    -0.267 OA
HETATM    8  N   UNL     1      44.356 -10.731   8.344  1.00  0.00    -0.312 N 
HETATM    9  C   UNL     1      43.296 -10.473   7.606  1.00  0.00     0.091 A 
HETATM   10  N   UNL     1      42.242  -9.850   8.109  1.00  0.00    -0.342 N 
HETATM   11  H   UNL     1      41.416  -9.646   7.546  1.00  0.00     0.167 HD
HETATM   12  C   UNL     1      42.218  -9.473   9.424  1.00  0.00     0.083 A 
HETATM   13  H   UNL     1      45.156 -11.215   7.938  1.00  0.00     0.170 HD
ENDROOT
BRANCH   9  14
HETATM   14  C   UNL     1      43.234 -10.894   6.170  1.00  0.00     0.082 C 
HETATM   15  C   UNL     1      44.410 -11.774   5.757  1.00  0.00     0.188 C 
HETATM   16  O   UNL     1      44.444 -13.000   6.499  1.00  0.00    -0.350 OA
HETATM   17  C   UNL     1      43.260 -13.692   6.512  1.00  0.00     0.075 A 
HETATM   18  C   UNL     1      43.337 -15.035   6.886  1.00  0.00     0.040 A 
HETATM   19  C   UNL     1      42.022 -13.086   6.264  1.00  0.00    -0.021 A 
HETATM   20  C   UNL     1      42.173 -15.796   6.984  1.00  0.00     0.045 A 
HETATM   21  C   UNL     1      40.946 -15.204   6.712  1.00  0.00     0.117 A 
HETATM   22  F   UNL     1      39.826 -15.932   6.808  1.00  0.00    -0.206 F 
HETATM   23  C   UNL     1      40.860 -13.863   6.352  1.00  0.00     0.052 A 
HETATM   24  C   UNL     1      41.931 -11.639   5.876  1.00  0.00     0.056 C 
ENDBRANCH   9  14
BRANCH   1  25
HETATM   25  O   UNL     1      40.080  -8.629   9.000  1.00  0.00    -0.354 OA
HETATM   26  C   UNL     1      39.679  -7.278   8.766  1.00  0.00     0.210 C 
ENDBRANCH   1  25
BRANCH   3  27
HETATM   27  C   UNL     1      42.016  -8.350  13.541  1.00  0.00     0.010 A 
HETATM   28  C   UNL     1      42.730  -7.384  14.289  1.00  0.00     0.152 A 
HETATM   29  N   UNL     1      42.366  -7.352  15.570  1.00  0.00    -0.187 NA
HETATM   30  N   UNL     1      41.414  -8.293  15.657  1.00  0.00    -0.289 N 
HETATM   31  H   UNL     1      40.977  -8.455  16.559  1.00  0.00     0.188 HD
HETATM   32  C   UNL     1      41.169  -8.922  14.467  1.00  0.00     0.123 A 
ENDBRANCH   3  27
TORSDOF 3
ENDMDL
MODEL 4
REMARK VINA RESULT:      -8.3      5.801      8.019
REMARK  3 active torsions:
REMARK  status: ('A' for Active; 'I' for Inactive)
REMARK    1  A    between atoms: O_2  and  C_3 
REMARK    2  A    between atoms: C_5  and  C_26 
REMARK    3  A    between atoms: C_11  and  C_15 
ROOT
HETATM    1  C   UNL     1      43.810 -12.677   6.753  1.00  0.00     0.096 A 
HETATM    2  C   UNL     1      44.057 -13.999   6.365  1.00  0.00     0.051 A 
HETATM    3  C   UNL     1      43.014 -14.820   5.896  1.00  0.00    -0.019 A 
HETATM    4  C   UNL     1      41.718 -14.297   5.816  1.00  0.00     0.031 A 
HETATM    5  C   UNL     1      41.484 -12.978   6.211  1.00  0.00     0.062 A 
HETATM    6  C   UNL     1      40.148 -12.389   6.159  1.00  0.00     0.259 A 
HETATM    7  O   UNL     1      39.145 -12.945   5.760  1.00  0.00    -0.267 OA
HETATM    8  N   UNL     1      40.036 -11.058   6.615  1.00  0.00    -0.312 N 
HETATM    9  C   UNL     1      41.061 -10.360   7.060  1.00  0.00     0.091 A 
HETATM   10  N   UNL     1      42.280 -10.874   7.094  1.00  0.00    -0.342 N 
HETATM   11  H   UNL     1      43.080 -10.342   7.438  1.00  0.00     0.167 HD
HETATM   12  C   UNL     1      42.506 -12.160   6.684  1.00  0.00     0.083 A 
HETATM   13  H   UNL     1      39.104 -10.645   6.601  1.00  0.00     0.170 HD
ENDROOT
BRANCH   9  14
HETATM   14  C   UNL     1      40.881  -8.961   7.564  1.00  0.00     0.082 C 
HETATM   15  C   UNL     1      39.458  -8.677   8.034  1.00  0.00     0.188 C 
HETATM   16  O   UNL     1      39.082  -9.516   9.134  1.00  0.00    -0.350 OA
HETATM   17  C   UNL     1      39.977  -9.528  10.174  1.00  0.00     0.075 A 
HETATM   18  C   UNL     1      39.497 -10.012  11.392  1.00  0.00     0.040 A 
HETATM   19  C   UNL     1      41.323  -9.174  10.023  1.00  0.00    -0.021 A 
HETATM   20  C   UNL     1      40.356 -10.116  12.485  1.00  0.00     0.045 A 
HETATM   21  C   UNL     1      41.687  -9.740  12.345  1.00  0.00     0.117 A 
HETATM   22  F   UNL     1      42.515  -9.841  13.391  1.00  0.00    -0.206 F 
HETATM   23  C   UNL     1      42.175  -9.270  11.130  1.00  0.00     0.052 A 
HETATM   24  C   UNL     1      41.850  -8.668   8.711  1.00  0.00     0.056 C 
ENDBRANCH   9  14
BRANCH   1  25
HETATM   25  O   UNL     1      44.750 -11.791   7.224  1.00  0.00    -0.354 OA
HETATM   26  C   UNL     1      45.747 -11.354   6.299  1.00  0.00     0.210 C 
ENDBRANCH   1  25
BRANCH   3  27
HETATM   27  C   UNL     1      43.285 -16.196   5.521  1.00  0.00     0.010 A 
HETATM   28  C   UNL     1      43.534 -16.777   4.255  1.00  0.00     0.152 A 
HETATM   29  N   UNL     1      43.732 -18.093   4.322  1.00  0.00    -0.187 NA
HETATM   30  N   UNL     1      43.616 -18.369   5.630  1.00  0.00    -0.289 N 
HETATM   31  H   UNL     1      43.729 -19.332   5.932  1.00  0.00     0.188 HD
HETATM   32  C   UNL     1      43.346 -17.264   6.391  1.00  0.00     0.123 A 
ENDBRANCH   3  27
TORSDOF 3
ENDMDL
MODEL 5
REMARK VINA RESULT:      -8.3      5.840      8.375
REMARK  3 active torsions:
REMARK  status: ('A' for Active; 'I' for Inactive)
REMARK    1  A    between atoms: O_2  and  C_3 
REMARK    2  A    between atoms: C_5  and  C_26 
REMARK    3  A    between atoms: C_11  and  C_15 
ROOT
HETATM    1  C   UNL     1      41.061 -13.136   5.505  1.00  0.00     0.096 A 
HETATM    2  C   UNL     1      41.550 -14.389   5.115  1.00  0.00     0.051 A 
HETATM    3  C   UNL     1      42.876 -14.766   5.399  1.00  0.00    -0.019 A 
HETATM    4  C   UNL     1      43.707 -13.874   6.084  1.00  0.00     0.031 A 
HETATM    5  C   UNL     1      43.209 -12.625   6.463  1.00  0.00     0.062 A 
HETATM    6  C   UNL     1      44.040 -11.651   7.169  1.00  0.00     0.259 A 
HETATM    7  O   UNL     1      45.192 -11.822   7.512  1.00  0.00    -0.267 OA
HETATM    8  N   UNL     1      43.431 -10.414   7.469  1.00  0.00    -0.312 N 
HETATM    9  C   UNL     1      42.185 -10.128   7.151  1.00  0.00     0.091 A 
HETATM   10  N   UNL     1      41.414 -11.007   6.529  1.00  0.00    -0.342 N 
HETATM   11  H   UNL     1      40.448 -10.796   6.278  1.00  0.00     0.167 HD
HETATM   12  C   UNL     1      41.903 -12.237   6.181  1.00  0.00     0.083 A 
HETATM   13  H   UNL     1      44.009  -9.721   7.944  1.00  0.00     0.170 HD
ENDROOT
BRANCH   9  14
HETATM   14  C   UNL     1      41.597  -8.787   7.463  1.00  0.00     0.082 C 
HETATM   15  C   UNL     1      40.202  -8.877   8.074  1.00  0.00     0.188 C 
HETATM   16  O   UNL     1      40.212  -9.575   9.327  1.00  0.00    -0.350 OA
HETATM   17  C   UNL     1      41.142  -9.120  10.226  1.00  0.00     0.075 A 
HETATM   18  C   UNL     1      40.948  -9.498  11.556  1.00  0.00     0.040 A 
HETATM   19  C   UNL     1      42.281  -8.400   9.844  1.00  0.00    -0.021 A 
HETATM   20  C   UNL     1      41.878  -9.129  12.526  1.00  0.00     0.045 A 
HETATM   21  C   UNL     1      42.995  -8.391  12.153  1.00  0.00     0.117 A 
HETATM   22  F   UNL     1      43.893  -8.038  13.082  1.00  0.00    -0.206 F 
HETATM   23  C   UNL     1      43.203  -8.022  10.828  1.00  0.00     0.052 A 
HETATM   24  C   UNL     1      42.504  -8.003   8.413  1.00  0.00     0.056 C 
ENDBRANCH   9  14
BRANCH   1  25
HETATM   25  O   UNL     1      39.788 -12.668   5.281  1.00  0.00    -0.354 OA
HETATM   26  C   UNL     1      39.398 -12.480   3.920  1.00  0.00     0.210 C 
ENDBRANCH   1  25
BRANCH   3  27
HETATM   27  C   UNL     1      43.371 -16.060   4.965  1.00  0.00     0.010 A 
HETATM   28  C   UNL     1      44.284 -16.952   5.575  1.00  0.00     0.152 A 
HETATM   29  N   UNL     1      44.494 -18.051   4.850  1.00  0.00    -0.187 NA
HETATM   30  N   UNL     1      43.717 -17.876   3.771  1.00  0.00    -0.289 N 
HETATM   31  H   UNL     1      43.710 -18.600   3.059  1.00  0.00     0.188 HD
HETATM   32  C   UNL     1      43.024 -16.696   3.792  1.00  0.00     0.123 A 
ENDBRANCH   3  27
TORSDOF 3
ENDMDL
MODEL 6
REMARK VINA RESULT:      -8.3      3.620      5.266
REMARK  3 active torsions:
REMARK  status: ('A' for Active; 'I' for Inactive)
REMARK    1  A    between atoms: O_2  and  C_3 
REMARK    2  A    between atoms: C_5  and  C_26 
REMARK    3  A    between atoms: C_11  and  C_15 
ROOT
HETATM    1  C   UNL     1      43.088 -15.834   2.603  1.00  0.00     0.096 A 
HETATM    2  C   UNL     1      43.266 -17.210   2.797  1.00  0.00     0.051 A 
HETATM    3  C   UNL     1      43.531 -17.728   4.078  1.00  0.00    -0.019 A 
HETATM    4  C   UNL     1      43.612 -16.852   5.166  1.00  0.00     0.031 A 
HETATM    5  C   UNL     1      43.437 -15.482   4.958  1.00  0.00     0.062 A 
HETATM    6  C   UNL     1      43.524 -14.523   6.058  1.00  0.00     0.259 A 
HETATM    7  O   UNL     1      43.722 -14.801   7.223  1.00  0.00    -0.267 OA
HETATM    8  N   UNL     1      43.360 -13.164   5.714  1.00  0.00    -0.312 N 
HETATM    9  C   UNL     1      43.134 -12.755   4.482  1.00  0.00     0.091 A 
HETATM   10  N   UNL     1      43.032 -13.613   3.480  1.00  0.00    -0.342 N 
HETATM   11  H   UNL     1      42.857 -13.306   2.522  1.00  0.00     0.167 HD
HETATM   12  C   UNL     1      43.183 -14.956   3.695  1.00  0.00     0.083 A 
HETATM   13  H   UNL     1      43.439 -12.487   6.471  1.00  0.00     0.170 HD
ENDROOT
BRANCH   9  14
HETATM   14  C   UNL     1      43.000 -11.297   4.166  1.00  0.00     0.082 C 
HETATM   15  C   UNL     1      41.937 -11.013   3.110  1.00  0.00     0.188 C 
HETATM   16  O   UNL     1      40.631 -11.416   3.546  1.00  0.00    -0.350 OA
HETATM   17  C   UNL     1      40.271 -10.944   4.782  1.00  0.00     0.075 A 
HETATM   18  C   UNL     1      38.909 -10.988   5.083  1.00  0.00     0.040 A 
HETATM   19  C   UNL     1      41.205 -10.529   5.739  1.00  0.00    -0.021 A 
HETATM   20  C   UNL     1      38.463 -10.583   6.341  1.00  0.00     0.045 A 
HETATM   21  C   UNL     1      39.385 -10.146   7.284  1.00  0.00     0.117 A 
HETATM   22  F   UNL     1      38.960  -9.760   8.493  1.00  0.00    -0.206 F 
HETATM   23  C   UNL     1      40.746 -10.113   6.995  1.00  0.00     0.052 A 
HETATM   24  C   UNL     1      42.673 -10.495   5.427  1.00  0.00     0.056 C 
ENDBRANCH   9  14
BRANCH   1  25
HETATM   25  O   UNL     1      42.824 -15.223   1.400  1.00  0.00    -0.354 OA
HETATM   26  C   UNL     1      41.457 -15.157   0.993  1.00  0.00     0.210 C 
ENDBRANCH   1  25
BRANCH   3  27
HETATM   27  C   UNL     1      43.737 -19.155   4.256  1.00  0.00     0.010 A 
HETATM   28  C   UNL     1      43.922 -19.923   5.429  1.00  0.00     0.152 A 
HETATM   29  N   UNL     1      44.091 -21.220   5.174  1.00  0.00    -0.187 NA
HETATM   30  N   UNL     1      44.013 -21.298   3.838  1.00  0.00    -0.289 N 
HETATM   31  H   UNL     1      44.115 -22.209   3.400  1.00  0.00     0.188 HD
HETATM   32  C   UNL     1      43.804 -20.085   3.240  1.00  0.00     0.123 A 
ENDBRANCH   3  27
TORSDOF 3
ENDMDL
MODEL 7
REMARK VINA RESULT:      -8.2      2.069      3.560
REMARK  3 active torsions:
REMARK  status: ('A' for Active; 'I' for Inactive)
REMARK    1  A    between atoms: O_2  and  C_3 
REMARK    2  A    between atoms: C_5  and  C_26 
REMARK    3  A    between atoms: C_11  and  C_15 
ROOT
HETATM    1  C   UNL     1      40.694 -14.579   2.406  1.00  0.00     0.096 A 
HETATM    2  C   UNL     1      41.194 -15.599   3.225  1.00  0.00     0.051 A 
HETATM    3  C   UNL     1      42.315 -15.378   4.048  1.00  0.00    -0.019 A 
HETATM    4  C   UNL     1      42.927 -14.120   4.044  1.00  0.00     0.031 A 
HETATM    5  C   UNL     1      42.422 -13.113   3.219  1.00  0.00     0.062 A 
HETATM    6  C   UNL     1      43.032 -11.786   3.168  1.00  0.00     0.259 A 
HETATM    7  O   UNL     1      43.985 -11.421   3.826  1.00  0.00    -0.267 OA
HETATM    8  N   UNL     1      42.449 -10.865   2.271  1.00  0.00    -0.312 N 
HETATM    9  C   UNL     1      41.409 -11.156   1.517  1.00  0.00     0.091 A 
HETATM   10  N   UNL     1      40.833 -12.346   1.566  1.00  0.00    -0.342 N 
HETATM   11  H   UNL     1      40.027 -12.581   0.986  1.00  0.00     0.167 HD
HETATM   12  C   UNL     1      41.320 -13.321   2.394  1.00  0.00     0.083 A 
HETATM   13  H   UNL     1      42.880  -9.944   2.215  1.00  0.00     0.170 HD
ENDROOT
BRANCH   9  14
HETATM   14  C   UNL     1      40.848 -10.152   0.557  1.00  0.00     0.082 C 
HETATM   15  C   UNL     1      41.682 -10.014  -0.713  1.00  0.00     0.188 C 
HETATM   16  O   UNL     1      41.734 -11.241  -1.453  1.00  0.00    -0.350 OA
HETATM   17  C   UNL     1      40.512 -11.813  -1.697  1.00  0.00     0.075 A 
HETATM   18  C   UNL     1      40.475 -12.777  -2.707  1.00  0.00     0.040 A 
HETATM   19  C   UNL     1      39.375 -11.536  -0.927  1.00  0.00    -0.021 A 
HETATM   20  C   UNL     1      39.285 -13.451  -2.979  1.00  0.00     0.045 A 
HETATM   21  C   UNL     1      38.149 -13.158  -2.234  1.00  0.00     0.117 A 
HETATM   22  F   UNL     1      37.007 -13.806  -2.492  1.00  0.00    -0.206 F 
HETATM   23  C   UNL     1      38.182 -12.209  -1.218  1.00  0.00     0.052 A 
HETATM   24  C   UNL     1      39.412 -10.512   0.170  1.00  0.00     0.056 C 
ENDBRANCH   9  14
BRANCH   1  25
HETATM   25  O   UNL     1      39.610 -14.684   1.567  1.00  0.00    -0.354 OA
HETATM   26  C   UNL     1      39.824 -15.330   0.311  1.00  0.00     0.210 C 
ENDBRANCH   1  25
BRANCH   3  27
HETATM   27  C   UNL     1      42.833 -16.455   4.872  1.00  0.00     0.010 A 
HETATM   28  C   UNL     1      43.719 -17.513   4.561  1.00  0.00     0.152 A 
HETATM   29  N   UNL     1      43.949 -18.315   5.600  1.00  0.00    -0.187 NA
HETATM   30  N   UNL     1      43.217 -17.779   6.588  1.00  0.00    -0.289 N 
HETATM   31  H   UNL     1      43.233 -18.228   7.499  1.00  0.00     0.188 HD
HETATM   32  C   UNL     1      42.527 -16.662   6.201  1.00  0.00     0.123 A 
ENDBRANCH   3  27
TORSDOF 3
ENDMDL
MODEL 8
REMARK VINA RESULT:      -8.1      1.438      3.079
REMARK  3 active torsions:
REMARK  status: ('A' for Active; 'I' for Inactive)
REMARK    1  A    between atoms: O_2  and  C_3 
REMARK    2  A    between atoms: C_5  and  C_26 
REMARK    3  A    between atoms: C_11  and  C_15 
ROOT
HETATM    1  C   UNL     1      41.942 -15.674   2.394  1.00  0.00     0.096 A 
HETATM    2  C   UNL     1      42.407 -16.994   2.464  1.00  0.00     0.051 A 
HETATM    3  C   UNL     1      43.040 -17.473   3.627  1.00  0.00    -0.019 A 
HETATM    4  C   UNL     1      43.198 -16.616   4.721  1.00  0.00     0.031 A 
HETATM    5  C   UNL     1      42.734 -15.302   4.636  1.00  0.00     0.062 A 
HETATM    6  C   UNL     1      42.886 -14.362   5.745  1.00  0.00     0.259 A 
HETATM    7  O   UNL     1      43.385 -14.616   6.823  1.00  0.00    -0.267 OA
HETATM    8  N   UNL     1      42.405 -13.054   5.525  1.00  0.00    -0.312 N 
HETATM    9  C   UNL     1      41.840 -12.675   4.396  1.00  0.00     0.091 A 
HETATM   10  N   UNL     1      41.677 -13.520   3.390  1.00  0.00    -0.342 N 
HETATM   11  H   UNL     1      41.241 -13.236   2.512  1.00  0.00     0.167 HD
HETATM   12  C   UNL     1      42.114 -14.813   3.489  1.00  0.00     0.083 A 
HETATM   13  H   UNL     1      42.525 -12.387   6.286  1.00  0.00     0.170 HD
ENDROOT
BRANCH   9  14
HETATM   14  C   UNL     1      41.376 -11.264   4.202  1.00  0.00     0.082 C 
HETATM   15  C   UNL     1      42.284 -10.462   3.275  1.00  0.00     0.188 C 
HETATM   16  O   UNL     1      42.327 -11.021   1.955  1.00  0.00    -0.350 OA
HETATM   17  C   UNL     1      41.097 -11.258   1.396  1.00  0.00     0.075 A 
HETATM   18  C   UNL     1      41.076 -11.440   0.012  1.00  0.00     0.040 A 
HETATM   19  C   UNL     1      39.932 -11.411   2.158  1.00  0.00    -0.021 A 
HETATM   20  C   UNL     1      39.877 -11.744  -0.630  1.00  0.00     0.045 A 
HETATM   21  C   UNL     1      38.714 -11.870   0.120  1.00  0.00     0.117 A 
HETATM   22  F   UNL     1      37.561 -12.166  -0.493  1.00  0.00    -0.206 F 
HETATM   23  C   UNL     1      38.730 -11.704   1.502  1.00  0.00     0.052 A 
HETATM   24  C   UNL     1      39.950 -11.232   3.648  1.00  0.00     0.056 C 
ENDBRANCH   9  14
BRANCH   1  25
HETATM   25  O   UNL     1      41.311 -15.104   1.314  1.00  0.00    -0.354 OA
HETATM   26  C   UNL     1      39.957 -15.490   1.077  1.00  0.00     0.210 C 
ENDBRANCH   1  25
BRANCH   3  27
HETATM   27  C   UNL     1      43.537 -18.837   3.672  1.00  0.00     0.010 A 
HETATM   28  C   UNL     1      44.107 -19.578   4.734  1.00  0.00     0.152 A 
HETATM   29  N   UNL     1      44.452 -20.814   4.372  1.00  0.00    -0.187 NA
HETATM   30  N   UNL     1      44.104 -20.879   3.078  1.00  0.00    -0.289 N 
HETATM   31  H   UNL     1      44.275 -21.744   2.576  1.00  0.00     0.188 HD
HETATM   32  C   UNL     1      43.553 -19.717   2.611  1.00  0.00     0.123 A 
ENDBRANCH   3  27
TORSDOF 3
ENDMDL
MODEL 9
REMARK VINA RESULT:      -8.0      4.062      7.240
REMARK  3 active torsions:
REMARK  status: ('A' for Active; 'I' for Inactive)
REMARK    1  A    between atoms: O_2  and  C_3 
REMARK    2  A    between atoms: C_5  and  C_26 
REMARK    3  A    between atoms: C_11  and  C_15 
ROOT
HETATM    1  C   UNL     1      40.990 -13.757   0.977  1.00  0.00     0.096 A 
HETATM    2  C   UNL     1      40.424 -14.064  -0.266  1.00  0.00     0.051 A 
HETATM    3  C   UNL     1      39.249 -13.422  -0.702  1.00  0.00    -0.019 A 
HETATM    4  C   UNL     1      38.649 -12.464   0.123  1.00  0.00     0.031 A 
HETATM    5  C   UNL     1      39.220 -12.171   1.363  1.00  0.00     0.062 A 
HETATM    6  C   UNL     1      38.626 -11.189   2.268  1.00  0.00     0.259 A 
HETATM    7  O   UNL     1      37.632 -10.530   2.041  1.00  0.00    -0.267 OA
HETATM    8  N   UNL     1      39.281 -11.005   3.505  1.00  0.00    -0.312 N 
HETATM    9  C   UNL     1      40.370 -11.662   3.848  1.00  0.00     0.091 A 
HETATM   10  N   UNL     1      40.931 -12.540   3.032  1.00  0.00    -0.342 N 
HETATM   11  H   UNL     1      41.774 -13.053   3.288  1.00  0.00     0.167 HD
HETATM   12  C   UNL     1      40.377 -12.805   1.809  1.00  0.00     0.083 A 
HETATM   13  H   UNL     1      38.862 -10.336   4.150  1.00  0.00     0.170 HD
ENDROOT
BRANCH   9  14
HETATM   14  C   UNL     1      41.007 -11.453   5.188  1.00  0.00     0.082 C 
HETATM   15  C   UNL     1      40.071 -11.777   6.348  1.00  0.00     0.188 C 
HETATM   16  O   UNL     1      39.670 -13.154   6.341  1.00  0.00    -0.350 OA
HETATM   17  C   UNL     1      40.705 -14.049   6.246  1.00  0.00     0.075 A 
HETATM   18  C   UNL     1      40.414 -15.366   6.607  1.00  0.00     0.040 A 
HETATM   19  C   UNL     1      41.961 -13.708   5.729  1.00  0.00    -0.021 A 
HETATM   20  C   UNL     1      41.392 -16.352   6.484  1.00  0.00     0.045 A 
HETATM   21  C   UNL     1      42.647 -16.010   5.995  1.00  0.00     0.117 A 
HETATM   22  F   UNL     1      43.587 -16.955   5.873  1.00  0.00    -0.206 F 
HETATM   23  C   UNL     1      42.940 -14.702   5.621  1.00  0.00     0.052 A 
HETATM   24  C   UNL     1      42.276 -12.296   5.324  1.00  0.00     0.056 C 
ENDBRANCH   9  14
BRANCH   1  25
HETATM   25  O   UNL     1      42.130 -14.320   1.499  1.00  0.00    -0.354 OA
HETATM   26  C   UNL     1      42.085 -15.716   1.796  1.00  0.00     0.210 C 
ENDBRANCH   1  25
BRANCH   3  27
HETATM   27  C   UNL     1      38.663 -13.771  -1.984  1.00  0.00     0.010 A 
HETATM   28  C   UNL     1      39.040 -14.745  -2.938  1.00  0.00     0.152 A 
HETATM   29  N   UNL     1      38.246 -14.753  -4.008  1.00  0.00    -0.187 NA
HETATM   30  N   UNL     1      37.352 -13.787  -3.751  1.00  0.00    -0.289 N 
HETATM   31  H   UNL     1      36.629 -13.603  -4.440  1.00  0.00     0.188 HD
HETATM   32  C   UNL     1      37.560 -13.166  -2.549  1.00  0.00     0.123 A 
ENDBRANCH   3  27
TORSDOF 3
ENDMDL
MODEL 10
REMARK VINA RESULT:      -7.9     15.403     17.402
REMARK  3 active torsions:
REMARK  status: ('A' for Active; 'I' for Inactive)
REMARK    1  A    between atoms: O_2  and  C_3 
REMARK    2  A    between atoms: C_5  and  C_26 
REMARK    3  A    between atoms: C_11  and  C_15 
ROOT
HETATM    1  C   UNL     1      49.111 -31.128   2.961  1.00  0.00     0.096 A 
HETATM    2  C   UNL     1      48.824 -31.684   4.215  1.00  0.00     0.051 A 
HETATM    3  C   UNL     1      47.600 -31.419   4.857  1.00  0.00    -0.019 A 
HETATM    4  C   UNL     1      46.663 -30.593   4.226  1.00  0.00     0.031 A 
HETATM    5  C   UNL     1      46.963 -30.042   2.979  1.00  0.00     0.062 A 
HETATM    6  C   UNL     1      46.025 -29.164   2.283  1.00  0.00     0.259 A 
HETATM    7  O   UNL     1      44.921 -28.852   2.682  1.00  0.00    -0.267 OA
HETATM    8  N   UNL     1      46.458 -28.645   1.044  1.00  0.00    -0.312 N 
HETATM    9  C   UNL     1      47.632 -28.925   0.517  1.00  0.00     0.091 A 
HETATM   10  N   UNL     1      48.484 -29.735   1.125  1.00  0.00    -0.342 N 
HETATM   11  H   UNL     1      49.396 -29.958   0.725  1.00  0.00     0.167 HD
HETATM   12  C   UNL     1      48.173 -30.290   2.337  1.00  0.00     0.083 A 
HETATM   13  H   UNL     1      45.818 -28.015   0.562  1.00  0.00     0.170 HD
ENDROOT
BRANCH   9  14
HETATM   14  C   UNL     1      48.056 -28.321  -0.787  1.00  0.00     0.082 C 
HETATM   15  C   UNL     1      48.755 -29.320  -1.705  1.00  0.00     0.188 C 
HETATM   16  O   UNL     1      47.892 -30.406  -2.066  1.00  0.00    -0.350 OA
HETATM   17  C   UNL     1      46.668 -30.026  -2.553  1.00  0.00     0.075 A 
HETATM   18  C   UNL     1      45.955 -31.000  -3.254  1.00  0.00     0.040 A 
HETATM   19  C   UNL     1      46.102 -28.771  -2.292  1.00  0.00    -0.021 A 
HETATM   20  C   UNL     1      44.676 -30.716  -3.731  1.00  0.00     0.045 A 
HETATM   21  C   UNL     1      44.123 -29.463  -3.497  1.00  0.00     0.117 A 
HETATM   22  F   UNL     1      42.895 -29.188  -3.951  1.00  0.00    -0.206 F 
HETATM   23  C   UNL     1      44.823 -28.491  -2.787  1.00  0.00     0.052 A 
HETATM   24  C   UNL     1      46.857 -27.724  -1.525  1.00  0.00     0.056 C 
ENDBRANCH   9  14
BRANCH   1  25
HETATM   25  O   UNL     1      50.269 -31.321   2.246  1.00  0.00    -0.354 OA
HETATM   26  C   UNL     1      50.677 -32.671   2.025  1.00  0.00     0.210 C 
ENDBRANCH   1  25
BRANCH   3  27
HETATM   27  C   UNL     1      47.331 -31.984   6.167  1.00  0.00     0.010 A 
HETATM   28  C   UNL     1      46.146 -32.001   6.941  1.00  0.00     0.152 A 
HETATM   29  N   UNL     1      46.305 -32.617   8.112  1.00  0.00    -0.187 NA
HETATM   30  N   UNL     1      47.589 -33.005   8.100  1.00  0.00    -0.289 N 
HETATM   31  H   UNL     1      47.949 -33.506   8.906  1.00  0.00     0.188 HD
HETATM   32  C   UNL     1      48.248 -32.646   6.955  1.00  0.00     0.123 A 
ENDBRANCH   3  27
TORSDOF 3
ENDMDL
