MODEL 1
REMARK VINA RESULT:      -8.8      0.000      0.000
REMARK  2 active torsions:
REMARK  status: ('A' for Active; 'I' for Inactive)
REMARK    1  A    between atoms: O_2  and  C_3 
REMARK    2  A    between atoms: C_7  and  N_8 
REMARK       I    between atoms: N_8  and  C_9 
REMARK       I    between atoms: C_9  and  N_10 
ROOT
HETATM    1  N   UNL     1      43.349 -12.836   6.442  1.00  0.00    -0.309 N 
HETATM    2  C   UNL     1      43.250 -14.048   7.087  1.00  0.00     0.323 C 
HETATM    3  N   UNL     1      42.783 -15.098   6.305  1.00  0.00    -0.328 N 
HETATM    4  C   UNL     1      42.819 -16.437   6.912  1.00  0.00     0.185 C 
HETATM    5  C   UNL     1      43.101 -17.427   5.835  1.00  0.00     0.035 A 
HETATM    6  C   UNL     1      43.070 -17.205   4.473  1.00  0.00    -0.020 A 
HETATM    7  C   UNL     1      42.739 -15.861   3.920  1.00  0.00     0.061 C 
HETATM    8  C   UNL     1      42.062 -15.006   5.013  1.00  0.00     0.132 C 
HETATM    9  N   UNL     1      43.452 -18.731   6.046  1.00  0.00    -0.357 N 
HETATM   10  H   UNL     1      43.562 -19.174   6.948  1.00  0.00     0.166 HD
HETATM   11  C   UNL     1      43.659 -19.360   4.837  1.00  0.00     0.043 A 
HETATM   12  C   UNL     1      43.428 -18.419   3.828  1.00  0.00    -0.001 A 
HETATM   13  C   UNL     1      44.040 -20.679   4.563  1.00  0.00     0.030 A 
HETATM   14  C   UNL     1      44.193 -21.047   3.223  1.00  0.00     0.002 A 
HETATM   15  C   UNL     1      43.972 -20.129   2.198  1.00  0.00     0.001 A 
HETATM   16  C   UNL     1      43.589 -18.814   2.486  1.00  0.00     0.014 A 
HETATM   17  O   UNL     1      43.568 -14.232   8.260  1.00  0.00    -0.247 OA
HETATM   18  H   UNL     1      43.213 -12.850   5.447  1.00  0.00     0.170 HD
ENDROOT
BRANCH   1  19
HETATM   19  C   UNL     1      43.809 -11.609   6.968  1.00  0.00     0.038 A 
HETATM   20  C   UNL     1      45.151 -11.301   7.198  1.00  0.00     0.056 A 
HETATM   21  C   UNL     1      45.517 -10.042   7.688  1.00  0.00     0.069 A 
HETATM   22  C   UNL     1      44.544  -9.069   7.951  1.00  0.00     0.090 A 
HETATM   23 CL   UNL     1      47.197  -9.710   7.925  1.00  0.00    -0.081 Cl
HETATM   24  C   UNL     1      43.198  -9.387   7.762  1.00  0.00     0.041 A 
HETATM   25  C   UNL     1      42.837 -10.645   7.266  1.00  0.00     0.032 A 
BRANCH  22  26
HETATM   26  O   UNL     1      44.950  -7.857   8.446  1.00  0.00    -0.354 OA
HETATM   27  C   UNL     1      43.914  -7.102   9.067  1.00  0.00     0.210 C 
ENDBRANCH  22  26
ENDBRANCH   1  19
TORSDOF 2
ENDMDL
MODEL 2
REMARK VINA RESULT:      -8.1      6.219      9.478
REMARK  2 active torsions:
REMARK  status: ('A' for Active; 'I' for Inactive)
REMARK    1  A    between atoms: O_2  and  C_3 
REMARK    2  A    between atoms: C_7  and  N_8 
REMARK       I    between atoms: N_8  and  C_9 
REMARK       I    between atoms: C_9  and  N_10 
ROOT
HETATM    1  N   UNL     1      42.330 -15.250   2.615  1.00  0.00    -0.309 N 
HETATM    2  C   UNL     1      41.065 -14.764   2.853  1.00  0.00     0.323 C 
HETATM    3  N   UNL     1      40.781 -13.537   2.265  1.00  0.00    -0.328 N 
HETATM    4  C   UNL     1      39.391 -13.066   2.361  1.00  0.00     0.185 C 
HETATM    5  C   UNL     1      39.070 -12.311   1.117  1.00  0.00     0.035 A 
HETATM    6  C   UNL     1      39.960 -11.878   0.155  1.00  0.00    -0.020 A 
HETATM    7  C   UNL     1      41.419 -12.155   0.276  1.00  0.00     0.061 C 
HETATM    8  C   UNL     1      41.750 -12.550   1.731  1.00  0.00     0.132 C 
HETATM    9  N   UNL     1      37.812 -11.938   0.734  1.00  0.00    -0.357 N 
HETATM   10  H   UNL     1      36.959 -12.129   1.243  1.00  0.00     0.166 HD
HETATM   11  C   UNL     1      37.871 -11.274  -0.473  1.00  0.00     0.043 A 
HETATM   12  C   UNL     1      39.213 -11.225  -0.861  1.00  0.00    -0.001 A 
HETATM   13  C   UNL     1      36.841 -10.725  -1.247  1.00  0.00     0.030 A 
HETATM   14  C   UNL     1      37.192 -10.113  -2.454  1.00  0.00     0.002 A 
HETATM   15  C   UNL     1      38.521 -10.052  -2.868  1.00  0.00     0.001 A 
HETATM   16  C   UNL     1      39.540 -10.604  -2.082  1.00  0.00     0.014 A 
HETATM   17  O   UNL     1      40.212 -15.356   3.511  1.00  0.00    -0.247 OA
HETATM   18  H   UNL     1      42.876 -14.753   1.934  1.00  0.00     0.170 HD
ENDROOT
BRANCH   1  19
HETATM   19  C   UNL     1      42.889 -16.469   3.059  1.00  0.00     0.038 A 
HETATM   20  C   UNL     1      42.911 -17.647   2.310  1.00  0.00     0.056 A 
HETATM   21  C   UNL     1      43.522 -18.799   2.819  1.00  0.00     0.069 A 
HETATM   22  C   UNL     1      44.124 -18.789   4.083  1.00  0.00     0.090 A 
HETATM   23 CL   UNL     1      43.543 -20.219   1.832  1.00  0.00    -0.081 Cl
HETATM   24  C   UNL     1      44.067 -17.625   4.852  1.00  0.00     0.041 A 
HETATM   25  C   UNL     1      43.462 -16.473   4.337  1.00  0.00     0.032 A 
BRANCH  22  26
HETATM   26  O   UNL     1      44.694 -19.947   4.544  1.00  0.00    -0.354 OA
HETATM   27  C   UNL     1      43.927 -20.621   5.538  1.00  0.00     0.210 C 
ENDBRANCH  22  26
ENDBRANCH   1  19
TORSDOF 2
ENDMDL
MODEL 3
REMARK VINA RESULT:      -7.9      3.367      5.049
REMARK  2 active torsions:
REMARK  status: ('A' for Active; 'I' for Inactive)
REMARK    1  A    between atoms: O_2  and  C_3 
REMARK    2  A    between atoms: C_7  and  N_8 
REMARK       I    between atoms: N_8  and  C_9 
REMARK       I    between atoms: C_9  and  N_10 
ROOT
HETATM    1  N   UNL     1      43.188 -10.505   8.947  1.00  0.00    -0.309 N 
HETATM    2  C   UNL     1      42.978 -10.257   7.610  1.00  0.00     0.323 C 
HETATM    3  N   UNL     1      43.435 -11.245   6.745  1.00  0.00    -0.328 N 
HETATM    4  C   UNL     1      43.082 -11.092   5.325  1.00  0.00     0.185 C 
HETATM    5  C   UNL     1      42.881 -12.451   4.748  1.00  0.00     0.035 A 
HETATM    6  C   UNL     1      43.218 -13.658   5.328  1.00  0.00    -0.020 A 
HETATM    7  C   UNL     1      43.845 -13.714   6.678  1.00  0.00     0.061 C 
HETATM    8  C   UNL     1      44.406 -12.323   7.045  1.00  0.00     0.132 C 
HETATM    9  N   UNL     1      42.309 -12.706   3.533  1.00  0.00    -0.357 N 
HETATM   10  H   UNL     1      41.956 -12.010   2.890  1.00  0.00     0.166 HD
HETATM   11  C   UNL     1      42.260 -14.067   3.318  1.00  0.00     0.043 A 
HETATM   12  C   UNL     1      42.824 -14.690   4.436  1.00  0.00    -0.001 A 
HETATM   13  C   UNL     1      41.753 -14.786   2.229  1.00  0.00     0.030 A 
HETATM   14  C   UNL     1      41.821 -16.181   2.284  1.00  0.00     0.002 A 
HETATM   15  C   UNL     1      42.375 -16.829   3.386  1.00  0.00     0.001 A 
HETATM   16  C   UNL     1      42.880 -16.097   4.467  1.00  0.00     0.014 A 
HETATM   17  O   UNL     1      42.407  -9.258   7.175  1.00  0.00    -0.247 OA
HETATM   18  H   UNL     1      43.518 -11.423   9.182  1.00  0.00     0.170 HD
ENDROOT
BRANCH   1  19
HETATM   19  C   UNL     1      42.816  -9.701  10.047  1.00  0.00     0.038 A 
HETATM   20  C   UNL     1      41.504  -9.329  10.346  1.00  0.00     0.056 A 
HETATM   21  C   UNL     1      41.226  -8.559  11.482  1.00  0.00     0.069 A 
HETATM   22  C   UNL     1      42.256  -8.154  12.338  1.00  0.00     0.090 A 
HETATM   23 CL   UNL     1      39.577  -8.156  11.815  1.00  0.00    -0.081 Cl
HETATM   24  C   UNL     1      43.574  -8.488  12.020  1.00  0.00     0.041 A 
HETATM   25  C   UNL     1      43.847  -9.263  10.888  1.00  0.00     0.032 A 
BRANCH  22  26
HETATM   26  O   UNL     1      41.935  -7.388  13.428  1.00  0.00    -0.354 OA
HETATM   27  C   UNL     1      43.041  -7.080  14.273  1.00  0.00     0.210 C 
ENDBRANCH  22  26
ENDBRANCH   1  19
TORSDOF 2
ENDMDL
MODEL 4
REMARK VINA RESULT:      -7.8      3.425      9.812
REMARK  2 active torsions:
REMARK  status: ('A' for Active; 'I' for Inactive)
REMARK    1  A    between atoms: O_2  and  C_3 
REMARK    2  A    between atoms: C_7  and  N_8 
REMARK       I    between atoms: N_8  and  C_9 
REMARK       I    between atoms: C_9  and  N_10 
ROOT
HETATM    1  N   UNL     1      42.615 -12.190   6.479  1.00  0.00    -0.309 N 
HETATM    2  C   UNL     1      43.636 -11.694   7.258  1.00  0.00     0.323 C 
HETATM    3  N   UNL     1      43.356 -10.497   7.908  1.00  0.00    -0.328 N 
HETATM    4  C   UNL     1      44.359 -10.023   8.874  1.00  0.00     0.185 C 
HETATM    5  C   UNL     1      43.644  -9.330   9.983  1.00  0.00     0.035 A 
HETATM    6  C   UNL     1      42.319  -8.944  10.003  1.00  0.00    -0.020 A 
HETATM    7  C   UNL     1      41.421  -9.214   8.845  1.00  0.00     0.061 C 
HETATM    8  C   UNL     1      42.271  -9.537   7.598  1.00  0.00     0.132 C 
HETATM    9  N   UNL     1      44.210  -8.977  11.175  1.00  0.00    -0.357 N 
HETATM   10  H   UNL     1      45.170  -9.143  11.445  1.00  0.00     0.166 HD
HETATM   11  C   UNL     1      43.266  -8.372  11.978  1.00  0.00     0.043 A 
HETATM   12  C   UNL     1      42.064  -8.342  11.264  1.00  0.00    -0.001 A 
HETATM   13  C   UNL     1      43.384  -7.863  13.277  1.00  0.00     0.030 A 
HETATM   14  C   UNL     1      42.243  -7.311  13.865  1.00  0.00     0.002 A 
HETATM   15  C   UNL     1      41.031  -7.270  13.178  1.00  0.00     0.001 A 
HETATM   16  C   UNL     1      40.928  -7.781  11.879  1.00  0.00     0.014 A 
HETATM   17  O   UNL     1      44.719 -12.253   7.412  1.00  0.00    -0.247 OA
HETATM   18  H   UNL     1      41.728 -11.727   6.562  1.00  0.00     0.170 HD
ENDROOT
BRANCH   1  19
HETATM   19  C   UNL     1      42.600 -13.385   5.727  1.00  0.00     0.038 A 
HETATM   20  C   UNL     1      42.935 -13.471   4.374  1.00  0.00     0.056 A 
HETATM   21  C   UNL     1      42.928 -14.709   3.719  1.00  0.00     0.069 A 
HETATM   22  C   UNL     1      42.588 -15.879   4.409  1.00  0.00     0.090 A 
HETATM   23 CL   UNL     1      43.381 -14.756   2.051  1.00  0.00    -0.081 Cl
HETATM   24  C   UNL     1      42.212 -15.791   5.750  1.00  0.00     0.041 A 
HETATM   25  C   UNL     1      42.227 -14.554   6.404  1.00  0.00     0.032 A 
BRANCH  22  26
HETATM   26  O   UNL     1      42.579 -17.063   3.720  1.00  0.00    -0.354 OA
HETATM   27  C   UNL     1      43.667 -17.929   4.031  1.00  0.00     0.210 C 
ENDBRANCH  22  26
ENDBRANCH   1  19
TORSDOF 2
ENDMDL
MODEL 5
REMARK VINA RESULT:      -7.8     16.592     18.618
REMARK  2 active torsions:
REMARK  status: ('A' for Active; 'I' for Inactive)
REMARK    1  A    between atoms: O_2  and  C_3 
REMARK    2  A    between atoms: C_7  and  N_8 
REMARK       I    between atoms: N_8  and  C_9 
REMARK       I    between atoms: C_9  and  N_10 
ROOT
HETATM    1  N   UNL     1      41.516 -32.136   3.008  1.00  0.00    -0.309 N 
HETATM    2  C   UNL     1      42.239 -30.970   2.899  1.00  0.00     0.323 C 
HETATM    3  N   UNL     1      43.190 -30.956   1.886  1.00  0.00    -0.328 N 
HETATM    4  C   UNL     1      43.866 -29.674   1.635  1.00  0.00     0.185 C 
HETATM    5  C   UNL     1      44.149 -29.577   0.175  1.00  0.00     0.035 A 
HETATM    6  C   UNL     1      44.058 -30.591  -0.758  1.00  0.00    -0.020 A 
HETATM    7  C   UNL     1      43.630 -31.963  -0.365  1.00  0.00     0.061 C 
HETATM    8  C   UNL     1      43.754 -32.123   1.166  1.00  0.00     0.132 C 
HETATM    9  N   UNL     1      44.539 -28.437  -0.470  1.00  0.00    -0.357 N 
HETATM   10  H   UNL     1      44.679 -27.533  -0.039  1.00  0.00     0.166 HD
HETATM   11  C   UNL     1      44.695 -28.693  -1.816  1.00  0.00     0.043 A 
HETATM   12  C   UNL     1      44.395 -30.043  -2.025  1.00  0.00    -0.001 A 
HETATM   13  C   UNL     1      45.067 -27.834  -2.857  1.00  0.00     0.030 A 
HETATM   14  C   UNL     1      45.131 -28.367  -4.147  1.00  0.00     0.002 A 
HETATM   15  C   UNL     1      44.835 -29.707  -4.385  1.00  0.00     0.001 A 
HETATM   16  C   UNL     1      44.466 -30.555  -3.335  1.00  0.00     0.014 A 
HETATM   17  O   UNL     1      42.066 -29.983   3.611  1.00  0.00    -0.247 OA
HETATM   18  H   UNL     1      41.639 -32.806   2.270  1.00  0.00     0.170 HD
ENDROOT
BRANCH   1  19
HETATM   19  C   UNL     1      40.477 -32.431   3.919  1.00  0.00     0.038 A 
HETATM   20  C   UNL     1      40.531 -32.171   5.290  1.00  0.00     0.056 A 
HETATM   21  C   UNL     1      39.436 -32.464   6.111  1.00  0.00     0.069 A 
HETATM   22  C   UNL     1      38.268 -33.018   5.572  1.00  0.00     0.090 A 
HETATM   23 CL   UNL     1      39.552 -32.093   7.796  1.00  0.00    -0.081 Cl
HETATM   24  C   UNL     1      38.226 -33.317   4.209  1.00  0.00     0.041 A 
HETATM   25  C   UNL     1      39.320 -33.017   3.391  1.00  0.00     0.032 A 
BRANCH  22  26
HETATM   26  O   UNL     1      37.229 -33.302   6.420  1.00  0.00    -0.354 OA
HETATM   27  C   UNL     1      36.208 -34.111   5.842  1.00  0.00     0.210 C 
ENDBRANCH  22  26
ENDBRANCH   1  19
TORSDOF 2
ENDMDL
MODEL 6
REMARK VINA RESULT:      -7.7      7.727     10.436
REMARK  2 active torsions:
REMARK  status: ('A' for Active; 'I' for Inactive)
REMARK    1  A    between atoms: O_2  and  C_3 
REMARK    2  A    between atoms: C_7  and  N_8 
REMARK       I    between atoms: N_8  and  C_9 
REMARK       I    between atoms: C_9  and  N_10 
ROOT
HETATM    1  N   UNL     1      40.852 -14.837   0.559  1.00  0.00    -0.309 N 
HETATM    2  C   UNL     1      40.757 -13.484   0.327  1.00  0.00     0.323 C 
HETATM    3  N   UNL     1      40.091 -13.128  -0.840  1.00  0.00    -0.328 N 
HETATM    4  C   UNL     1      39.827 -11.695  -1.037  1.00  0.00     0.185 C 
HETATM    5  C   UNL     1      38.528 -11.557  -1.753  1.00  0.00     0.035 A 
HETATM    6  C   UNL     1      37.810 -12.560  -2.374  1.00  0.00    -0.020 A 
HETATM    7  C   UNL     1      38.298 -13.968  -2.374  1.00  0.00     0.061 C 
HETATM    8  C   UNL     1      39.798 -13.994  -2.007  1.00  0.00     0.132 C 
HETATM    9  N   UNL     1      37.835 -10.387  -1.893  1.00  0.00    -0.357 N 
HETATM   10  H   UNL     1      38.117  -9.487  -1.531  1.00  0.00     0.166 HD
HETATM   11  C   UNL     1      36.668 -10.618  -2.591  1.00  0.00     0.043 A 
HETATM   12  C   UNL     1      36.627 -11.981  -2.903  1.00  0.00    -0.001 A 
HETATM   13  C   UNL     1      35.650  -9.729  -2.957  1.00  0.00     0.030 A 
HETATM   14  C   UNL     1      34.557 -10.247  -3.658  1.00  0.00     0.002 A 
HETATM   15  C   UNL     1      34.488 -11.600  -3.981  1.00  0.00     0.001 A 
HETATM   16  C   UNL     1      35.514 -12.477  -3.610  1.00  0.00     0.014 A 
HETATM   17  O   UNL     1      41.192 -12.623   1.088  1.00  0.00    -0.247 OA
HETATM   18  H   UNL     1      40.319 -15.431  -0.051  1.00  0.00     0.170 HD
ENDROOT
BRANCH   1  19
HETATM   19  C   UNL     1      41.446 -15.489   1.662  1.00  0.00     0.038 A 
HETATM   20  C   UNL     1      40.860 -15.597   2.925  1.00  0.00     0.056 A 
HETATM   21  C   UNL     1      41.509 -16.296   3.950  1.00  0.00     0.069 A 
HETATM   22  C   UNL     1      42.752 -16.900   3.726  1.00  0.00     0.090 A 
HETATM   23 CL   UNL     1      40.719 -16.421   5.484  1.00  0.00    -0.081 Cl
HETATM   24  C   UNL     1      43.360 -16.758   2.478  1.00  0.00     0.041 A 
HETATM   25  C   UNL     1      42.706 -16.065   1.453  1.00  0.00     0.032 A 
BRANCH  22  26
HETATM   26  O   UNL     1      43.354 -17.558   4.767  1.00  0.00    -0.354 OA
HETATM   27  C   UNL     1      44.311 -18.535   4.364  1.00  0.00     0.210 C 
ENDBRANCH  22  26
ENDBRANCH   1  19
TORSDOF 2
ENDMDL
MODEL 7
REMARK VINA RESULT:      -7.7      6.093      9.416
REMARK  2 active torsions:
REMARK  status: ('A' for Active; 'I' for Inactive)
REMARK    1  A    between atoms: O_2  and  C_3 
REMARK    2  A    between atoms: C_7  and  N_8 
REMARK       I    between atoms: N_8  and  C_9 
REMARK       I    between atoms: C_9  and  N_10 
ROOT
HETATM    1  N   UNL     1      42.196 -15.232   2.893  1.00  0.00    -0.309 N 
HETATM    2  C   UNL     1      41.178 -15.184   1.968  1.00  0.00     0.323 C 
HETATM    3  N   UNL     1      40.796 -13.906   1.573  1.00  0.00    -0.328 N 
HETATM    4  C   UNL     1      39.829 -13.820   0.469  1.00  0.00     0.185 C 
HETATM    5  C   UNL     1      40.144 -12.603  -0.330  1.00  0.00     0.035 A 
HETATM    6  C   UNL     1      40.999 -11.576   0.021  1.00  0.00    -0.020 A 
HETATM    7  C   UNL     1      41.741 -11.602   1.313  1.00  0.00     0.061 C 
HETATM    8  C   UNL     1      41.088 -12.628   2.264  1.00  0.00     0.132 C 
HETATM    9  N   UNL     1      39.627 -12.323  -1.564  1.00  0.00    -0.357 N 
HETATM   10  H   UNL     1      38.977 -12.904  -2.077  1.00  0.00     0.166 HD
HETATM   11  C   UNL     1      40.142 -11.131  -2.026  1.00  0.00     0.043 A 
HETATM   12  C   UNL     1      41.013 -10.641  -1.047  1.00  0.00    -0.001 A 
HETATM   13  C   UNL     1      39.911 -10.460  -3.233  1.00  0.00     0.030 A 
HETATM   14  C   UNL     1      40.590  -9.257  -3.448  1.00  0.00     0.002 A 
HETATM   15  C   UNL     1      41.465  -8.747  -2.492  1.00  0.00     0.001 A 
HETATM   16  C   UNL     1      41.685  -9.427  -1.288  1.00  0.00     0.014 A 
HETATM   17  O   UNL     1      40.640 -16.177   1.483  1.00  0.00    -0.247 OA
HETATM   18  H   UNL     1      42.659 -14.363   3.089  1.00  0.00     0.170 HD
ENDROOT
BRANCH   1  19
HETATM   19  C   UNL     1      42.803 -16.376   3.456  1.00  0.00     0.038 A 
HETATM   20  C   UNL     1      42.852 -16.652   4.824  1.00  0.00     0.056 A 
HETATM   21  C   UNL     1      43.444 -17.833   5.288  1.00  0.00     0.069 A 
HETATM   22  C   UNL     1      43.991 -18.758   4.391  1.00  0.00     0.090 A 
HETATM   23 CL   UNL     1      43.448 -18.133   6.992  1.00  0.00    -0.081 Cl
HETATM   24  C   UNL     1      43.981 -18.466   3.026  1.00  0.00     0.041 A 
HETATM   25  C   UNL     1      43.383 -17.288   2.564  1.00  0.00     0.032 A 
BRANCH  22  26
HETATM   26  O   UNL     1      44.574 -19.891   4.895  1.00  0.00    -0.354 OA
HETATM   27  C   UNL     1      43.776 -21.065   4.768  1.00  0.00     0.210 C 
ENDBRANCH  22  26
ENDBRANCH   1  19
TORSDOF 2
ENDMDL
MODEL 8
REMARK VINA RESULT:      -7.7      6.046      6.591
REMARK  2 active torsions:
REMARK  status: ('A' for Active; 'I' for Inactive)
REMARK    1  A    between atoms: O_2  and  C_3 
REMARK    2  A    between atoms: C_7  and  N_8 
REMARK       I    between atoms: N_8  and  C_9 
REMARK       I    between atoms: C_9  and  N_10 
ROOT
HETATM    1  N   UNL     1      40.673 -11.795   0.740  1.00  0.00    -0.309 N 
HETATM    2  C   UNL     1      41.134 -12.050   2.012  1.00  0.00     0.323 C 
HETATM    3  N   UNL     1      41.052 -13.378   2.416  1.00  0.00    -0.328 N 
HETATM    4  C   UNL     1      41.683 -13.715   3.701  1.00  0.00     0.185 C 
HETATM    5  C   UNL     1      42.230 -15.097   3.600  1.00  0.00     0.035 A 
HETATM    6  C   UNL     1      41.976 -16.021   2.606  1.00  0.00    -0.020 A 
HETATM    7  C   UNL     1      41.080 -15.693   1.462  1.00  0.00     0.061 C 
HETATM    8  C   UNL     1      40.230 -14.453   1.811  1.00  0.00     0.132 C 
HETATM    9  N   UNL     1      43.094 -15.662   4.496  1.00  0.00    -0.357 N 
HETATM   10  H   UNL     1      43.463 -15.213   5.324  1.00  0.00     0.166 HD
HETATM   11  C   UNL     1      43.414 -16.941   4.093  1.00  0.00     0.043 A 
HETATM   12  C   UNL     1      42.724 -17.191   2.902  1.00  0.00    -0.001 A 
HETATM   13  C   UNL     1      44.264 -17.883   4.684  1.00  0.00     0.030 A 
HETATM   14  C   UNL     1      44.417 -19.115   4.040  1.00  0.00     0.002 A 
HETATM   15  C   UNL     1      43.744 -19.391   2.852  1.00  0.00     0.001 A 
HETATM   16  C   UNL     1      42.896 -18.439   2.272  1.00  0.00     0.014 A 
HETATM   17  O   UNL     1      41.614 -11.197   2.754  1.00  0.00    -0.247 OA
HETATM   18  H   UNL     1      40.455 -12.598   0.177  1.00  0.00     0.170 HD
ENDROOT
BRANCH   1  19
HETATM   19  C   UNL     1      40.651 -10.559   0.057  1.00  0.00     0.038 A 
HETATM   20  C   UNL     1      41.784  -9.906  -0.431  1.00  0.00     0.056 A 
HETATM   21  C   UNL     1      41.662  -8.700  -1.130  1.00  0.00     0.069 A 
HETATM   22  C   UNL     1      40.402  -8.130  -1.355  1.00  0.00     0.090 A 
HETATM   23 CL   UNL     1      43.099  -7.954  -1.737  1.00  0.00    -0.081 Cl
HETATM   24  C   UNL     1      39.271  -8.758  -0.831  1.00  0.00     0.041 A 
HETATM   25  C   UNL     1      39.397  -9.967  -0.139  1.00  0.00     0.032 A 
BRANCH  22  26
HETATM   26  O   UNL     1      40.336  -6.939  -2.030  1.00  0.00    -0.354 OA
HETATM   27  C   UNL     1      40.176  -5.799  -1.190  1.00  0.00     0.210 C 
ENDBRANCH  22  26
ENDBRANCH   1  19
TORSDOF 2
ENDMDL
MODEL 9
REMARK VINA RESULT:      -7.6      6.851      8.326
REMARK  2 active torsions:
REMARK  status: ('A' for Active; 'I' for Inactive)
REMARK    1  A    between atoms: O_2  and  C_3 
REMARK    2  A    between atoms: C_7  and  N_8 
REMARK       I    between atoms: N_8  and  C_9 
REMARK       I    between atoms: C_9  and  N_10 
ROOT
HETATM    1  N   UNL     1      39.341 -13.059   0.158  1.00  0.00    -0.309 N 
HETATM    2  C   UNL     1      39.484 -12.731   1.487  1.00  0.00     0.323 C 
HETATM    3  N   UNL     1      39.836 -13.784   2.323  1.00  0.00    -0.328 N 
HETATM    4  C   UNL     1      40.156 -13.441   3.716  1.00  0.00     0.185 C 
HETATM    5  C   UNL     1      41.219 -14.371   4.191  1.00  0.00     0.035 A 
HETATM    6  C   UNL     1      41.654 -15.523   3.567  1.00  0.00    -0.020 A 
HETATM    7  C   UNL     1      41.068 -15.964   2.270  1.00  0.00     0.061 C 
HETATM    8  C   UNL     1      39.728 -15.234   2.035  1.00  0.00     0.132 C 
HETATM    9  N   UNL     1      41.944 -14.207   5.338  1.00  0.00    -0.357 N 
HETATM   10  H   UNL     1      41.848 -13.443   5.993  1.00  0.00     0.166 HD
HETATM   11  C   UNL     1      42.855 -15.235   5.464  1.00  0.00     0.043 A 
HETATM   12  C   UNL     1      42.695 -16.077   4.359  1.00  0.00    -0.001 A 
HETATM   13  C   UNL     1      43.806 -15.474   6.463  1.00  0.00     0.030 A 
HETATM   14  C   UNL     1      44.620 -16.603   6.327  1.00  0.00     0.002 A 
HETATM   15  C   UNL     1      44.485 -17.457   5.236  1.00  0.00     0.001 A 
HETATM   16  C   UNL     1      43.528 -17.207   4.246  1.00  0.00     0.014 A 
HETATM   17  O   UNL     1      39.346 -11.594   1.935  1.00  0.00    -0.247 OA
HETATM   18  H   UNL     1      39.637 -13.982  -0.106  1.00  0.00     0.170 HD
ENDROOT
BRANCH   1  19
HETATM   19  C   UNL     1      39.016 -12.202  -0.917  1.00  0.00     0.038 A 
HETATM   20  C   UNL     1      39.924 -11.353  -1.553  1.00  0.00     0.056 A 
HETATM   21  C   UNL     1      39.519 -10.566  -2.637  1.00  0.00     0.069 A 
HETATM   22  C   UNL     1      38.200 -10.619  -3.104  1.00  0.00     0.090 A 
HETATM   23 CL   UNL     1      40.696  -9.556  -3.402  1.00  0.00    -0.081 Cl
HETATM   24  C   UNL     1      37.279 -11.435  -2.444  1.00  0.00     0.041 A 
HETATM   25  C   UNL     1      37.689 -12.226  -1.365  1.00  0.00     0.032 A 
BRANCH  22  26
HETATM   26  O   UNL     1      37.847  -9.817  -4.158  1.00  0.00    -0.354 OA
HETATM   27  C   UNL     1      37.128  -8.645  -3.785  1.00  0.00     0.210 C 
ENDBRANCH  22  26
ENDBRANCH   1  19
TORSDOF 2
ENDMDL
MODEL 10
REMARK VINA RESULT:      -7.5      6.648      7.804
REMARK  2 active torsions:
REMARK  status: ('A' for Active; 'I' for Inactive)
REMARK    1  A    between atoms: O_2  and  C_3 
REMARK    2  A    between atoms: C_7  and  N_8 
REMARK       I    between atoms: N_8  and  C_9 
REMARK       I    between atoms: C_9  and  N_10 
ROOT
HETATM    1  N   UNL     1      40.877 -12.405  -0.411  1.00  0.00    -0.309 N 
HETATM    2  C   UNL     1      40.208 -12.526   0.786  1.00  0.00     0.323 C 
HETATM    3  N   UNL     1      40.337 -13.759   1.415  1.00  0.00    -0.328 N 
HETATM    4  C   UNL     1      39.774 -13.870   2.768  1.00  0.00     0.185 C 
HETATM    5  C   UNL     1      40.635 -14.798   3.555  1.00  0.00     0.035 A 
HETATM    6  C   UNL     1      41.623 -15.629   3.066  1.00  0.00    -0.020 A 
HETATM    7  C   UNL     1      41.947 -15.667   1.613  1.00  0.00     0.061 C 
HETATM    8  C   UNL     1      40.791 -15.034   0.809  1.00  0.00     0.132 C 
HETATM    9  N   UNL     1      40.576 -14.956   4.911  1.00  0.00    -0.357 N 
HETATM   10  H   UNL     1      39.949 -14.467   5.536  1.00  0.00     0.166 HD
HETATM   11  C   UNL     1      41.522 -15.875   5.314  1.00  0.00     0.043 A 
HETATM   12  C   UNL     1      42.198 -16.312   4.171  1.00  0.00    -0.001 A 
HETATM   13  C   UNL     1      41.832 -16.340   6.598  1.00  0.00     0.030 A 
HETATM   14  C   UNL     1      42.864 -17.275   6.718  1.00  0.00     0.002 A 
HETATM   15  C   UNL     1      43.557 -17.727   5.596  1.00  0.00     0.001 A 
HETATM   16  C   UNL     1      43.234 -17.254   4.319  1.00  0.00     0.014 A 
HETATM   17  O   UNL     1      39.556 -11.623   1.305  1.00  0.00    -0.247 OA
HETATM   18  H   UNL     1      41.502 -13.154  -0.648  1.00  0.00     0.170 HD
ENDROOT
BRANCH   1  19
HETATM   19  C   UNL     1      40.947 -11.275  -1.255  1.00  0.00     0.038 A 
HETATM   20  C   UNL     1      41.721 -10.142  -0.996  1.00  0.00     0.056 A 
HETATM   21  C   UNL     1      41.757  -9.083  -1.911  1.00  0.00     0.069 A 
HETATM   22  C   UNL     1      41.022  -9.144  -3.102  1.00  0.00     0.090 A 
HETATM   23 CL   UNL     1      42.758  -7.720  -1.549  1.00  0.00    -0.081 Cl
HETATM   24  C   UNL     1      40.214 -10.256  -3.344  1.00  0.00     0.041 A 
HETATM   25  C   UNL     1      40.186 -11.316  -2.431  1.00  0.00     0.032 A 
BRANCH  22  26
HETATM   26  O   UNL     1      41.077  -8.075  -3.958  1.00  0.00    -0.354 OA
HETATM   27  C   UNL     1      39.835  -7.399  -4.129  1.00  0.00     0.210 C 
ENDBRANCH  22  26
ENDBRANCH   1  19
TORSDOF 2
ENDMDL
