MODEL 1
REMARK VINA RESULT:      -8.8      0.000      0.000
REMARK  9 active torsions:
REMARK  status: ('A' for Active; 'I' for Inactive)
REMARK    1  A    between atoms: C_4  and  C_5 
REMARK    2  A    between atoms: C_7  and  O_8 
REMARK    3  A    between atoms: C_10  and  O_11 
REMARK    4  A    between atoms: C_16  and  C_17 
REMARK    5  A    between atoms: C_20  and  C_21 
REMARK    6  A    between atoms: C_21  and  N_22 
REMARK    7  A    between atoms: N_22  and  C_23 
REMARK    8  A    between atoms: C_23  and  N_24 
REMARK    9  A    between atoms: N_24  and  C_25 
ROOT
HETATM    1  C   UNL     1      44.123  -9.881  10.757  1.00  0.00     0.034 A 
HETATM    2  C   UNL     1      43.947  -8.536  11.097  1.00  0.00     0.031 A 
HETATM    3  C   UNL     1      43.194  -8.180  12.221  1.00  0.00     0.025 A 
HETATM    4  C   UNL     1      42.617  -9.166  13.024  1.00  0.00     0.044 A 
HETATM    5  C   UNL     1      41.842  -8.795  14.172  1.00  0.00     0.099 C 
HETATM    6  N   UNL     1      41.209  -8.472  15.089  1.00  0.00    -0.191 NA
HETATM    7  C   UNL     1      42.812 -10.511  12.706  1.00  0.00     0.025 A 
HETATM    8  C   UNL     1      43.572 -10.865  11.585  1.00  0.00     0.031 A 
ENDROOT
BRANCH   1   9
HETATM    9  N   UNL     1      44.896 -10.314   9.661  1.00  0.00    -0.333 N 
HETATM   10  H   UNL     1      45.843 -10.614   9.885  1.00  0.00     0.168 HD
BRANCH   9  11
HETATM   11  C   UNL     1      44.649 -10.280   8.317  1.00  0.00     0.172 C 
HETATM   12  S   UNL     1      45.846 -10.803   7.278  1.00  0.00    -0.041 SA
BRANCH  11  13
HETATM   13  N   UNL     1      43.399  -9.864   7.937  1.00  0.00    -0.365 N 
HETATM   14  H   UNL     1      43.024  -9.181   8.590  1.00  0.00     0.161 HD
BRANCH  13  15
HETATM   15  C   UNL     1      42.443 -10.672   7.184  1.00  0.00     0.155 C 
BRANCH  15  16
HETATM   16  C   UNL     1      41.839  -9.921   5.978  1.00  0.00     0.206 C 
HETATM   17  C   UNL     1      42.497 -10.275   4.634  1.00  0.00     0.040 C 
HETATM   18  C   UNL     1      41.448 -10.527   3.529  1.00  0.00     0.001 C 
HETATM   19  C   UNL     1      40.509 -11.706   3.859  1.00  0.00     0.067 C 
HETATM   20  C   UNL     1      40.549  -9.259   3.523  1.00  0.00     0.033 C 
HETATM   21  C   UNL     1      40.048 -11.596   5.328  1.00  0.00     0.246 C 
HETATM   22  N   UNL     1      40.343 -10.175   5.822  1.00  0.00    -0.065 N 
HETATM   23  C   UNL     1      39.763  -9.158   4.842  1.00  0.00     0.236 C 
HETATM   24  H   UNL     1      39.876 -10.050   6.732  1.00  0.00     0.280 HD
BRANCH  19  25
HETATM   25  C   UNL     1      40.853 -13.118   3.470  1.00  0.00     0.038 C 
HETATM   26  N   UNL     1      40.687 -13.803   2.290  1.00  0.00    -0.277 N 
HETATM   27  C   UNL     1      39.976 -13.461   1.082  1.00  0.00     0.179 C 
HETATM   28  N   UNL     1      41.321 -14.984   2.271  1.00  0.00    -0.172 NA
HETATM   29  C   UNL     1      41.778 -15.175   3.511  1.00  0.00     0.089 C 
HETATM   30  C   UNL     1      41.493 -14.035   4.297  1.00  0.00     0.061 C 
BRANCH  29  31
HETATM   31  C   UNL     1      42.502 -16.387   3.890  1.00  0.00    -0.003 A 
HETATM   32  C   UNL     1      42.979 -17.260   2.899  1.00  0.00     0.053 A 
HETATM   33  C   UNL     1      43.703 -18.408   3.240  1.00  0.00     0.102 A 
HETATM   34  C   UNL     1      43.945 -18.703   4.596  1.00  0.00     0.101 A 
HETATM   35  C   UNL     1      43.462 -17.839   5.584  1.00  0.00     0.040 A 
HETATM   36  C   UNL     1      42.748 -16.689   5.234  1.00  0.00     0.017 A 
BRANCH  33  37
HETATM   37  O   UNL     1      44.218 -19.297   2.328  1.00  0.00    -0.353 OA
HETATM   38  C   UNL     1      43.351 -20.299   1.818  1.00  0.00     0.210 C 
ENDBRANCH  33  37
BRANCH  34  39
HETATM   39  O   UNL     1      44.668 -19.841   4.847  1.00  0.00    -0.353 OA
HETATM   40  C   UNL     1      44.003 -20.916   5.493  1.00  0.00     0.210 C 
ENDBRANCH  34  39
ENDBRANCH  29  31
ENDBRANCH  19  25
ENDBRANCH  15  16
ENDBRANCH  13  15
ENDBRANCH  11  13
ENDBRANCH   9  11
ENDBRANCH   1   9
TORSDOF 9
ENDMDL
MODEL 2
REMARK VINA RESULT:      -8.7      4.517      7.755
REMARK  9 active torsions:
REMARK  status: ('A' for Active; 'I' for Inactive)
REMARK    1  A    between atoms: C_4  and  C_5 
REMARK    2  A    between atoms: C_7  and  O_8 
REMARK    3  A    between atoms: C_10  and  O_11 
REMARK    4  A    between atoms: C_16  and  C_17 
REMARK    5  A    between atoms: C_20  and  C_21 
REMARK    6  A    between atoms: C_21  and  N_22 
REMARK    7  A    between atoms: N_22  and  C_23 
REMARK    8  A    between atoms: C_23  and  N_24 
REMARK    9  A    between atoms: N_24  and  C_25 
ROOT
HETATM    1  C   UNL     1      43.314  -9.484  10.399  1.00  0.00     0.034 A 
HETATM    2  C   UNL     1      42.997  -8.268   9.787  1.00  0.00     0.031 A 
HETATM    3  C   UNL     1      42.704  -7.138  10.559  1.00  0.00     0.025 A 
HETATM    4  C   UNL     1      42.735  -7.210  11.954  1.00  0.00     0.044 A 
HETATM    5  C   UNL     1      42.429  -6.051  12.740  1.00  0.00     0.099 C 
HETATM    6  N   UNL     1      42.167  -5.104  13.356  1.00  0.00    -0.191 NA
HETATM    7  C   UNL     1      43.078  -8.414  12.571  1.00  0.00     0.025 A 
HETATM    8  C   UNL     1      43.378  -9.541  11.796  1.00  0.00     0.031 A 
ENDROOT
BRANCH   1   9
HETATM    9  N   UNL     1      43.653 -10.652   9.687  1.00  0.00    -0.333 N 
HETATM   10  H   UNL     1      43.437 -11.529  10.157  1.00  0.00     0.168 HD
BRANCH   9  11
HETATM   11  C   UNL     1      44.349 -10.825   8.524  1.00  0.00     0.172 C 
HETATM   12  S   UNL     1      45.755  -9.953   8.304  1.00  0.00    -0.041 SA
BRANCH  11  13
HETATM   13  N   UNL     1      43.853 -11.759   7.650  1.00  0.00    -0.365 N 
HETATM   14  H   UNL     1      43.344 -12.488   8.142  1.00  0.00     0.161 HD
BRANCH  13  15
HETATM   15  C   UNL     1      44.458 -12.106   6.367  1.00  0.00     0.155 C 
BRANCH  15  16
HETATM   16  C   UNL     1      43.446 -12.709   5.368  1.00  0.00     0.206 C 
HETATM   17  C   UNL     1      42.092 -13.072   6.002  1.00  0.00     0.040 C 
HETATM   18  C   UNL     1      40.906 -12.595   5.136  1.00  0.00     0.001 C 
HETATM   19  C   UNL     1      40.884 -11.063   4.951  1.00  0.00     0.067 C 
HETATM   20  C   UNL     1      41.167 -13.189   3.723  1.00  0.00     0.033 C 
HETATM   21  C   UNL     1      42.308 -10.569   4.620  1.00  0.00     0.246 C 
HETATM   22  N   UNL     1      43.153 -11.776   4.198  1.00  0.00    -0.065 N 
HETATM   23  C   UNL     1      42.427 -12.557   3.106  1.00  0.00     0.236 C 
HETATM   24  H   UNL     1      44.040 -11.425   3.809  1.00  0.00     0.280 HD
BRANCH  19  25
HETATM   25  C   UNL     1      40.177 -10.163   5.925  1.00  0.00     0.038 C 
HETATM   26  N   UNL     1      39.050  -9.384   5.794  1.00  0.00    -0.277 N 
HETATM   27  C   UNL     1      38.266  -9.033   4.636  1.00  0.00     0.179 C 
HETATM   28  N   UNL     1      38.609  -8.893   6.961  1.00  0.00    -0.172 NA
HETATM   29  C   UNL     1      39.542  -9.200   7.865  1.00  0.00     0.089 C 
HETATM   30  C   UNL     1      40.548  -9.984   7.254  1.00  0.00     0.061 C 
BRANCH  29  31
HETATM   31  C   UNL     1      39.427  -8.794   9.264  1.00  0.00    -0.003 A 
HETATM   32  C   UNL     1      39.723  -9.709  10.288  1.00  0.00     0.053 A 
HETATM   33  C   UNL     1      39.651  -9.331  11.634  1.00  0.00     0.102 A 
HETATM   34  C   UNL     1      39.259  -8.019  11.969  1.00  0.00     0.101 A 
HETATM   35  C   UNL     1      38.954  -7.111  10.951  1.00  0.00     0.040 A 
HETATM   36  C   UNL     1      39.039  -7.494   9.609  1.00  0.00     0.017 A 
BRANCH  33  37
HETATM   37  O   UNL     1      39.944 -10.161  12.687  1.00  0.00    -0.353 OA
HETATM   38  C   UNL     1      39.112 -11.293  12.890  1.00  0.00     0.210 C 
ENDBRANCH  33  37
BRANCH  34  39
HETATM   39  O   UNL     1      39.219  -7.725  13.308  1.00  0.00    -0.353 OA
HETATM   40  C   UNL     1      38.669  -6.474  13.693  1.00  0.00     0.210 C 
ENDBRANCH  34  39
ENDBRANCH  29  31
ENDBRANCH  19  25
ENDBRANCH  15  16
ENDBRANCH  13  15
ENDBRANCH  11  13
ENDBRANCH   9  11
ENDBRANCH   1   9
TORSDOF 9
ENDMDL
MODEL 3
REMARK VINA RESULT:      -8.7      1.320      2.037
REMARK  9 active torsions:
REMARK  status: ('A' for Active; 'I' for Inactive)
REMARK    1  A    between atoms: C_4  and  C_5 
REMARK    2  A    between atoms: C_7  and  O_8 
REMARK    3  A    between atoms: C_10  and  O_11 
REMARK    4  A    between atoms: C_16  and  C_17 
REMARK    5  A    between atoms: C_20  and  C_21 
REMARK    6  A    between atoms: C_21  and  N_22 
REMARK    7  A    between atoms: N_22  and  C_23 
REMARK    8  A    between atoms: C_23  and  N_24 
REMARK    9  A    between atoms: N_24  and  C_25 
ROOT
HETATM    1  C   UNL     1      44.102  -9.943   9.167  1.00  0.00     0.034 A 
HETATM    2  C   UNL     1      43.910  -8.559   9.233  1.00  0.00     0.031 A 
HETATM    3  C   UNL     1      43.574  -7.945  10.445  1.00  0.00     0.025 A 
HETATM    4  C   UNL     1      43.437  -8.708  11.608  1.00  0.00     0.044 A 
HETATM    5  C   UNL     1      43.088  -8.074  12.845  1.00  0.00     0.099 C 
HETATM    6  N   UNL     1      42.793  -7.542  13.833  1.00  0.00    -0.191 NA
HETATM    7  C   UNL     1      43.655 -10.086  11.554  1.00  0.00     0.025 A 
HETATM    8  C   UNL     1      43.998 -10.696  10.341  1.00  0.00     0.031 A 
ENDROOT
BRANCH   1   9
HETATM    9  N   UNL     1      44.475 -10.624   7.991  1.00  0.00    -0.333 N 
HETATM   10  H   UNL     1      45.467 -10.590   7.762  1.00  0.00     0.168 HD
BRANCH   9  11
HETATM   11  C   UNL     1      43.721 -11.216   7.018  1.00  0.00     0.172 C 
HETATM   12  S   UNL     1      43.993 -12.826   6.674  1.00  0.00    -0.041 SA
BRANCH  11  13
HETATM   13  N   UNL     1      42.752 -10.437   6.438  1.00  0.00    -0.365 N 
HETATM   14  H   UNL     1      42.960  -9.448   6.550  1.00  0.00     0.161 HD
BRANCH  13  15
HETATM   15  C   UNL     1      41.350 -10.819   6.292  1.00  0.00     0.155 C 
BRANCH  15  16
HETATM   16  C   UNL     1      40.681 -10.187   5.051  1.00  0.00     0.206 C 
HETATM   17  C   UNL     1      41.480 -10.382   3.750  1.00  0.00     0.040 C 
HETATM   18  C   UNL     1      40.574 -10.825   2.580  1.00  0.00     0.001 C 
HETATM   19  C   UNL     1      39.875 -12.175   2.849  1.00  0.00     0.067 C 
HETATM   20  C   UNL     1      39.438  -9.765   2.520  1.00  0.00     0.033 C 
HETATM   21  C   UNL     1      39.311 -12.181   4.285  1.00  0.00     0.246 C 
HETATM   22  N   UNL     1      39.281 -10.737   4.799  1.00  0.00    -0.065 N 
HETATM   23  C   UNL     1      38.569  -9.844   3.786  1.00  0.00     0.236 C 
HETATM   24  H   UNL     1      38.743 -10.721   5.678  1.00  0.00     0.280 HD
BRANCH  19  25
HETATM   25  C   UNL     1      40.521 -13.481   2.481  1.00  0.00     0.038 C 
HETATM   26  N   UNL     1      40.777 -14.058   1.259  1.00  0.00    -0.277 N 
HETATM   27  C   UNL     1      40.364 -13.689  -0.074  1.00  0.00     0.179 C 
HETATM   28  N   UNL     1      41.568 -15.138   1.340  1.00  0.00    -0.172 NA
HETATM   29  C   UNL     1      41.706 -15.394   2.643  1.00  0.00     0.089 C 
HETATM   30  C   UNL     1      41.055 -14.388   3.391  1.00  0.00     0.061 C 
BRANCH  29  31
HETATM   31  C   UNL     1      42.483 -16.533   3.128  1.00  0.00    -0.003 A 
HETATM   32  C   UNL     1      42.855 -16.605   4.480  1.00  0.00     0.053 A 
HETATM   33  C   UNL     1      43.569 -17.703   4.973  1.00  0.00     0.102 A 
HETATM   34  C   UNL     1      43.937 -18.744   4.098  1.00  0.00     0.101 A 
HETATM   35  C   UNL     1      43.576 -18.669   2.749  1.00  0.00     0.040 A 
HETATM   36  C   UNL     1      42.853 -17.574   2.268  1.00  0.00     0.017 A 
BRANCH  33  37
HETATM   37  O   UNL     1      43.950 -17.853   6.284  1.00  0.00    -0.353 OA
HETATM   38  C   UNL     1      44.310 -16.686   7.007  1.00  0.00     0.210 C 
ENDBRANCH  33  37
BRANCH  34  39
HETATM   39  O   UNL     1      44.629 -19.787   4.658  1.00  0.00    -0.353 OA
HETATM   40  C   UNL     1      43.965 -21.038   4.768  1.00  0.00     0.210 C 
ENDBRANCH  34  39
ENDBRANCH  29  31
ENDBRANCH  19  25
ENDBRANCH  15  16
ENDBRANCH  13  15
ENDBRANCH  11  13
ENDBRANCH   9  11
ENDBRANCH   1   9
TORSDOF 9
ENDMDL
MODEL 4
REMARK VINA RESULT:      -8.3      4.075      8.884
REMARK  9 active torsions:
REMARK  status: ('A' for Active; 'I' for Inactive)
REMARK    1  A    between atoms: C_4  and  C_5 
REMARK    2  A    between atoms: C_7  and  O_8 
REMARK    3  A    between atoms: C_10  and  O_11 
REMARK    4  A    between atoms: C_16  and  C_17 
REMARK    5  A    between atoms: C_20  and  C_21 
REMARK    6  A    between atoms: C_21  and  N_22 
REMARK    7  A    between atoms: N_22  and  C_23 
REMARK    8  A    between atoms: C_23  and  N_24 
REMARK    9  A    between atoms: N_24  and  C_25 
ROOT
HETATM    1  C   UNL     1      42.300 -16.061   3.212  1.00  0.00     0.034 A 
HETATM    2  C   UNL     1      42.616 -16.224   4.564  1.00  0.00     0.031 A 
HETATM    3  C   UNL     1      43.234 -17.396   5.014  1.00  0.00     0.025 A 
HETATM    4  C   UNL     1      43.553 -18.415   4.113  1.00  0.00     0.044 A 
HETATM    5  C   UNL     1      44.182 -19.615   4.580  1.00  0.00     0.099 C 
HETATM    6  N   UNL     1      44.680 -20.583   4.981  1.00  0.00    -0.191 NA
HETATM    7  C   UNL     1      43.266 -18.247   2.757  1.00  0.00     0.025 A 
HETATM    8  C   UNL     1      42.653 -17.070   2.309  1.00  0.00     0.031 A 
ENDROOT
BRANCH   1   9
HETATM    9  N   UNL     1      41.709 -14.896   2.683  1.00  0.00    -0.333 N 
HETATM   10  H   UNL     1      42.327 -14.305   2.131  1.00  0.00     0.168 HD
BRANCH   9  11
HETATM   11  C   UNL     1      40.478 -14.339   2.888  1.00  0.00     0.172 C 
HETATM   12  S   UNL     1      40.196 -13.551   4.332  1.00  0.00    -0.041 SA
BRANCH  11  13
HETATM   13  N   UNL     1      39.587 -14.430   1.850  1.00  0.00    -0.365 N 
HETATM   14  H   UNL     1      38.662 -14.692   2.180  1.00  0.00     0.161 HD
BRANCH  13  15
HETATM   15  C   UNL     1      39.938 -14.784   0.477  1.00  0.00     0.155 C 
BRANCH  15  16
HETATM   16  C   UNL     1      39.717 -13.623  -0.519  1.00  0.00     0.206 C 
HETATM   17  C   UNL     1      38.894 -12.460   0.059  1.00  0.00     0.040 C 
HETATM   18  C   UNL     1      39.526 -11.089  -0.270  1.00  0.00     0.001 C 
HETATM   19  C   UNL     1      40.944 -10.933   0.319  1.00  0.00     0.067 C 
HETATM   20  C   UNL     1      39.705 -11.084  -1.814  1.00  0.00     0.033 C 
HETATM   21  C   UNL     1      41.751 -12.221   0.055  1.00  0.00     0.246 C 
HETATM   22  N   UNL     1      41.028 -13.032  -1.026  1.00  0.00    -0.065 N 
HETATM   23  C   UNL     1      40.740 -12.142  -2.233  1.00  0.00     0.236 C 
HETATM   24  H   UNL     1      41.654 -13.793  -1.327  1.00  0.00     0.280 HD
BRANCH  19  25
HETATM   25  C   UNL     1      41.164 -10.392   1.704  1.00  0.00     0.038 C 
HETATM   26  N   UNL     1      40.540  -9.381   2.397  1.00  0.00    -0.277 N 
HETATM   27  C   UNL     1      39.581  -8.388   1.976  1.00  0.00     0.179 C 
HETATM   28  N   UNL     1      40.878  -9.343   3.694  1.00  0.00    -0.172 NA
HETATM   29  C   UNL     1      41.870 -10.225   3.841  1.00  0.00     0.089 C 
HETATM   30  C   UNL     1      42.088 -10.894   2.615  1.00  0.00     0.061 C 
BRANCH  29  31
HETATM   31  C   UNL     1      42.529 -10.440   5.127  1.00  0.00    -0.003 A 
HETATM   32  C   UNL     1      42.152  -9.680   6.246  1.00  0.00     0.053 A 
HETATM   33  C   UNL     1      42.748  -9.893   7.495  1.00  0.00     0.102 A 
HETATM   34  C   UNL     1      43.752 -10.872   7.629  1.00  0.00     0.101 A 
HETATM   35  C   UNL     1      44.135 -11.623   6.514  1.00  0.00     0.040 A 
HETATM   36  C   UNL     1      43.528 -11.410   5.273  1.00  0.00     0.017 A 
BRANCH  33  37
HETATM   37  O   UNL     1      42.418  -9.205   8.637  1.00  0.00    -0.353 OA
HETATM   38  C   UNL     1      41.060  -9.217   9.049  1.00  0.00     0.210 C 
ENDBRANCH  33  37
BRANCH  34  39
HETATM   39  O   UNL     1      44.281 -11.025   8.886  1.00  0.00    -0.353 OA
HETATM   40  C   UNL     1      45.454 -10.290   9.202  1.00  0.00     0.210 C 
ENDBRANCH  34  39
ENDBRANCH  29  31
ENDBRANCH  19  25
ENDBRANCH  15  16
ENDBRANCH  13  15
ENDBRANCH  11  13
ENDBRANCH   9  11
ENDBRANCH   1   9
TORSDOF 9
ENDMDL
MODEL 5
REMARK VINA RESULT:      -8.3      5.764      8.832
REMARK  9 active torsions:
REMARK  status: ('A' for Active; 'I' for Inactive)
REMARK    1  A    between atoms: C_4  and  C_5 
REMARK    2  A    between atoms: C_7  and  O_8 
REMARK    3  A    between atoms: C_10  and  O_11 
REMARK    4  A    between atoms: C_16  and  C_17 
REMARK    5  A    between atoms: C_20  and  C_21 
REMARK    6  A    between atoms: C_21  and  N_22 
REMARK    7  A    between atoms: N_22  and  C_23 
REMARK    8  A    between atoms: C_23  and  N_24 
REMARK    9  A    between atoms: N_24  and  C_25 
ROOT
HETATM    1  C   UNL     1      41.474  -7.305  -0.828  1.00  0.00     0.034 A 
HETATM    2  C   UNL     1      42.532  -7.448  -1.730  1.00  0.00     0.031 A 
HETATM    3  C   UNL     1      43.575  -6.516  -1.757  1.00  0.00     0.025 A 
HETATM    4  C   UNL     1      43.576  -5.434  -0.873  1.00  0.00     0.044 A 
HETATM    5  C   UNL     1      44.644  -4.479  -0.908  1.00  0.00     0.099 C 
HETATM    6  N   UNL     1      45.513  -3.712  -0.962  1.00  0.00    -0.191 NA
HETATM    7  C   UNL     1      42.536  -5.301   0.050  1.00  0.00     0.025 A 
HETATM    8  C   UNL     1      41.498  -6.240   0.078  1.00  0.00     0.031 A 
ENDROOT
BRANCH   1   9
HETATM    9  N   UNL     1      40.409  -8.222  -0.721  1.00  0.00    -0.333 N 
HETATM   10  H   UNL     1      40.575  -9.015  -0.104  1.00  0.00     0.168 HD
BRANCH   9  11
HETATM   11  C   UNL     1      39.230  -8.315  -1.405  1.00  0.00     0.172 C 
HETATM   12  S   UNL     1      38.269  -6.955  -1.516  1.00  0.00    -0.041 SA
BRANCH  11  13
HETATM   13  N   UNL     1      38.962  -9.522  -1.999  1.00  0.00    -0.365 N 
HETATM   14  H   UNL     1      38.095  -9.919  -1.649  1.00  0.00     0.161 HD
BRANCH  13  15
HETATM   15  C   UNL     1      39.974 -10.448  -2.501  1.00  0.00     0.155 C 
BRANCH  15  16
HETATM   16  C   UNL     1      39.385 -11.812  -2.921  1.00  0.00     0.206 C 
HETATM   17  C   UNL     1      40.416 -12.953  -2.941  1.00  0.00     0.040 C 
HETATM   18  C   UNL     1      39.874 -14.230  -2.263  1.00  0.00     0.001 C 
HETATM   19  C   UNL     1      39.521 -14.010  -0.777  1.00  0.00     0.067 C 
HETATM   20  C   UNL     1      38.526 -14.530  -2.978  1.00  0.00     0.033 C 
HETATM   21  C   UNL     1      38.742 -12.686  -0.628  1.00  0.00     0.246 C 
HETATM   22  N   UNL     1      38.244 -12.260  -2.013  1.00  0.00    -0.065 N 
HETATM   23  C   UNL     1      37.505 -13.420  -2.676  1.00  0.00     0.236 C 
HETATM   24  H   UNL     1      37.579 -11.482  -1.889  1.00  0.00     0.280 HD
BRANCH  19  25
HETATM   25  C   UNL     1      40.542 -14.200   0.310  1.00  0.00     0.038 C 
HETATM   26  N   UNL     1      41.251 -13.292   1.062  1.00  0.00    -0.277 N 
HETATM   27  C   UNL     1      41.384 -11.860   0.951  1.00  0.00     0.179 C 
HETATM   28  N   UNL     1      41.910 -13.855   2.085  1.00  0.00    -0.172 NA
HETATM   29  C   UNL     1      41.785 -15.174   1.922  1.00  0.00     0.089 C 
HETATM   30  C   UNL     1      40.946 -15.432   0.813  1.00  0.00     0.061 C 
BRANCH  29  31
HETATM   31  C   UNL     1      42.408 -16.130   2.836  1.00  0.00    -0.003 A 
HETATM   32  C   UNL     1      42.133 -16.068   4.211  1.00  0.00     0.053 A 
HETATM   33  C   UNL     1      42.692 -16.994   5.099  1.00  0.00     0.102 A 
HETATM   34  C   UNL     1      43.558 -17.993   4.610  1.00  0.00     0.101 A 
HETATM   35  C   UNL     1      43.841 -18.049   3.242  1.00  0.00     0.040 A 
HETATM   36  C   UNL     1      43.269 -17.126   2.361  1.00  0.00     0.017 A 
BRANCH  33  37
HETATM   37  O   UNL     1      42.455 -17.010   6.452  1.00  0.00    -0.353 OA
HETATM   38  C   UNL     1      42.217 -15.769   7.097  1.00  0.00     0.210 C 
ENDBRANCH  33  37
BRANCH  34  39
HETATM   39  O   UNL     1      44.059 -18.865   5.542  1.00  0.00    -0.353 OA
HETATM   40  C   UNL     1      44.039 -20.250   5.227  1.00  0.00     0.210 C 
ENDBRANCH  34  39
ENDBRANCH  29  31
ENDBRANCH  19  25
ENDBRANCH  15  16
ENDBRANCH  13  15
ENDBRANCH  11  13
ENDBRANCH   9  11
ENDBRANCH   1   9
TORSDOF 9
ENDMDL
MODEL 6
REMARK VINA RESULT:      -8.2      3.021      7.804
REMARK  9 active torsions:
REMARK  status: ('A' for Active; 'I' for Inactive)
REMARK    1  A    between atoms: C_4  and  C_5 
REMARK    2  A    between atoms: C_7  and  O_8 
REMARK    3  A    between atoms: C_10  and  O_11 
REMARK    4  A    between atoms: C_16  and  C_17 
REMARK    5  A    between atoms: C_20  and  C_21 
REMARK    6  A    between atoms: C_21  and  N_22 
REMARK    7  A    between atoms: N_22  and  C_23 
REMARK    8  A    between atoms: C_23  and  N_24 
REMARK    9  A    between atoms: N_24  and  C_25 
ROOT
HETATM    1  C   UNL     1      43.201 -12.714   6.300  1.00  0.00     0.034 A 
HETATM    2  C   UNL     1      43.144 -12.715   4.903  1.00  0.00     0.031 A 
HETATM    3  C   UNL     1      43.138 -13.920   4.192  1.00  0.00     0.025 A 
HETATM    4  C   UNL     1      43.179 -15.140   4.872  1.00  0.00     0.044 A 
HETATM    5  C   UNL     1      43.178 -16.371   4.139  1.00  0.00     0.099 C 
HETATM    6  N   UNL     1      43.188 -17.355   3.525  1.00  0.00    -0.191 NA
HETATM    7  C   UNL     1      43.207 -15.146   6.268  1.00  0.00     0.025 A 
HETATM    8  C   UNL     1      43.206 -13.938   6.976  1.00  0.00     0.031 A 
ENDROOT
BRANCH   1   9
HETATM    9  N   UNL     1      43.175 -11.542   7.082  1.00  0.00    -0.333 N 
HETATM   10  H   UNL     1      42.437 -10.879   6.852  1.00  0.00     0.168 HD
BRANCH   9  11
HETATM   11  C   UNL     1      44.052 -11.064   8.014  1.00  0.00     0.172 C 
HETATM   12  S   UNL     1      45.643 -10.836   7.563  1.00  0.00    -0.041 SA
BRANCH  11  13
HETATM   13  N   UNL     1      43.527 -10.755   9.243  1.00  0.00    -0.365 N 
HETATM   14  H   UNL     1      42.564 -10.441   9.163  1.00  0.00     0.161 HD
BRANCH  13  15
HETATM   15  C   UNL     1      44.300 -10.273  10.385  1.00  0.00     0.155 C 
BRANCH  15  16
HETATM   16  C   UNL     1      43.866  -8.867  10.855  1.00  0.00     0.206 C 
HETATM   17  C   UNL     1      43.542  -7.901   9.703  1.00  0.00     0.040 C 
HETATM   18  C   UNL     1      42.230  -7.126   9.955  1.00  0.00     0.001 C 
HETATM   19  C   UNL     1      41.005  -8.057  10.077  1.00  0.00     0.067 C 
HETATM   20  C   UNL     1      42.405  -6.470  11.353  1.00  0.00     0.033 C 
HETATM   21  C   UNL     1      41.361  -9.253  10.984  1.00  0.00     0.246 C 
HETATM   22  N   UNL     1      42.638  -8.908  11.760  1.00  0.00    -0.065 N 
HETATM   23  C   UNL     1      42.476  -7.553  12.443  1.00  0.00     0.236 C 
HETATM   24  H   UNL     1      42.772  -9.624  12.488  1.00  0.00     0.280 HD
BRANCH  19  25
HETATM   25  C   UNL     1      40.207  -8.469   8.872  1.00  0.00     0.038 C 
HETATM   26  N   UNL     1      39.227  -7.815   8.160  1.00  0.00    -0.277 N 
HETATM   27  C   UNL     1      38.515  -6.590   8.427  1.00  0.00     0.179 C 
HETATM   28  N   UNL     1      38.910  -8.430   7.012  1.00  0.00    -0.172 NA
HETATM   29  C   UNL     1      39.555  -9.599   7.030  1.00  0.00     0.089 C 
HETATM   30  C   UNL     1      40.368  -9.668   8.184  1.00  0.00     0.061 C 
BRANCH  29  31
HETATM   31  C   UNL     1      39.425 -10.571   5.947  1.00  0.00    -0.003 A 
HETATM   32  C   UNL     1      39.137 -10.136   4.643  1.00  0.00     0.053 A 
HETATM   33  C   UNL     1      39.041 -11.048   3.585  1.00  0.00     0.102 A 
HETATM   34  C   UNL     1      39.218 -12.423   3.833  1.00  0.00     0.101 A 
HETATM   35  C   UNL     1      39.495 -12.858   5.132  1.00  0.00     0.040 A 
HETATM   36  C   UNL     1      39.600 -11.940   6.181  1.00  0.00     0.017 A 
BRANCH  33  37
HETATM   37  O   UNL     1      38.782 -10.697   2.283  1.00  0.00    -0.353 OA
HETATM   38  C   UNL     1      39.754  -9.919   1.601  1.00  0.00     0.210 C 
ENDBRANCH  33  37
BRANCH  34  39
HETATM   39  O   UNL     1      39.116 -13.250   2.744  1.00  0.00    -0.353 OA
HETATM   40  C   UNL     1      40.036 -14.327   2.643  1.00  0.00     0.210 C 
ENDBRANCH  34  39
ENDBRANCH  29  31
ENDBRANCH  19  25
ENDBRANCH  15  16
ENDBRANCH  13  15
ENDBRANCH  11  13
ENDBRANCH   9  11
ENDBRANCH   1   9
TORSDOF 9
ENDMDL
MODEL 7
REMARK VINA RESULT:      -8.1      5.219      9.030
REMARK  9 active torsions:
REMARK  status: ('A' for Active; 'I' for Inactive)
REMARK    1  A    between atoms: C_4  and  C_5 
REMARK    2  A    between atoms: C_7  and  O_8 
REMARK    3  A    between atoms: C_10  and  O_11 
REMARK    4  A    between atoms: C_16  and  C_17 
REMARK    5  A    between atoms: C_20  and  C_21 
REMARK    6  A    between atoms: C_21  and  N_22 
REMARK    7  A    between atoms: N_22  and  C_23 
REMARK    8  A    between atoms: C_23  and  N_24 
REMARK    9  A    between atoms: N_24  and  C_25 
ROOT
HETATM    1  C   UNL     1      43.231 -14.838   6.882  1.00  0.00     0.034 A 
HETATM    2  C   UNL     1      44.429 -15.342   6.367  1.00  0.00     0.031 A 
HETATM    3  C   UNL     1      44.552 -16.700   6.053  1.00  0.00     0.025 A 
HETATM    4  C   UNL     1      43.473 -17.568   6.241  1.00  0.00     0.044 A 
HETATM    5  C   UNL     1      43.606 -18.959   5.923  1.00  0.00     0.099 C 
HETATM    6  N   UNL     1      43.740 -20.083   5.669  1.00  0.00    -0.191 NA
HETATM    7  C   UNL     1      42.265 -17.065   6.728  1.00  0.00     0.025 A 
HETATM    8  C   UNL     1      42.143 -15.704   7.034  1.00  0.00     0.031 A 
ENDROOT
BRANCH   1   9
HETATM    9  N   UNL     1      43.024 -13.478   7.188  1.00  0.00    -0.333 N 
HETATM   10  H   UNL     1      42.746 -13.283   8.148  1.00  0.00     0.168 HD
BRANCH   9  11
HETATM   11  C   UNL     1      42.998 -12.370   6.388  1.00  0.00     0.172 C 
HETATM   12  S   UNL     1      44.428 -11.556   6.114  1.00  0.00    -0.041 SA
BRANCH  11  13
HETATM   13  N   UNL     1      41.787 -12.053   5.826  1.00  0.00    -0.365 N 
HETATM   14  H   UNL     1      41.033 -12.145   6.501  1.00  0.00     0.161 HD
BRANCH  13  15
HETATM   15  C   UNL     1      41.453 -12.220   4.414  1.00  0.00     0.155 C 
BRANCH  15  16
HETATM   16  C   UNL     1      40.992 -13.654   4.071  1.00  0.00     0.206 C 
HETATM   17  C   UNL     1      39.713 -13.706   3.217  1.00  0.00     0.040 C 
HETATM   18  C   UNL     1      39.842 -14.708   2.049  1.00  0.00     0.001 C 
HETATM   19  C   UNL     1      40.982 -14.340   1.075  1.00  0.00     0.067 C 
HETATM   20  C   UNL     1      40.266 -16.050   2.708  1.00  0.00     0.033 C 
HETATM   21  C   UNL     1      42.238 -13.953   1.881  1.00  0.00     0.246 C 
HETATM   22  N   UNL     1      42.059 -14.446   3.322  1.00  0.00    -0.065 N 
HETATM   23  C   UNL     1      41.673 -15.923   3.318  1.00  0.00     0.236 C 
HETATM   24  H   UNL     1      42.962 -14.349   3.808  1.00  0.00     0.280 HD
BRANCH  19  25
HETATM   25  C   UNL     1      40.749 -13.427  -0.097  1.00  0.00     0.038 C 
HETATM   26  N   UNL     1      39.924 -13.541  -1.192  1.00  0.00    -0.277 N 
HETATM   27  C   UNL     1      39.131 -14.646  -1.675  1.00  0.00     0.179 C 
HETATM   28  N   UNL     1      39.839 -12.412  -1.909  1.00  0.00    -0.172 NA
HETATM   29  C   UNL     1      40.747 -11.580  -1.394  1.00  0.00     0.089 C 
HETATM   30  C   UNL     1      41.349 -12.183  -0.266  1.00  0.00     0.061 C 
BRANCH  29  31
HETATM   31  C   UNL     1      40.974 -10.245  -1.945  1.00  0.00    -0.003 A 
HETATM   32  C   UNL     1      40.232  -9.807  -3.053  1.00  0.00     0.053 A 
HETATM   33  C   UNL     1      40.410  -8.520  -3.575  1.00  0.00     0.102 A 
HETATM   34  C   UNL     1      41.359  -7.658  -2.992  1.00  0.00     0.101 A 
HETATM   35  C   UNL     1      42.105  -8.096  -1.895  1.00  0.00     0.040 A 
HETATM   36  C   UNL     1      41.914  -9.380  -1.373  1.00  0.00     0.017 A 
BRANCH  33  37
HETATM   37  O   UNL     1      39.709  -8.015  -4.642  1.00  0.00    -0.353 OA
HETATM   38  C   UNL     1      38.623  -8.780  -5.144  1.00  0.00     0.210 C 
ENDBRANCH  33  37
BRANCH  34  39
HETATM   39  O   UNL     1      41.468  -6.412  -3.556  1.00  0.00    -0.353 OA
HETATM   40  C   UNL     1      42.626  -6.139  -4.332  1.00  0.00     0.210 C 
ENDBRANCH  34  39
ENDBRANCH  29  31
ENDBRANCH  19  25
ENDBRANCH  15  16
ENDBRANCH  13  15
ENDBRANCH  11  13
ENDBRANCH   9  11
ENDBRANCH   1   9
TORSDOF 9
ENDMDL
MODEL 8
REMARK VINA RESULT:      -8.1      4.630      8.028
REMARK  9 active torsions:
REMARK  status: ('A' for Active; 'I' for Inactive)
REMARK    1  A    between atoms: C_4  and  C_5 
REMARK    2  A    between atoms: C_7  and  O_8 
REMARK    3  A    between atoms: C_10  and  O_11 
REMARK    4  A    between atoms: C_16  and  C_17 
REMARK    5  A    between atoms: C_20  and  C_21 
REMARK    6  A    between atoms: C_21  and  N_22 
REMARK    7  A    between atoms: N_22  and  C_23 
REMARK    8  A    between atoms: C_23  and  N_24 
REMARK    9  A    between atoms: N_24  and  C_25 
ROOT
HETATM    1  C   UNL     1      43.422  -9.686   9.382  1.00  0.00     0.034 A 
HETATM    2  C   UNL     1      43.543 -10.444  10.551  1.00  0.00     0.031 A 
HETATM    3  C   UNL     1      43.471  -9.832  11.807  1.00  0.00     0.025 A 
HETATM    4  C   UNL     1      43.266  -8.453  11.908  1.00  0.00     0.044 A 
HETATM    5  C   UNL     1      43.199  -7.830  13.197  1.00  0.00     0.099 C 
HETATM    6  N   UNL     1      43.159  -7.345  14.249  1.00  0.00    -0.191 NA
HETATM    7  C   UNL     1      43.117  -7.695  10.745  1.00  0.00     0.025 A 
HETATM    8  C   UNL     1      43.182  -8.312   9.490  1.00  0.00     0.031 A 
ENDROOT
BRANCH   1   9
HETATM    9  N   UNL     1      43.450 -10.239   8.086  1.00  0.00    -0.333 N 
HETATM   10  H   UNL     1      42.727  -9.903   7.452  1.00  0.00     0.168 HD
BRANCH   9  11
HETATM   11  C   UNL     1      44.194 -11.256   7.558  1.00  0.00     0.172 C 
HETATM   12  S   UNL     1      45.786 -10.949   7.161  1.00  0.00    -0.041 SA
BRANCH  11  13
HETATM   13  N   UNL     1      43.574 -12.474   7.452  1.00  0.00    -0.365 N 
HETATM   14  H   UNL     1      43.161 -12.755   8.337  1.00  0.00     0.161 HD
BRANCH  13  15
HETATM   15  C   UNL     1      43.965 -13.533   6.524  1.00  0.00     0.155 C 
BRANCH  15  16
HETATM   16  C   UNL     1      42.803 -14.000   5.620  1.00  0.00     0.206 C 
HETATM   17  C   UNL     1      41.416 -13.853   6.269  1.00  0.00     0.040 C 
HETATM   18  C   UNL     1      40.390 -13.229   5.298  1.00  0.00     0.001 C 
HETATM   19  C   UNL     1      40.792 -11.810   4.843  1.00  0.00     0.067 C 
HETATM   20  C   UNL     1      40.445 -14.114   4.022  1.00  0.00     0.033 C 
HETATM   21  C   UNL     1      42.289 -11.797   4.471  1.00  0.00     0.246 C 
HETATM   22  N   UNL     1      42.756 -13.246   4.295  1.00  0.00    -0.065 N 
HETATM   23  C   UNL     1      41.817 -13.978   3.338  1.00  0.00     0.236 C 
HETATM   24  H   UNL     1      43.696 -13.231   3.875  1.00  0.00     0.280 HD
BRANCH  19  25
HETATM   25  C   UNL     1      40.384 -10.590   5.622  1.00  0.00     0.038 C 
HETATM   26  N   UNL     1      39.859  -9.384   5.218  1.00  0.00    -0.277 N 
HETATM   27  C   UNL     1      39.679  -8.817   3.904  1.00  0.00     0.179 C 
HETATM   28  N   UNL     1      39.424  -8.630   6.237  1.00  0.00    -0.172 NA
HETATM   29  C   UNL     1      39.815  -9.255   7.350  1.00  0.00     0.089 C 
HETATM   30  C   UNL     1      40.432 -10.480   7.008  1.00  0.00     0.061 C 
BRANCH  29  31
HETATM   31  C   UNL     1      39.549  -8.707   8.679  1.00  0.00    -0.003 A 
HETATM   32  C   UNL     1      39.088  -7.388   8.816  1.00  0.00     0.053 A 
HETATM   33  C   UNL     1      38.796  -6.855  10.077  1.00  0.00     0.102 A 
HETATM   34  C   UNL     1      38.981  -7.647  11.227  1.00  0.00     0.101 A 
HETATM   35  C   UNL     1      39.449  -8.957  11.093  1.00  0.00     0.040 A 
HETATM   36  C   UNL     1      39.729  -9.485   9.828  1.00  0.00     0.017 A 
BRANCH  33  37
HETATM   37  O   UNL     1      38.325  -5.583  10.289  1.00  0.00    -0.353 OA
HETATM   38  C   UNL     1      39.185  -4.497   9.978  1.00  0.00     0.210 C 
ENDBRANCH  33  37
BRANCH  34  39
HETATM   39  O   UNL     1      38.666  -7.055  12.424  1.00  0.00    -0.353 OA
HETATM   40  C   UNL     1      39.539  -7.279  13.521  1.00  0.00     0.210 C 
ENDBRANCH  34  39
ENDBRANCH  29  31
ENDBRANCH  19  25
ENDBRANCH  15  16
ENDBRANCH  13  15
ENDBRANCH  11  13
ENDBRANCH   9  11
ENDBRANCH   1   9
TORSDOF 9
ENDMDL
MODEL 9
REMARK VINA RESULT:      -8.1      7.764     13.030
REMARK  9 active torsions:
REMARK  status: ('A' for Active; 'I' for Inactive)
REMARK    1  A    between atoms: C_4  and  C_5 
REMARK    2  A    between atoms: C_7  and  O_8 
REMARK    3  A    between atoms: C_10  and  O_11 
REMARK    4  A    between atoms: C_16  and  C_17 
REMARK    5  A    between atoms: C_20  and  C_21 
REMARK    6  A    between atoms: C_21  and  N_22 
REMARK    7  A    between atoms: N_22  and  C_23 
REMARK    8  A    between atoms: C_23  and  N_24 
REMARK    9  A    between atoms: N_24  and  C_25 
ROOT
HETATM    1  C   UNL     1      39.613  -5.195  13.063  1.00  0.00     0.034 A 
HETATM    2  C   UNL     1      38.540  -6.078  13.216  1.00  0.00     0.031 A 
HETATM    3  C   UNL     1      38.291  -7.067  12.258  1.00  0.00     0.025 A 
HETATM    4  C   UNL     1      39.121  -7.191  11.141  1.00  0.00     0.044 A 
HETATM    5  C   UNL     1      38.859  -8.204  10.161  1.00  0.00     0.099 C 
HETATM    6  N   UNL     1      38.621  -9.022   9.374  1.00  0.00    -0.191 NA
HETATM    7  C   UNL     1      40.211  -6.331  10.997  1.00  0.00     0.025 A 
HETATM    8  C   UNL     1      40.461  -5.346  11.961  1.00  0.00     0.031 A 
ENDROOT
BRANCH   1   9
HETATM    9  N   UNL     1      39.944  -4.197  14.002  1.00  0.00    -0.333 N 
HETATM   10  H   UNL     1      40.690  -4.439  14.652  1.00  0.00     0.168 HD
BRANCH   9  11
HETATM   11  C   UNL     1      39.348  -3.002  14.291  1.00  0.00     0.172 C 
HETATM   12  S   UNL     1      38.844  -2.040  13.024  1.00  0.00    -0.041 SA
BRANCH  11  13
HETATM   13  N   UNL     1      39.165  -2.718  15.621  1.00  0.00    -0.365 N 
HETATM   14  H   UNL     1      38.234  -2.987  15.929  1.00  0.00     0.161 HD
BRANCH  13  15
HETATM   15  C   UNL     1      39.828  -1.636  16.343  1.00  0.00     0.155 C 
BRANCH  15  16
HETATM   16  C   UNL     1      40.024  -1.946  17.843  1.00  0.00     0.206 C 
HETATM   17  C   UNL     1      39.298  -3.218  18.313  1.00  0.00     0.040 C 
HETATM   18  C   UNL     1      40.203  -4.104  19.197  1.00  0.00     0.001 C 
HETATM   19  C   UNL     1      41.464  -4.592  18.452  1.00  0.00     0.067 C 
HETATM   20  C   UNL     1      40.715  -3.166  20.326  1.00  0.00     0.033 C 
HETATM   21  C   UNL     1      42.086  -3.414  17.675  1.00  0.00     0.246 C 
HETATM   22  N   UNL     1      41.494  -2.109  18.218  1.00  0.00    -0.065 N 
HETATM   23  C   UNL     1      41.628  -2.075  19.739  1.00  0.00     0.236 C 
HETATM   24  H   UNL     1      42.036  -1.325  17.829  1.00  0.00     0.280 HD
BRANCH  19  25
HETATM   25  C   UNL     1      41.462  -5.868  17.656  1.00  0.00     0.038 C 
HETATM   26  N   UNL     1      40.922  -7.105  17.919  1.00  0.00    -0.277 N 
HETATM   27  C   UNL     1      40.324  -7.648  19.114  1.00  0.00     0.179 C 
HETATM   28  N   UNL     1      40.945  -7.927  16.860  1.00  0.00    -0.172 NA
HETATM   29  C   UNL     1      41.662  -7.301  15.924  1.00  0.00     0.089 C 
HETATM   30  C   UNL     1      42.016  -6.013  16.388  1.00  0.00     0.061 C 
BRANCH  29  31
HETATM   31  C   UNL     1      41.939  -7.910  14.625  1.00  0.00    -0.003 A 
HETATM   32  C   UNL     1      41.048  -8.853  14.087  1.00  0.00     0.053 A 
HETATM   33  C   UNL     1      41.277  -9.424  12.830  1.00  0.00     0.102 A 
HETATM   34  C   UNL     1      42.425  -9.060  12.098  1.00  0.00     0.101 A 
HETATM   35  C   UNL     1      43.317  -8.128  12.637  1.00  0.00     0.040 A 
HETATM   36  C   UNL     1      43.076  -7.555  13.889  1.00  0.00     0.017 A 
BRANCH  33  37
HETATM   37  O   UNL     1      40.444 -10.336  12.231  1.00  0.00    -0.353 OA
HETATM   38  C   UNL     1      39.383 -10.873  13.007  1.00  0.00     0.210 C 
ENDBRANCH  33  37
BRANCH  34  39
HETATM   39  O   UNL     1      42.574  -9.657  10.873  1.00  0.00    -0.353 OA
HETATM   40  C   UNL     1      43.689 -10.516  10.688  1.00  0.00     0.210 C 
ENDBRANCH  34  39
ENDBRANCH  29  31
ENDBRANCH  19  25
ENDBRANCH  15  16
ENDBRANCH  13  15
ENDBRANCH  11  13
ENDBRANCH   9  11
ENDBRANCH   1   9
TORSDOF 9
ENDMDL
MODEL 10
REMARK VINA RESULT:      -8.1      2.779      7.505
REMARK  9 active torsions:
REMARK  status: ('A' for Active; 'I' for Inactive)
REMARK    1  A    between atoms: C_4  and  C_5 
REMARK    2  A    between atoms: C_7  and  O_8 
REMARK    3  A    between atoms: C_10  and  O_11 
REMARK    4  A    between atoms: C_16  and  C_17 
REMARK    5  A    between atoms: C_20  and  C_21 
REMARK    6  A    between atoms: C_21  and  N_22 
REMARK    7  A    between atoms: N_22  and  C_23 
REMARK    8  A    between atoms: C_23  and  N_24 
REMARK    9  A    between atoms: N_24  and  C_25 
ROOT
HETATM    1  C   UNL     1      39.087 -10.585   4.639  1.00  0.00     0.034 A 
HETATM    2  C   UNL     1      39.539 -11.875   4.929  1.00  0.00     0.031 A 
HETATM    3  C   UNL     1      39.757 -12.800   3.902  1.00  0.00     0.025 A 
HETATM    4  C   UNL     1      39.534 -12.440   2.571  1.00  0.00     0.044 A 
HETATM    5  C   UNL     1      39.754 -13.393   1.523  1.00  0.00     0.099 C 
HETATM    6  N   UNL     1      39.926 -14.183   0.692  1.00  0.00    -0.191 NA
HETATM    7  C   UNL     1      39.110 -11.144   2.272  1.00  0.00     0.025 A 
HETATM    8  C   UNL     1      38.900 -10.219   3.302  1.00  0.00     0.031 A 
ENDROOT
BRANCH   1   9
HETATM    9  N   UNL     1      38.880  -9.592   5.618  1.00  0.00    -0.333 N 
HETATM   10  H   UNL     1      37.912  -9.306   5.753  1.00  0.00     0.168 HD
BRANCH   9  11
HETATM   11  C   UNL     1      39.765  -8.837   6.334  1.00  0.00     0.172 C 
HETATM   12  S   UNL     1      40.876  -7.912   5.499  1.00  0.00    -0.041 SA
BRANCH  11  13
HETATM   13  N   UNL     1      39.624  -8.862   7.698  1.00  0.00    -0.365 N 
HETATM   14  H   UNL     1      39.028  -9.631   7.992  1.00  0.00     0.161 HD
BRANCH  13  15
HETATM   15  C   UNL     1      39.687  -7.689   8.566  1.00  0.00     0.155 C 
BRANCH  15  16
HETATM   16  C   UNL     1      40.572  -7.910   9.813  1.00  0.00     0.206 C 
HETATM   17  C   UNL     1      41.035  -9.366   9.993  1.00  0.00     0.040 C 
HETATM   18  C   UNL     1      42.538  -9.453  10.337  1.00  0.00     0.001 C 
HETATM   19  C   UNL     1      43.435  -8.862   9.228  1.00  0.00     0.067 C 
HETATM   20  C   UNL     1      42.728  -8.529  11.572  1.00  0.00     0.033 C 
HETATM   21  C   UNL     1      42.845  -7.518   8.756  1.00  0.00     0.246 C 
HETATM   22  N   UNL     1      41.827  -7.043   9.799  1.00  0.00    -0.065 N 
HETATM   23  C   UNL     1      42.463  -7.063  11.187  1.00  0.00     0.236 C 
HETATM   24  H   UNL     1      41.570  -6.071   9.576  1.00  0.00     0.280 HD
BRANCH  19  25
HETATM   25  C   UNL     1      43.930  -9.704   8.085  1.00  0.00     0.038 C 
HETATM   26  N   UNL     1      45.201  -9.953   7.620  1.00  0.00    -0.277 N 
HETATM   27  C   UNL     1      46.472  -9.360   7.959  1.00  0.00     0.179 C 
HETATM   28  N   UNL     1      45.246 -10.935   6.709  1.00  0.00    -0.172 NA
HETATM   29  C   UNL     1      43.977 -11.236   6.429  1.00  0.00     0.089 C 
HETATM   30  C   UNL     1      43.120 -10.478   7.260  1.00  0.00     0.061 C 
BRANCH  29  31
HETATM   31  C   UNL     1      43.622 -12.252   5.440  1.00  0.00    -0.003 A 
HETATM   32  C   UNL     1      43.231 -13.534   5.858  1.00  0.00     0.053 A 
HETATM   33  C   UNL     1      42.856 -14.511   4.929  1.00  0.00     0.102 A 
HETATM   34  C   UNL     1      42.887 -14.212   3.553  1.00  0.00     0.101 A 
HETATM   35  C   UNL     1      43.286 -12.939   3.134  1.00  0.00     0.040 A 
HETATM   36  C   UNL     1      43.649 -11.966   4.070  1.00  0.00     0.017 A 
BRANCH  33  37
HETATM   37  O   UNL     1      42.443 -15.778   5.262  1.00  0.00    -0.353 OA
HETATM   38  C   UNL     1      41.239 -15.909   6.002  1.00  0.00     0.210 C 
ENDBRANCH  33  37
BRANCH  34  39
HETATM   39  O   UNL     1      42.498 -15.219   2.707  1.00  0.00    -0.353 OA
HETATM   40  C   UNL     1      43.426 -15.648   1.721  1.00  0.00     0.210 C 
ENDBRANCH  34  39
ENDBRANCH  29  31
ENDBRANCH  19  25
ENDBRANCH  15  16
ENDBRANCH  13  15
ENDBRANCH  11  13
ENDBRANCH   9  11
ENDBRANCH   1   9
TORSDOF 9
ENDMDL
