MODEL 1
REMARK VINA RESULT:      -8.5      0.000      0.000
REMARK  6 active torsions:
REMARK  status: ('A' for Active; 'I' for Inactive)
REMARK    1  A    between atoms: C_2  and  N_3 
REMARK    2  A    between atoms: C_7  and  N_8 
REMARK       I    between atoms: N_8  and  C_9 
REMARK       I    between atoms: C_9  and  N_10 
REMARK    3  A    between atoms: N_10  and  C_11 
REMARK    4  A    between atoms: C_11  and  C_12 
REMARK    5  A    between atoms: C_15  and  N_16 
REMARK       I    between atoms: N_16  and  C_17 
REMARK    6  A    between atoms: C_17  and  C_18 
ROOT
HETATM    1  N   UNL     1      43.433 -14.085   6.633  1.00  0.00    -0.338 N 
HETATM    2  C   UNL     1      43.579 -12.752   6.324  1.00  0.00     0.316 C 
HETATM    3  N   UNL     1      44.819 -12.300   6.689  1.00  0.00    -0.339 N 
HETATM    4  O   UNL     1      42.690 -12.049   5.872  1.00  0.00    -0.247 OA
HETATM    5  H   UNL     1      44.285 -14.587   6.407  1.00  0.00     0.164 HD
HETATM    6  H   UNL     1      45.378 -12.888   7.287  1.00  0.00     0.164 HD
ENDROOT
BRANCH   3   7
HETATM    7  C   UNL     1      45.098 -10.878   6.742  1.00  0.00     0.162 C 
BRANCH   7   8
HETATM    8  C   UNL     1      44.776 -10.251   8.083  1.00  0.00    -0.040 A 
HETATM    9  C   UNL     1      45.663 -10.280   9.168  1.00  0.00     0.011 A 
HETATM   10  C   UNL     1      45.298  -9.753  10.412  1.00  0.00     0.030 A 
HETATM   11  C   UNL     1      44.048  -9.160  10.589  1.00  0.00     0.035 A 
HETATM   12  C   UNL     1      43.191  -9.055   9.490  1.00  0.00     0.030 A 
HETATM   13  C   UNL     1      43.547  -9.600   8.252  1.00  0.00     0.011 A 
BRANCH  11  14
HETATM   14  N   UNL     1      43.586  -8.664  11.819  1.00  0.00    -0.321 N 
HETATM   15  C   UNL     1      42.791  -9.304  12.756  1.00  0.00     0.279 C 
HETATM   16  O   UNL     1      42.363 -10.451  12.657  1.00  0.00    -0.265 OA
HETATM   17  H   UNL     1      43.778  -7.689  12.029  1.00  0.00     0.169 HD
BRANCH  15  18
HETATM   18  C   UNL     1      42.463  -8.446  13.881  1.00  0.00     0.142 A 
HETATM   19  O   UNL     1      41.460  -8.823  14.740  1.00  0.00    -0.317 OA
HETATM   20  C   UNL     1      41.371  -7.865  15.698  1.00  0.00     0.143 A 
HETATM   21  C   UNL     1      42.299  -6.875  15.477  1.00  0.00     0.027 A 
HETATM   22  C   UNL     1      43.002  -7.247  14.306  1.00  0.00     0.045 A 
ENDBRANCH  15  18
ENDBRANCH  11  14
ENDBRANCH   7   8
ENDBRANCH   3   7
BRANCH   1  23
HETATM   23  C   UNL     1      42.193 -14.832   6.398  1.00  0.00     0.089 C 
HETATM   24  C   UNL     1      42.077 -16.182   7.110  1.00  0.00     0.053 C 
HETATM   25  C   UNL     1      43.166 -17.145   6.676  1.00  0.00     0.237 C 
HETATM   26  N   UNL     1      43.077 -17.392   5.170  1.00  0.00    -0.067 N 
HETATM   27  H   UNL     1      42.165 -17.833   4.990  1.00  0.00     0.280 HD
HETATM   28  C   UNL     1      43.115 -16.080   4.403  1.00  0.00     0.237 C 
HETATM   29  C   UNL     1      42.055 -15.100   4.900  1.00  0.00     0.053 C 
BRANCH  26  30
HETATM   30  C   UNL     1      44.155 -18.390   4.693  1.00  0.00     0.180 C 
HETATM   31  C   UNL     1      44.031 -18.626   3.185  1.00  0.00     0.039 C 
HETATM   32  C   UNL     1      43.995 -19.728   5.419  1.00  0.00     0.039 C 
ENDBRANCH  26  30
ENDBRANCH   1  23
TORSDOF 6
ENDMDL
MODEL 2
REMARK VINA RESULT:      -8.4      2.549     10.629
REMARK  6 active torsions:
REMARK  status: ('A' for Active; 'I' for Inactive)
REMARK    1  A    between atoms: C_2  and  N_3 
REMARK    2  A    between atoms: C_7  and  N_8 
REMARK       I    between atoms: N_8  and  C_9 
REMARK       I    between atoms: C_9  and  N_10 
REMARK    3  A    between atoms: N_10  and  C_11 
REMARK    4  A    between atoms: C_11  and  C_12 
REMARK    5  A    between atoms: C_15  and  N_16 
REMARK       I    between atoms: N_16  and  C_17 
REMARK    6  A    between atoms: C_17  and  C_18 
ROOT
HETATM    1  N   UNL     1      43.276 -10.595   9.341  1.00  0.00    -0.338 N 
HETATM    2  C   UNL     1      43.661 -10.436   8.028  1.00  0.00     0.316 C 
HETATM    3  N   UNL     1      42.622 -10.709   7.180  1.00  0.00    -0.339 N 
HETATM    4  O   UNL     1      44.798 -10.176   7.671  1.00  0.00    -0.247 OA
HETATM    5  H   UNL     1      42.346 -10.215   9.476  1.00  0.00     0.164 HD
HETATM    6  H   UNL     1      41.808 -11.164   7.561  1.00  0.00     0.164 HD
ENDROOT
BRANCH   3   7
HETATM    7  C   UNL     1      42.862 -10.902   5.762  1.00  0.00     0.162 C 
BRANCH   7   8
HETATM    8  C   UNL     1      42.811 -12.355   5.336  1.00  0.00    -0.040 A 
HETATM    9  C   UNL     1      42.635 -13.408   6.245  1.00  0.00     0.011 A 
HETATM   10  C   UNL     1      42.667 -14.740   5.818  1.00  0.00     0.030 A 
HETATM   11  C   UNL     1      42.844 -15.047   4.469  1.00  0.00     0.035 A 
HETATM   12  C   UNL     1      42.938 -14.001   3.548  1.00  0.00     0.030 A 
HETATM   13  C   UNL     1      42.927 -12.669   3.975  1.00  0.00     0.011 A 
BRANCH  11  14
HETATM   14  N   UNL     1      42.948 -16.357   3.973  1.00  0.00    -0.321 N 
HETATM   15  C   UNL     1      43.834 -17.350   4.355  1.00  0.00     0.279 C 
HETATM   16  O   UNL     1      44.690 -17.238   5.229  1.00  0.00    -0.265 OA
HETATM   17  H   UNL     1      42.364 -16.599   3.177  1.00  0.00     0.169 HD
BRANCH  15  18
HETATM   18  C   UNL     1      43.682 -18.561   3.566  1.00  0.00     0.142 A 
HETATM   19  O   UNL     1      44.104 -19.758   4.089  1.00  0.00    -0.317 OA
HETATM   20  C   UNL     1      43.833 -20.716   3.166  1.00  0.00     0.143 A 
HETATM   21  C   UNL     1      43.242 -20.163   2.056  1.00  0.00     0.027 A 
HETATM   22  C   UNL     1      43.145 -18.774   2.311  1.00  0.00     0.045 A 
ENDBRANCH  15  18
ENDBRANCH  11  14
ENDBRANCH   7   8
ENDBRANCH   3   7
BRANCH   1  23
HETATM   23  C   UNL     1      44.191 -10.414  10.472  1.00  0.00     0.089 C 
HETATM   24  C   UNL     1      43.751 -11.040  11.798  1.00  0.00     0.053 C 
HETATM   25  C   UNL     1      42.443 -10.451  12.293  1.00  0.00     0.237 C 
HETATM   26  N   UNL     1      42.593  -8.945  12.504  1.00  0.00    -0.067 N 
HETATM   27  H   UNL     1      43.304  -8.812  13.235  1.00  0.00     0.280 HD
HETATM   28  C   UNL     1      43.098  -8.268  11.240  1.00  0.00     0.237 C 
HETATM   29  C   UNL     1      44.378  -8.918  10.720  1.00  0.00     0.053 C 
BRANCH  26  30
HETATM   30  C   UNL     1      41.288  -8.312  13.035  1.00  0.00     0.180 C 
HETATM   31  C   UNL     1      41.135  -8.584  14.534  1.00  0.00     0.039 C 
HETATM   32  C   UNL     1      40.080  -8.898  12.300  1.00  0.00     0.039 C 
ENDBRANCH  26  30
ENDBRANCH   1  23
TORSDOF 6
ENDMDL
MODEL 3
REMARK VINA RESULT:      -8.3      2.734     10.688
REMARK  6 active torsions:
REMARK  status: ('A' for Active; 'I' for Inactive)
REMARK    1  A    between atoms: C_2  and  N_3 
REMARK    2  A    between atoms: C_7  and  N_8 
REMARK       I    between atoms: N_8  and  C_9 
REMARK       I    between atoms: C_9  and  N_10 
REMARK    3  A    between atoms: N_10  and  C_11 
REMARK    4  A    between atoms: C_11  and  C_12 
REMARK    5  A    between atoms: C_15  and  N_16 
REMARK       I    between atoms: N_16  and  C_17 
REMARK    6  A    between atoms: C_17  and  C_18 
ROOT
HETATM    1  N   UNL     1      42.676 -10.126   8.456  1.00  0.00    -0.338 N 
HETATM    2  C   UNL     1      42.146 -10.162   7.186  1.00  0.00     0.316 C 
HETATM    3  N   UNL     1      41.033 -10.960   7.146  1.00  0.00    -0.339 N 
HETATM    4  O   UNL     1      42.653  -9.631   6.212  1.00  0.00    -0.247 OA
HETATM    5  H   UNL     1      41.930 -10.057   9.139  1.00  0.00     0.164 HD
HETATM    6  H   UNL     1      40.851 -11.556   7.937  1.00  0.00     0.164 HD
ENDROOT
BRANCH   3   7
HETATM    7  C   UNL     1      40.484 -11.392   5.875  1.00  0.00     0.162 C 
BRANCH   7   8
HETATM    8  C   UNL     1      41.053 -12.709   5.390  1.00  0.00    -0.040 A 
HETATM    9  C   UNL     1      42.093 -12.789   4.452  1.00  0.00     0.011 A 
HETATM   10  C   UNL     1      42.540 -14.026   3.977  1.00  0.00     0.030 A 
HETATM   11  C   UNL     1      41.978 -15.212   4.450  1.00  0.00     0.035 A 
HETATM   12  C   UNL     1      40.999 -15.142   5.444  1.00  0.00     0.030 A 
HETATM   13  C   UNL     1      40.535 -13.905   5.906  1.00  0.00     0.011 A 
BRANCH  11  14
HETATM   14  N   UNL     1      42.330 -16.487   3.978  1.00  0.00    -0.321 N 
HETATM   15  C   UNL     1      43.449 -17.239   4.295  1.00  0.00     0.279 C 
HETATM   16  O   UNL     1      44.333 -16.899   5.077  1.00  0.00    -0.265 OA
HETATM   17  H   UNL     1      41.746 -16.890   3.250  1.00  0.00     0.169 HD
BRANCH  15  18
HETATM   18  C   UNL     1      43.503 -18.488   3.556  1.00  0.00     0.142 A 
HETATM   19  O   UNL     1      43.953 -19.622   4.188  1.00  0.00    -0.317 OA
HETATM   20  C   UNL     1      43.887 -20.636   3.287  1.00  0.00     0.143 A 
HETATM   21  C   UNL     1      43.401 -20.182   2.085  1.00  0.00     0.027 A 
HETATM   22  C   UNL     1      43.155 -18.798   2.255  1.00  0.00     0.045 A 
ENDBRANCH  15  18
ENDBRANCH  11  14
ENDBRANCH   7   8
ENDBRANCH   3   7
BRANCH   1  23
HETATM   23  C   UNL     1      43.897  -9.387   8.794  1.00  0.00     0.089 C 
HETATM   24  C   UNL     1      44.648  -9.866  10.038  1.00  0.00     0.053 C 
HETATM   25  C   UNL     1      43.799  -9.753  11.290  1.00  0.00     0.237 C 
HETATM   26  N   UNL     1      43.388  -8.298  11.514  1.00  0.00    -0.067 N 
HETATM   27  H   UNL     1      44.252  -7.760  11.660  1.00  0.00     0.280 HD
HETATM   28  C   UNL     1      42.695  -7.736  10.284  1.00  0.00     0.237 C 
HETATM   29  C   UNL     1      43.537  -7.919   9.023  1.00  0.00     0.053 C 
BRANCH  26  30
HETATM   30  C   UNL     1      42.542  -8.137  12.797  1.00  0.00     0.180 C 
HETATM   31  C   UNL     1      43.299  -7.300  13.832  1.00  0.00     0.039 C 
HETATM   32  C   UNL     1      42.231  -9.508  13.400  1.00  0.00     0.039 C 
ENDBRANCH  26  30
ENDBRANCH   1  23
TORSDOF 6
ENDMDL
MODEL 4
REMARK VINA RESULT:      -8.0      3.946     11.094
REMARK  6 active torsions:
REMARK  status: ('A' for Active; 'I' for Inactive)
REMARK    1  A    between atoms: C_2  and  N_3 
REMARK    2  A    between atoms: C_7  and  N_8 
REMARK       I    between atoms: N_8  and  C_9 
REMARK       I    between atoms: C_9  and  N_10 
REMARK    3  A    between atoms: N_10  and  C_11 
REMARK    4  A    between atoms: C_11  and  C_12 
REMARK    5  A    between atoms: C_15  and  N_16 
REMARK       I    between atoms: N_16  and  C_17 
REMARK    6  A    between atoms: C_17  and  C_18 
ROOT
HETATM    1  N   UNL     1      43.770 -11.179   8.302  1.00  0.00    -0.338 N 
HETATM    2  C   UNL     1      44.107 -12.100   7.336  1.00  0.00     0.316 C 
HETATM    3  N   UNL     1      43.113 -13.030   7.182  1.00  0.00    -0.339 N 
HETATM    4  O   UNL     1      45.183 -12.134   6.763  1.00  0.00    -0.247 OA
HETATM    5  H   UNL     1      42.793 -10.924   8.210  1.00  0.00     0.164 HD
HETATM    6  H   UNL     1      42.387 -13.065   7.880  1.00  0.00     0.164 HD
ENDROOT
BRANCH   3   7
HETATM    7  C   UNL     1      43.361 -14.257   6.450  1.00  0.00     0.162 C 
BRANCH   7   8
HETATM    8  C   UNL     1      42.749 -14.265   5.064  1.00  0.00    -0.040 A 
HETATM    9  C   UNL     1      43.143 -15.166   4.064  1.00  0.00     0.011 A 
HETATM   10  C   UNL     1      42.603 -15.092   2.775  1.00  0.00     0.030 A 
HETATM   11  C   UNL     1      41.636 -14.136   2.467  1.00  0.00     0.035 A 
HETATM   12  C   UNL     1      41.179 -13.289   3.481  1.00  0.00     0.030 A 
HETATM   13  C   UNL     1      41.733 -13.348   4.764  1.00  0.00     0.011 A 
BRANCH  11  14
HETATM   14  N   UNL     1      41.092 -13.960   1.184  1.00  0.00    -0.321 N 
HETATM   15  C   UNL     1      40.209 -14.785   0.508  1.00  0.00     0.279 C 
HETATM   16  O   UNL     1      39.738 -15.830   0.947  1.00  0.00    -0.265 OA
HETATM   17  H   UNL     1      41.441 -13.179   0.635  1.00  0.00     0.169 HD
BRANCH  15  18
HETATM   18  C   UNL     1      39.919 -14.304  -0.833  1.00  0.00     0.142 A 
HETATM   19  O   UNL     1      40.539 -13.164  -1.283  1.00  0.00    -0.317 OA
HETATM   20  C   UNL     1      40.109 -12.950  -2.554  1.00  0.00     0.143 A 
HETATM   21  C   UNL     1      39.226 -13.931  -2.935  1.00  0.00     0.027 A 
HETATM   22  C   UNL     1      39.101 -14.803  -1.827  1.00  0.00     0.045 A 
ENDBRANCH  15  18
ENDBRANCH  11  14
ENDBRANCH   7   8
ENDBRANCH   3   7
BRANCH   1  23
HETATM   23  C   UNL     1      44.660 -10.089   8.716  1.00  0.00     0.089 C 
HETATM   24  C   UNL     1      45.129 -10.121  10.172  1.00  0.00     0.053 C 
HETATM   25  C   UNL     1      43.966 -10.027  11.142  1.00  0.00     0.237 C 
HETATM   26  N   UNL     1      43.202  -8.722  10.918  1.00  0.00    -0.067 N 
HETATM   27  H   UNL     1      43.853  -7.952  11.118  1.00  0.00     0.280 HD
HETATM   28  C   UNL     1      42.766  -8.593   9.468  1.00  0.00     0.237 C 
HETATM   29  C   UNL     1      43.939  -8.758   8.504  1.00  0.00     0.053 C 
BRANCH  26  30
HETATM   30  C   UNL     1      42.024  -8.576  11.906  1.00  0.00     0.180 C 
HETATM   31  C   UNL     1      42.499  -8.823  13.341  1.00  0.00     0.039 C 
HETATM   32  C   UNL     1      40.922  -9.583  11.569  1.00  0.00     0.039 C 
ENDBRANCH  26  30
ENDBRANCH   1  23
TORSDOF 6
ENDMDL
MODEL 5
REMARK VINA RESULT:      -7.7      3.263     10.980
REMARK  6 active torsions:
REMARK  status: ('A' for Active; 'I' for Inactive)
REMARK    1  A    between atoms: C_2  and  N_3 
REMARK    2  A    between atoms: C_7  and  N_8 
REMARK       I    between atoms: N_8  and  C_9 
REMARK       I    between atoms: C_9  and  N_10 
REMARK    3  A    between atoms: N_10  and  C_11 
REMARK    4  A    between atoms: C_11  and  C_12 
REMARK    5  A    between atoms: C_15  and  N_16 
REMARK       I    between atoms: N_16  and  C_17 
REMARK    6  A    between atoms: C_17  and  C_18 
ROOT
HETATM    1  N   UNL     1      40.137  -9.946   8.679  1.00  0.00    -0.338 N 
HETATM    2  C   UNL     1      39.708 -10.250   7.407  1.00  0.00     0.316 C 
HETATM    3  N   UNL     1      40.626 -11.031   6.757  1.00  0.00    -0.339 N 
HETATM    4  O   UNL     1      38.691  -9.806   6.899  1.00  0.00    -0.247 OA
HETATM    5  H   UNL     1      40.557 -10.763   9.106  1.00  0.00     0.164 HD
HETATM    6  H   UNL     1      41.542 -11.123   7.167  1.00  0.00     0.164 HD
ENDROOT
BRANCH   3   7
HETATM    7  C   UNL     1      40.541 -11.226   5.323  1.00  0.00     0.162 C 
BRANCH   7   8
HETATM    8  C   UNL     1      40.999 -12.599   4.874  1.00  0.00    -0.040 A 
HETATM    9  C   UNL     1      40.189 -13.463   4.124  1.00  0.00     0.011 A 
HETATM   10  C   UNL     1      40.624 -14.751   3.792  1.00  0.00     0.030 A 
HETATM   11  C   UNL     1      41.889 -15.192   4.178  1.00  0.00     0.035 A 
HETATM   12  C   UNL     1      42.732 -14.307   4.856  1.00  0.00     0.030 A 
HETATM   13  C   UNL     1      42.291 -13.027   5.206  1.00  0.00     0.011 A 
BRANCH  11  14
HETATM   14  N   UNL     1      42.373 -16.489   3.937  1.00  0.00    -0.321 N 
HETATM   15  C   UNL     1      43.201 -16.917   2.913  1.00  0.00     0.279 C 
HETATM   16  O   UNL     1      43.667 -16.200   2.032  1.00  0.00    -0.265 OA
HETATM   17  H   UNL     1      42.017 -17.235   4.529  1.00  0.00     0.169 HD
BRANCH  15  18
HETATM   18  C   UNL     1      43.435 -18.351   2.954  1.00  0.00     0.142 A 
HETATM   19  O   UNL     1      43.890 -18.921   4.118  1.00  0.00    -0.317 OA
HETATM   20  C   UNL     1      44.006 -20.255   3.890  1.00  0.00     0.143 A 
HETATM   21  C   UNL     1      43.633 -20.560   2.604  1.00  0.00     0.027 A 
HETATM   22  C   UNL     1      43.266 -19.334   1.998  1.00  0.00     0.045 A 
ENDBRANCH  15  18
ENDBRANCH  11  14
ENDBRANCH   7   8
ENDBRANCH   3   7
BRANCH   1  23
HETATM   23  C   UNL     1      39.381  -9.087   9.596  1.00  0.00     0.089 C 
HETATM   24  C   UNL     1      39.769  -7.606   9.603  1.00  0.00     0.053 C 
HETATM   25  C   UNL     1      41.212  -7.403  10.025  1.00  0.00     0.237 C 
HETATM   26  N   UNL     1      41.430  -7.958  11.432  1.00  0.00    -0.067 N 
HETATM   27  H   UNL     1      40.829  -7.416  12.067  1.00  0.00     0.280 HD
HETATM   28  C   UNL     1      40.996  -9.413  11.513  1.00  0.00     0.237 C 
HETATM   29  C   UNL     1      39.564  -9.607  11.022  1.00  0.00     0.053 C 
BRANCH  26  30
HETATM   30  C   UNL     1      42.884  -7.746  11.908  1.00  0.00     0.180 C 
HETATM   31  C   UNL     1      43.722  -8.997  11.635  1.00  0.00     0.039 C 
HETATM   32  C   UNL     1      42.912  -7.450  13.410  1.00  0.00     0.039 C 
ENDBRANCH  26  30
ENDBRANCH   1  23
TORSDOF 6
ENDMDL
MODEL 6
REMARK VINA RESULT:      -7.7      5.351      8.132
REMARK  6 active torsions:
REMARK  status: ('A' for Active; 'I' for Inactive)
REMARK    1  A    between atoms: C_2  and  N_3 
REMARK    2  A    between atoms: C_7  and  N_8 
REMARK       I    between atoms: N_8  and  C_9 
REMARK       I    between atoms: C_9  and  N_10 
REMARK    3  A    between atoms: N_10  and  C_11 
REMARK    4  A    between atoms: C_11  and  C_12 
REMARK    5  A    between atoms: C_15  and  N_16 
REMARK       I    between atoms: N_16  and  C_17 
REMARK    6  A    between atoms: C_17  and  C_18 
ROOT
HETATM    1  N   UNL     1      39.619 -14.125   0.410  1.00  0.00    -0.338 N 
HETATM    2  C   UNL     1      40.231 -15.030   1.248  1.00  0.00     0.316 C 
HETATM    3  N   UNL     1      39.569 -15.111   2.444  1.00  0.00    -0.339 N 
HETATM    4  O   UNL     1      41.273 -15.609   0.991  1.00  0.00    -0.247 OA
HETATM    5  H   UNL     1      38.612 -14.225   0.471  1.00  0.00     0.164 HD
HETATM    6  H   UNL     1      38.880 -14.405   2.651  1.00  0.00     0.164 HD
ENDROOT
BRANCH   3   7
HETATM    7  C   UNL     1      40.188 -15.761   3.584  1.00  0.00     0.162 C 
BRANCH   7   8
HETATM    8  C   UNL     1      41.048 -14.829   4.413  1.00  0.00    -0.040 A 
HETATM    9  C   UNL     1      42.382 -15.115   4.739  1.00  0.00     0.011 A 
HETATM   10  C   UNL     1      43.118 -14.262   5.569  1.00  0.00     0.030 A 
HETATM   11  C   UNL     1      42.548 -13.090   6.065  1.00  0.00     0.035 A 
HETATM   12  C   UNL     1      41.247 -12.759   5.677  1.00  0.00     0.030 A 
HETATM   13  C   UNL     1      40.502 -13.621   4.865  1.00  0.00     0.011 A 
BRANCH  11  14
HETATM   14  N   UNL     1      43.201 -12.217   6.950  1.00  0.00    -0.321 N 
HETATM   15  C   UNL     1      44.213 -11.314   6.671  1.00  0.00     0.279 C 
HETATM   16  O   UNL     1      44.706 -11.122   5.562  1.00  0.00    -0.265 OA
HETATM   17  H   UNL     1      42.973 -12.300   7.937  1.00  0.00     0.169 HD
BRANCH  15  18
HETATM   18  C   UNL     1      44.684 -10.626   7.860  1.00  0.00     0.142 A 
HETATM   19  O   UNL     1      44.366 -11.132   9.097  1.00  0.00    -0.317 OA
HETATM   20  C   UNL     1      44.936 -10.318  10.022  1.00  0.00     0.143 A 
HETATM   21  C   UNL     1      45.621  -9.297   9.409  1.00  0.00     0.027 A 
HETATM   22  C   UNL     1      45.458  -9.492   8.017  1.00  0.00     0.045 A 
ENDBRANCH  15  18
ENDBRANCH  11  14
ENDBRANCH   7   8
ENDBRANCH   3   7
BRANCH   1  23
HETATM   23  C   UNL     1      40.129 -13.795  -0.924  1.00  0.00     0.089 C 
HETATM   24  C   UNL     1      40.718 -12.392  -1.089  1.00  0.00     0.053 C 
HETATM   25  C   UNL     1      39.688 -11.311  -0.819  1.00  0.00     0.237 C 
HETATM   26  N   UNL     1      38.515 -11.451  -1.789  1.00  0.00    -0.067 N 
HETATM   27  H   UNL     1      38.889 -11.311  -2.736  1.00  0.00     0.280 HD
HETATM   28  C   UNL     1      37.925 -12.850  -1.726  1.00  0.00     0.237 C 
HETATM   29  C   UNL     1      38.990 -13.926  -1.934  1.00  0.00     0.053 C 
BRANCH  26  30
HETATM   30  C   UNL     1      37.456 -10.350  -1.562  1.00  0.00     0.180 C 
HETATM   31  C   UNL     1      36.958 -10.380  -0.115  1.00  0.00     0.039 C 
HETATM   32  C   UNL     1      36.264 -10.561  -2.500  1.00  0.00     0.039 C 
ENDBRANCH  26  30
ENDBRANCH   1  23
TORSDOF 6
ENDMDL
MODEL 7
REMARK VINA RESULT:      -7.4      2.251     10.321
REMARK  6 active torsions:
REMARK  status: ('A' for Active; 'I' for Inactive)
REMARK    1  A    between atoms: C_2  and  N_3 
REMARK    2  A    between atoms: C_7  and  N_8 
REMARK       I    between atoms: N_8  and  C_9 
REMARK       I    between atoms: C_9  and  N_10 
REMARK    3  A    between atoms: N_10  and  C_11 
REMARK    4  A    between atoms: C_11  and  C_12 
REMARK    5  A    between atoms: C_15  and  N_16 
REMARK       I    between atoms: N_16  and  C_17 
REMARK    6  A    between atoms: C_17  and  C_18 
ROOT
HETATM    1  N   UNL     1      42.329  -9.125  11.487  1.00  0.00    -0.338 N 
HETATM    2  C   UNL     1      43.532  -9.450  10.901  1.00  0.00     0.316 C 
HETATM    3  N   UNL     1      43.730  -8.721   9.759  1.00  0.00    -0.339 N 
HETATM    4  O   UNL     1      44.274 -10.333  11.298  1.00  0.00    -0.247 OA
HETATM    5  H   UNL     1      42.186  -8.122  11.447  1.00  0.00     0.164 HD
HETATM    6  H   UNL     1      42.946  -8.214   9.381  1.00  0.00     0.164 HD
ENDROOT
BRANCH   3   7
HETATM    7  C   UNL     1      44.768  -9.097   8.818  1.00  0.00     0.162 C 
BRANCH   7   8
HETATM    8  C   UNL     1      44.332 -10.168   7.839  1.00  0.00    -0.040 A 
HETATM    9  C   UNL     1      43.074 -10.165   7.219  1.00  0.00     0.011 A 
HETATM   10  C   UNL     1      42.684 -11.212   6.377  1.00  0.00     0.030 A 
HETATM   11  C   UNL     1      43.554 -12.270   6.112  1.00  0.00     0.035 A 
HETATM   12  C   UNL     1      44.839 -12.237   6.662  1.00  0.00     0.030 A 
HETATM   13  C   UNL     1      45.223 -11.202   7.521  1.00  0.00     0.011 A 
BRANCH  11  14
HETATM   14  N   UNL     1      43.215 -13.384   5.329  1.00  0.00    -0.321 N 
HETATM   15  C   UNL     1      42.723 -14.609   5.749  1.00  0.00     0.279 C 
HETATM   16  O   UNL     1      42.487 -14.915   6.915  1.00  0.00    -0.265 OA
HETATM   17  H   UNL     1      43.426 -13.336   4.336  1.00  0.00     0.169 HD
BRANCH  15  18
HETATM   18  C   UNL     1      42.550 -15.543   4.650  1.00  0.00     0.142 A 
HETATM   19  O   UNL     1      41.375 -15.532   3.940  1.00  0.00    -0.317 OA
HETATM   20  C   UNL     1      41.482 -16.479   2.972  1.00  0.00     0.143 A 
HETATM   21  C   UNL     1      42.705 -17.101   3.040  1.00  0.00     0.027 A 
HETATM   22  C   UNL     1      43.394 -16.501   4.122  1.00  0.00     0.045 A 
ENDBRANCH  15  18
ENDBRANCH  11  14
ENDBRANCH   7   8
ENDBRANCH   3   7
BRANCH   1  23
HETATM   23  C   UNL     1      41.826  -9.776  12.701  1.00  0.00     0.089 C 
HETATM   24  C   UNL     1      40.318 -10.036  12.747  1.00  0.00     0.053 C 
HETATM   25  C   UNL     1      39.520  -8.748  12.670  1.00  0.00     0.237 C 
HETATM   26  N   UNL     1      39.881  -7.837  13.843  1.00  0.00    -0.067 N 
HETATM   27  H   UNL     1      39.613  -8.333  14.703  1.00  0.00     0.280 HD
HETATM   28  C   UNL     1      41.380  -7.594  13.897  1.00  0.00     0.237 C 
HETATM   29  C   UNL     1      42.168  -8.901  13.907  1.00  0.00     0.053 C 
BRANCH  26  30
HETATM   30  C   UNL     1      39.067  -6.525  13.815  1.00  0.00     0.180 C 
HETATM   31  C   UNL     1      38.717  -6.084  15.238  1.00  0.00     0.039 C 
HETATM   32  C   UNL     1      37.772  -6.722  13.024  1.00  0.00     0.039 C 
ENDBRANCH  26  30
ENDBRANCH   1  23
TORSDOF 6
ENDMDL
MODEL 8
REMARK VINA RESULT:      -7.2     19.676     22.304
REMARK  6 active torsions:
REMARK  status: ('A' for Active; 'I' for Inactive)
REMARK    1  A    between atoms: C_2  and  N_3 
REMARK    2  A    between atoms: C_7  and  N_8 
REMARK       I    between atoms: N_8  and  C_9 
REMARK       I    between atoms: C_9  and  N_10 
REMARK    3  A    between atoms: N_10  and  C_11 
REMARK    4  A    between atoms: C_11  and  C_12 
REMARK    5  A    between atoms: C_15  and  N_16 
REMARK       I    between atoms: N_16  and  C_17 
REMARK    6  A    between atoms: C_17  and  C_18 
ROOT
HETATM    1  N   UNL     1      44.849 -30.348  -5.515  1.00  0.00    -0.338 N 
HETATM    2  C   UNL     1      44.438 -29.441  -4.564  1.00  0.00     0.316 C 
HETATM    3  N   UNL     1      45.433 -28.542  -4.288  1.00  0.00    -0.339 N 
HETATM    4  O   UNL     1      43.367 -29.490  -3.983  1.00  0.00    -0.247 OA
HETATM    5  H   UNL     1      45.372 -29.873  -6.242  1.00  0.00     0.164 HD
HETATM    6  H   UNL     1      46.360 -28.745  -4.627  1.00  0.00     0.164 HD
ENDROOT
BRANCH   3   7
HETATM    7  C   UNL     1      45.348 -27.688  -3.119  1.00  0.00     0.162 C 
BRANCH   7   8
HETATM    8  C   UNL     1      46.297 -28.091  -2.009  1.00  0.00    -0.040 A 
HETATM    9  C   UNL     1      47.598 -28.555  -2.252  1.00  0.00     0.011 A 
HETATM   10  C   UNL     1      48.417 -28.986  -1.202  1.00  0.00     0.030 A 
HETATM   11  C   UNL     1      47.964 -28.935   0.115  1.00  0.00     0.035 A 
HETATM   12  C   UNL     1      46.700 -28.398   0.372  1.00  0.00     0.030 A 
HETATM   13  C   UNL     1      45.872 -27.986  -0.678  1.00  0.00     0.011 A 
BRANCH  11  14
HETATM   14  N   UNL     1      48.701 -29.405   1.214  1.00  0.00    -0.321 N 
HETATM   15  C   UNL     1      48.888 -30.715   1.623  1.00  0.00     0.279 C 
HETATM   16  O   UNL     1      48.430 -31.705   1.059  1.00  0.00    -0.265 OA
HETATM   17  H   UNL     1      49.085 -28.709   1.848  1.00  0.00     0.169 HD
BRANCH  15  18
HETATM   18  C   UNL     1      49.662 -30.807   2.849  1.00  0.00     0.142 A 
HETATM   19  O   UNL     1      49.138 -31.483   3.923  1.00  0.00    -0.317 OA
HETATM   20  C   UNL     1      50.060 -31.431   4.918  1.00  0.00     0.143 A 
HETATM   21  C   UNL     1      51.173 -30.737   4.509  1.00  0.00     0.027 A 
HETATM   22  C   UNL     1      50.917 -30.332   3.177  1.00  0.00     0.045 A 
ENDBRANCH  15  18
ENDBRANCH  11  14
ENDBRANCH   7   8
ENDBRANCH   3   7
BRANCH   1  23
HETATM   23  C   UNL     1      44.009 -31.457  -5.980  1.00  0.00     0.089 C 
HETATM   24  C   UNL     1      44.381 -32.846  -5.454  1.00  0.00     0.053 C 
HETATM   25  C   UNL     1      45.782 -33.252  -5.873  1.00  0.00     0.237 C 
HETATM   26  N   UNL     1      45.886 -33.277  -7.398  1.00  0.00    -0.067 N 
HETATM   27  H   UNL     1      45.228 -33.993  -7.733  1.00  0.00     0.280 HD
HETATM   28  C   UNL     1      45.461 -31.944  -7.992  1.00  0.00     0.237 C 
HETATM   29  C   UNL     1      44.077 -31.521  -7.506  1.00  0.00     0.053 C 
BRANCH  26  30
HETATM   30  C   UNL     1      47.292 -33.713  -7.865  1.00  0.00     0.180 C 
HETATM   31  C   UNL     1      48.255 -32.523  -7.836  1.00  0.00     0.039 C 
HETATM   32  C   UNL     1      47.229 -34.266  -9.291  1.00  0.00     0.039 C 
ENDBRANCH  26  30
ENDBRANCH   1  23
TORSDOF 6
ENDMDL
MODEL 9
REMARK VINA RESULT:      -7.1     19.224     21.204
REMARK  6 active torsions:
REMARK  status: ('A' for Active; 'I' for Inactive)
REMARK    1  A    between atoms: C_2  and  N_3 
REMARK    2  A    between atoms: C_7  and  N_8 
REMARK       I    between atoms: N_8  and  C_9 
REMARK       I    between atoms: C_9  and  N_10 
REMARK    3  A    between atoms: N_10  and  C_11 
REMARK    4  A    between atoms: C_11  and  C_12 
REMARK    5  A    between atoms: C_15  and  N_16 
REMARK       I    between atoms: N_16  and  C_17 
REMARK    6  A    between atoms: C_17  and  C_18 
ROOT
HETATM    1  N   UNL     1      46.456 -29.147   0.419  1.00  0.00    -0.338 N 
HETATM    2  C   UNL     1      46.886 -28.984   1.717  1.00  0.00     0.316 C 
HETATM    3  N   UNL     1      46.938 -30.187   2.367  1.00  0.00    -0.339 N 
HETATM    4  O   UNL     1      47.101 -27.903   2.240  1.00  0.00    -0.247 OA
HETATM    5  H   UNL     1      46.890 -29.968   0.013  1.00  0.00     0.164 HD
HETATM    6  H   UNL     1      46.494 -30.980   1.930  1.00  0.00     0.164 HD
ENDROOT
BRANCH   3   7
HETATM    7  C   UNL     1      47.068 -30.238   3.811  1.00  0.00     0.162 C 
BRANCH   7   8
HETATM    8  C   UNL     1      48.455 -30.634   4.276  1.00  0.00    -0.040 A 
HETATM    9  C   UNL     1      48.711 -31.823   4.974  1.00  0.00     0.011 A 
HETATM   10  C   UNL     1      49.994 -32.117   5.449  1.00  0.00     0.030 A 
HETATM   11  C   UNL     1      51.054 -31.243   5.212  1.00  0.00     0.035 A 
HETATM   12  C   UNL     1      50.822 -30.096   4.447  1.00  0.00     0.030 A 
HETATM   13  C   UNL     1      49.535 -29.791   3.989  1.00  0.00     0.011 A 
BRANCH  11  14
HETATM   14  N   UNL     1      52.354 -31.436   5.707  1.00  0.00    -0.321 N 
HETATM   15  C   UNL     1      52.734 -31.962   6.931  1.00  0.00     0.279 C 
HETATM   16  O   UNL     1      51.964 -32.365   7.799  1.00  0.00    -0.265 OA
HETATM   17  H   UNL     1      53.122 -31.078   5.148  1.00  0.00     0.169 HD
BRANCH  15  18
HETATM   18  C   UNL     1      54.175 -31.946   7.116  1.00  0.00     0.142 A 
HETATM   19  O   UNL     1      54.973 -31.453   6.113  1.00  0.00    -0.317 OA
HETATM   20  C   UNL     1      56.258 -31.538   6.544  1.00  0.00     0.143 A 
HETATM   21  C   UNL     1      56.307 -32.073   7.809  1.00  0.00     0.027 A 
HETATM   22  C   UNL     1      54.966 -32.339   8.178  1.00  0.00     0.045 A 
ENDBRANCH  15  18
ENDBRANCH  11  14
ENDBRANCH   7   8
ENDBRANCH   3   7
BRANCH   1  23
HETATM   23  C   UNL     1      46.260 -28.027  -0.508  1.00  0.00     0.089 C 
HETATM   24  C   UNL     1      44.905 -27.972  -1.217  1.00  0.00     0.053 C 
HETATM   25  C   UNL     1      44.668 -29.199  -2.077  1.00  0.00     0.237 C 
HETATM   26  N   UNL     1      45.758 -29.310  -3.143  1.00  0.00    -0.067 N 
HETATM   27  H   UNL     1      45.681 -28.477  -3.740  1.00  0.00     0.280 HD
HETATM   28  C   UNL     1      47.138 -29.299  -2.508  1.00  0.00     0.237 C 
HETATM   29  C   UNL     1      47.334 -28.092  -1.594  1.00  0.00     0.053 C 
BRANCH  26  30
HETATM   30  C   UNL     1      45.535 -30.534  -4.058  1.00  0.00     0.180 C 
HETATM   31  C   UNL     1      44.447 -30.235  -5.092  1.00  0.00     0.039 C 
HETATM   32  C   UNL     1      45.108 -31.746  -3.226  1.00  0.00     0.039 C 
ENDBRANCH  26  30
ENDBRANCH   1  23
TORSDOF 6
ENDMDL
MODEL 10
REMARK VINA RESULT:      -7.0      3.619     10.710
REMARK  6 active torsions:
REMARK  status: ('A' for Active; 'I' for Inactive)
REMARK    1  A    between atoms: C_2  and  N_3 
REMARK    2  A    between atoms: C_7  and  N_8 
REMARK       I    between atoms: N_8  and  C_9 
REMARK       I    between atoms: C_9  and  N_10 
REMARK    3  A    between atoms: N_10  and  C_11 
REMARK    4  A    between atoms: C_11  and  C_12 
REMARK    5  A    between atoms: C_15  and  N_16 
REMARK       I    between atoms: N_16  and  C_17 
REMARK    6  A    between atoms: C_17  and  C_18 
ROOT
HETATM    1  N   UNL     1      43.428  -9.702   9.772  1.00  0.00    -0.338 N 
HETATM    2  C   UNL     1      44.119 -10.110   8.653  1.00  0.00     0.316 C 
HETATM    3  N   UNL     1      43.609 -11.284   8.168  1.00  0.00    -0.339 N 
HETATM    4  O   UNL     1      45.108  -9.548   8.212  1.00  0.00    -0.247 OA
HETATM    5  H   UNL     1      42.435  -9.851   9.637  1.00  0.00     0.164 HD
HETATM    6  H   UNL     1      42.968 -11.798   8.751  1.00  0.00     0.164 HD
ENDROOT
BRANCH   3   7
HETATM    7  C   UNL     1      44.350 -12.059   7.190  1.00  0.00     0.162 C 
BRANCH   7   8
HETATM    8  C   UNL     1      43.536 -12.414   5.962  1.00  0.00    -0.040 A 
HETATM    9  C   UNL     1      43.230 -13.737   5.610  1.00  0.00     0.011 A 
HETATM   10  C   UNL     1      42.538 -14.025   4.429  1.00  0.00     0.030 A 
HETATM   11  C   UNL     1      42.109 -12.997   3.590  1.00  0.00     0.035 A 
HETATM   12  C   UNL     1      42.339 -11.674   3.977  1.00  0.00     0.030 A 
HETATM   13  C   UNL     1      43.049 -11.384   5.147  1.00  0.00     0.011 A 
BRANCH  11  14
HETATM   14  N   UNL     1      41.464 -13.208   2.361  1.00  0.00    -0.321 N 
HETATM   15  C   UNL     1      40.105 -13.311   2.114  1.00  0.00     0.279 C 
HETATM   16  O   UNL     1      39.222 -13.217   2.962  1.00  0.00    -0.265 OA
HETATM   17  H   UNL     1      42.052 -13.392   1.553  1.00  0.00     0.169 HD
BRANCH  15  18
HETATM   18  C   UNL     1      39.817 -13.596   0.718  1.00  0.00     0.142 A 
HETATM   19  O   UNL     1      39.283 -12.606  -0.070  1.00  0.00    -0.317 OA
HETATM   20  C   UNL     1      39.129 -13.126  -1.316  1.00  0.00     0.143 A 
HETATM   21  C   UNL     1      39.556 -14.432  -1.349  1.00  0.00     0.027 A 
HETATM   22  C   UNL     1      39.998 -14.737  -0.039  1.00  0.00     0.045 A 
ENDBRANCH  15  18
ENDBRANCH  11  14
ENDBRANCH   7   8
ENDBRANCH   3   7
BRANCH   1  23
HETATM   23  C   UNL     1      43.777  -8.499  10.535  1.00  0.00     0.089 C 
HETATM   24  C   UNL     1      43.644  -8.607  12.056  1.00  0.00     0.053 C 
HETATM   25  C   UNL     1      42.218  -8.903  12.479  1.00  0.00     0.237 C 
HETATM   26  N   UNL     1      41.287  -7.790  11.999  1.00  0.00    -0.067 N 
HETATM   27  H   UNL     1      41.589  -6.924  12.464  1.00  0.00     0.280 HD
HETATM   28  C   UNL     1      41.421  -7.581  10.500  1.00  0.00     0.237 C 
HETATM   29  C   UNL     1      42.873  -7.351  10.086  1.00  0.00     0.053 C 
BRANCH  26  30
HETATM   30  C   UNL     1      39.827  -8.042  12.435  1.00  0.00     0.180 C 
HETATM   31  C   UNL     1      39.616  -9.524  12.756  1.00  0.00     0.039 C 
HETATM   32  C   UNL     1      38.864  -7.635  11.317  1.00  0.00     0.039 C 
ENDBRANCH  26  30
ENDBRANCH   1  23
TORSDOF 6
ENDMDL
