MODEL 1
REMARK VINA RESULT:      -9.6      0.000      0.000
REMARK  7 active torsions:
REMARK  status: ('A' for Active; 'I' for Inactive)
REMARK    1  A    between atoms: C_2  and  C_3 
REMARK    2  A    between atoms: C_3  and  C_4 
REMARK    3  A    between atoms: C_7  and  C_8 
REMARK    4  A    between atoms: C_14  and  C_15 
REMARK    5  A    between atoms: C_18  and  O_19 
REMARK    6  A    between atoms: O_19  and  C_20 
REMARK       I    between atoms: C_20  and  N_21 
REMARK    7  A    between atoms: C_33  and  N_34 
ROOT
HETATM    1  C   UNL     1      40.422 -14.668   0.164  1.00  0.00     0.099 A 
HETATM    2  N   UNL     1      39.405 -15.347  -0.401  1.00  0.00    -0.172 NA
HETATM    3  N   UNL     1      38.794 -14.453  -1.201  1.00  0.00    -0.256 N 
HETATM    4  H   UNL     1      37.988 -14.750  -1.740  1.00  0.00     0.191 HD
HETATM    5  C   UNL     1      39.367 -13.226  -1.152  1.00  0.00     0.175 A 
HETATM    6  C   UNL     1      40.428 -13.317  -0.287  1.00  0.00     0.040 A 
HETATM    7  C   UNL     1      41.248 -12.104   0.002  1.00  0.00     0.105 A 
HETATM    8  C   UNL     1      40.777 -10.931  -0.850  1.00  0.00     0.067 A 
HETATM    9  C   UNL     1      41.678  -9.706  -0.846  1.00  0.00     0.020 C 
HETATM   10  N   UNL     1      42.424  -8.690  -0.843  1.00  0.00    -0.096 N 
HETATM   11  C   UNL     1      39.706 -10.989  -1.686  1.00  0.00     0.139 A 
HETATM   12  O   UNL     1      38.937 -12.160  -1.819  1.00  0.00    -0.279 OA
ENDROOT
BRANCH   7  13
HETATM   13  C   UNL     1      41.131 -11.856   1.500  1.00  0.00    -0.044 A 
HETATM   14  C   UNL     1      42.295 -11.593   2.243  1.00  0.00     0.011 A 
HETATM   15  C   UNL     1      42.245 -11.490   3.633  1.00  0.00     0.038 A 
HETATM   16  C   UNL     1      41.027 -11.633   4.293  1.00  0.00     0.081 A 
HETATM   17  C   UNL     1      39.852 -11.838   3.578  1.00  0.00     0.038 A 
HETATM   18  C   UNL     1      39.902 -11.925   2.185  1.00  0.00     0.011 A 
BRANCH  16  19
HETATM   19  O   UNL     1      41.102 -11.715   5.700  1.00  0.00    -0.261 OA
BRANCH  19  20
HETATM   20  C   UNL     1      42.215 -12.196   6.386  1.00  0.00     0.368 C 
HETATM   21  N   UNL     1      42.206 -13.576   6.487  1.00  0.00    -0.324 N 
HETATM   22  C   UNL     1      43.351 -14.274   7.063  1.00  0.00     0.154 C 
HETATM   23  C   UNL     1      41.226 -14.436   5.822  1.00  0.00     0.154 C 
HETATM   24  C   UNL     1      42.898 -15.478   7.892  1.00  0.00     0.187 C 
HETATM   25  O   UNL     1      42.041 -16.341   7.126  1.00  0.00    -0.388 OA
HETATM   26  C   UNL     1      40.865 -15.636   6.703  1.00  0.00     0.187 C 
HETATM   27  O   UNL     1      43.097 -11.487   6.858  1.00  0.00    -0.238 OA
ENDBRANCH  19  20
ENDBRANCH  16  19
ENDBRANCH   7  13
BRANCH  11  28
HETATM   28  N   UNL     1      39.268  -9.965  -2.493  1.00  0.00    -0.282 NA
HETATM   29  H   UNL     1      38.410 -10.150  -3.007  1.00  0.00     0.126 HD
HETATM   30  H   UNL     1      40.011  -9.600  -3.084  1.00  0.00     0.126 HD
ENDBRANCH  11  28
BRANCH   1  31
HETATM   31  C   UNL     1      41.299 -15.302   1.148  1.00  0.00    -0.005 A 
HETATM   32  C   UNL     1      42.687 -15.139   1.097  1.00  0.00     0.014 A 
HETATM   33  C   UNL     1      43.502 -15.682   2.097  1.00  0.00     0.008 A 
HETATM   34  C   UNL     1      42.947 -16.414   3.155  1.00  0.00    -0.058 A 
HETATM   35  C   UNL     1      41.564 -16.619   3.177  1.00  0.00     0.008 A 
HETATM   36  C   UNL     1      40.748 -16.064   2.186  1.00  0.00     0.014 A 
BRANCH  34  37
HETATM   37  C   UNL     1      43.836 -16.975   4.241  1.00  0.00     0.042 C 
BRANCH  37  38
HETATM   38  C   UNL     1      44.269 -18.450   4.084  1.00  0.00    -0.019 C 
HETATM   39  C   UNL     1      43.780 -19.083   2.781  1.00  0.00     0.010 C 
HETATM   40  C   UNL     1      43.874 -19.321   5.277  1.00  0.00     0.010 C 
ENDBRANCH  37  38
ENDBRANCH  34  37
ENDBRANCH   1  31
TORSDOF 7
ENDMDL
MODEL 2
REMARK VINA RESULT:      -9.4      1.797      2.877
REMARK  7 active torsions:
REMARK  status: ('A' for Active; 'I' for Inactive)
REMARK    1  A    between atoms: C_2  and  C_3 
REMARK    2  A    between atoms: C_3  and  C_4 
REMARK    3  A    between atoms: C_7  and  C_8 
REMARK    4  A    between atoms: C_14  and  C_15 
REMARK    5  A    between atoms: C_18  and  O_19 
REMARK    6  A    between atoms: O_19  and  C_20 
REMARK       I    between atoms: C_20  and  N_21 
REMARK    7  A    between atoms: C_33  and  N_34 
ROOT
HETATM    1  C   UNL     1      40.362 -14.668   0.232  1.00  0.00     0.099 A 
HETATM    2  N   UNL     1      39.432 -15.384  -0.431  1.00  0.00    -0.172 NA
HETATM    3  N   UNL     1      38.844 -14.501  -1.260  1.00  0.00    -0.256 N 
HETATM    4  H   UNL     1      38.101 -14.825  -1.871  1.00  0.00     0.191 HD
HETATM    5  C   UNL     1      39.346 -13.249  -1.139  1.00  0.00     0.175 A 
HETATM    6  C   UNL     1      40.335 -13.308  -0.190  1.00  0.00     0.040 A 
HETATM    7  C   UNL     1      41.064 -12.063   0.192  1.00  0.00     0.105 A 
HETATM    8  C   UNL     1      40.605 -10.894  -0.673  1.00  0.00     0.067 A 
HETATM    9  C   UNL     1      41.438  -9.626  -0.568  1.00  0.00     0.020 C 
HETATM   10  N   UNL     1      42.127  -8.574  -0.482  1.00  0.00    -0.096 N 
HETATM   11  C   UNL     1      39.612 -10.985  -1.597  1.00  0.00     0.139 A 
HETATM   12  O   UNL     1      38.918 -12.189  -1.818  1.00  0.00    -0.279 OA
ENDROOT
BRANCH   7  13
HETATM   13  C   UNL     1      40.811 -11.858   1.679  1.00  0.00    -0.044 A 
HETATM   14  C   UNL     1      41.884 -11.984   2.580  1.00  0.00     0.011 A 
HETATM   15  C   UNL     1      41.667 -11.933   3.957  1.00  0.00     0.038 A 
HETATM   16  C   UNL     1      40.378 -11.739   4.447  1.00  0.00     0.081 A 
HETATM   17  C   UNL     1      39.308 -11.554   3.577  1.00  0.00     0.038 A 
HETATM   18  C   UNL     1      39.530 -11.591   2.199  1.00  0.00     0.011 A 
BRANCH  16  19
HETATM   19  O   UNL     1      40.225 -11.901   5.840  1.00  0.00    -0.261 OA
BRANCH  19  20
HETATM   20  C   UNL     1      39.439 -11.067   6.632  1.00  0.00     0.368 C 
HETATM   21  N   UNL     1      40.193 -10.100   7.274  1.00  0.00    -0.324 N 
HETATM   22  C   UNL     1      39.533  -9.056   8.050  1.00  0.00     0.154 C 
HETATM   23  C   UNL     1      41.620  -9.885   7.031  1.00  0.00     0.154 C 
HETATM   24  C   UNL     1      40.344  -8.708   9.302  1.00  0.00     0.187 C 
HETATM   25  O   UNL     1      41.703  -8.384   8.965  1.00  0.00    -0.388 OA
HETATM   26  C   UNL     1      42.343  -9.499   8.326  1.00  0.00     0.187 C 
HETATM   27  O   UNL     1      38.225 -11.175   6.760  1.00  0.00    -0.238 OA
ENDBRANCH  19  20
ENDBRANCH  16  19
ENDBRANCH   7  13
BRANCH  11  28
HETATM   28  N   UNL     1      39.189  -9.965  -2.416  1.00  0.00    -0.282 NA
HETATM   29  H   UNL     1      38.334  -9.496  -2.126  1.00  0.00     0.126 HD
HETATM   30  H   UNL     1      39.172 -10.244  -3.395  1.00  0.00     0.126 HD
ENDBRANCH  11  28
BRANCH   1  31
HETATM   31  C   UNL     1      41.187 -15.282   1.273  1.00  0.00    -0.005 A 
HETATM   32  C   UNL     1      40.616 -15.825   2.427  1.00  0.00     0.014 A 
HETATM   33  C   UNL     1      41.412 -16.485   3.370  1.00  0.00     0.008 A 
HETATM   34  C   UNL     1      42.797 -16.598   3.184  1.00  0.00    -0.058 A 
HETATM   35  C   UNL     1      43.373 -16.010   2.055  1.00  0.00     0.008 A 
HETATM   36  C   UNL     1      42.575 -15.363   1.106  1.00  0.00     0.014 A 
BRANCH  34  37
HETATM   37  C   UNL     1      43.643 -17.334   4.198  1.00  0.00     0.042 C 
BRANCH  37  38
HETATM   38  C   UNL     1      44.204 -18.706   3.762  1.00  0.00    -0.019 C 
HETATM   39  C   UNL     1      43.495 -19.281   2.536  1.00  0.00     0.010 C 
HETATM   40  C   UNL     1      44.221 -19.734   4.895  1.00  0.00     0.010 C 
ENDBRANCH  37  38
ENDBRANCH  34  37
ENDBRANCH   1  31
TORSDOF 7
ENDMDL
MODEL 3
REMARK VINA RESULT:      -9.0      3.221      7.095
REMARK  7 active torsions:
REMARK  status: ('A' for Active; 'I' for Inactive)
REMARK    1  A    between atoms: C_2  and  C_3 
REMARK    2  A    between atoms: C_3  and  C_4 
REMARK    3  A    between atoms: C_7  and  C_8 
REMARK    4  A    between atoms: C_14  and  C_15 
REMARK    5  A    between atoms: C_18  and  O_19 
REMARK    6  A    between atoms: O_19  and  C_20 
REMARK       I    between atoms: C_20  and  N_21 
REMARK    7  A    between atoms: C_33  and  N_34 
ROOT
HETATM    1  C   UNL     1      44.577 -11.527   6.804  1.00  0.00     0.099 A 
HETATM    2  N   UNL     1      45.901 -11.296   6.704  1.00  0.00    -0.172 NA
HETATM    3  N   UNL     1      46.084 -10.088   7.270  1.00  0.00    -0.256 N 
HETATM    4  H   UNL     1      47.022  -9.705   7.312  1.00  0.00     0.191 HD
HETATM    5  C   UNL     1      44.929  -9.531   7.707  1.00  0.00     0.175 A 
HETATM    6  C   UNL     1      43.927 -10.427   7.433  1.00  0.00     0.040 A 
HETATM    7  C   UNL     1      42.515 -10.081   7.773  1.00  0.00     0.105 A 
HETATM    8  C   UNL     1      42.459  -8.741   8.498  1.00  0.00     0.067 A 
HETATM    9  C   UNL     1      41.121  -8.383   9.125  1.00  0.00     0.020 C 
HETATM   10  N   UNL     1      40.012  -8.085   9.646  1.00  0.00    -0.096 N 
HETATM   11  C   UNL     1      43.548  -7.956   8.716  1.00  0.00     0.139 A 
HETATM   12  O   UNL     1      44.829  -8.332   8.271  1.00  0.00    -0.279 OA
ENDROOT
BRANCH   7  13
HETATM   13  C   UNL     1      41.743 -10.098   6.461  1.00  0.00    -0.044 A 
HETATM   14  C   UNL     1      40.710 -11.037   6.287  1.00  0.00     0.011 A 
HETATM   15  C   UNL     1      40.069 -11.170   5.056  1.00  0.00     0.038 A 
HETATM   16  C   UNL     1      40.442 -10.354   3.990  1.00  0.00     0.081 A 
HETATM   17  C   UNL     1      41.421  -9.380   4.151  1.00  0.00     0.038 A 
HETATM   18  C   UNL     1      42.051  -9.238   5.390  1.00  0.00     0.011 A 
BRANCH  16  19
HETATM   19  O   UNL     1      39.885 -10.694   2.739  1.00  0.00    -0.261 OA
BRANCH  19  20
HETATM   20  C   UNL     1      40.619 -11.251   1.694  1.00  0.00     0.368 C 
HETATM   21  N   UNL     1      40.371 -12.605   1.550  1.00  0.00    -0.324 N 
HETATM   22  C   UNL     1      40.952 -13.338   0.431  1.00  0.00     0.154 C 
HETATM   23  C   UNL     1      39.348 -13.331   2.304  1.00  0.00     0.154 C 
HETATM   24  C   UNL     1      41.361 -14.751   0.855  1.00  0.00     0.187 C 
HETATM   25  O   UNL     1      40.264 -15.444   1.473  1.00  0.00    -0.388 OA
HETATM   26  C   UNL     1      39.824 -14.746   2.647  1.00  0.00     0.187 C 
HETATM   27  O   UNL     1      41.403 -10.626   0.988  1.00  0.00    -0.238 OA
ENDBRANCH  19  20
ENDBRANCH  16  19
ENDBRANCH   7  13
BRANCH  11  28
HETATM   28  N   UNL     1      43.545  -6.758   9.390  1.00  0.00    -0.282 NA
HETATM   29  H   UNL     1      43.783  -5.941   8.832  1.00  0.00     0.126 HD
HETATM   30  H   UNL     1      44.072  -6.807  10.259  1.00  0.00     0.126 HD
ENDBRANCH  11  28
BRANCH   1  31
HETATM   31  C   UNL     1      43.978 -12.741   6.247  1.00  0.00    -0.005 A 
HETATM   32  C   UNL     1      43.560 -12.800   4.914  1.00  0.00     0.014 A 
HETATM   33  C   UNL     1      43.071 -13.996   4.377  1.00  0.00     0.008 A 
HETATM   34  C   UNL     1      42.973 -15.150   5.166  1.00  0.00    -0.058 A 
HETATM   35  C   UNL     1      43.344 -15.075   6.513  1.00  0.00     0.008 A 
HETATM   36  C   UNL     1      43.847 -13.884   7.046  1.00  0.00     0.014 A 
BRANCH  34  37
HETATM   37  C   UNL     1      42.465 -16.441   4.568  1.00  0.00     0.042 C 
BRANCH  37  38
HETATM   38  C   UNL     1      43.463 -17.238   3.697  1.00  0.00    -0.019 C 
HETATM   39  C   UNL     1      42.823 -17.828   2.440  1.00  0.00     0.010 C 
HETATM   40  C   UNL     1      44.202 -18.327   4.477  1.00  0.00     0.010 C 
ENDBRANCH  37  38
ENDBRANCH  34  37
ENDBRANCH   1  31
TORSDOF 7
ENDMDL
MODEL 4
REMARK VINA RESULT:      -8.9      2.108      3.359
REMARK  7 active torsions:
REMARK  status: ('A' for Active; 'I' for Inactive)
REMARK    1  A    between atoms: C_2  and  C_3 
REMARK    2  A    between atoms: C_3  and  C_4 
REMARK    3  A    between atoms: C_7  and  C_8 
REMARK    4  A    between atoms: C_14  and  C_15 
REMARK    5  A    between atoms: C_18  and  O_19 
REMARK    6  A    between atoms: O_19  and  C_20 
REMARK       I    between atoms: C_20  and  N_21 
REMARK    7  A    between atoms: C_33  and  N_34 
ROOT
HETATM    1  C   UNL     1      40.128 -14.723   0.078  1.00  0.00     0.099 A 
HETATM    2  N   UNL     1      39.363 -15.537  -0.677  1.00  0.00    -0.172 NA
HETATM    3  N   UNL     1      38.980 -14.779  -1.722  1.00  0.00    -0.256 N 
HETATM    4  H   UNL     1      38.390 -15.193  -2.435  1.00  0.00     0.191 HD
HETATM    5  C   UNL     1      39.452 -13.511  -1.654  1.00  0.00     0.175 A 
HETATM    6  C   UNL     1      40.205 -13.429  -0.510  1.00  0.00     0.040 A 
HETATM    7  C   UNL     1      40.841 -12.130  -0.139  1.00  0.00     0.105 A 
HETATM    8  C   UNL     1      40.594 -11.090  -1.226  1.00  0.00     0.067 A 
HETATM    9  C   UNL     1      41.391  -9.801  -1.103  1.00  0.00     0.020 C 
HETATM   10  N   UNL     1      42.052  -8.732  -1.002  1.00  0.00    -0.096 N 
HETATM   11  C   UNL     1      39.829 -11.318  -2.327  1.00  0.00     0.139 A 
HETATM   12  O   UNL     1      39.193 -12.555  -2.540  1.00  0.00    -0.279 OA
ENDROOT
BRANCH   7  13
HETATM   13  C   UNL     1      40.265 -11.744   1.217  1.00  0.00    -0.044 A 
HETATM   14  C   UNL     1      38.899 -11.425   1.314  1.00  0.00     0.011 A 
HETATM   15  C   UNL     1      38.364 -10.942   2.509  1.00  0.00     0.038 A 
HETATM   16  C   UNL     1      39.186 -10.789   3.623  1.00  0.00     0.081 A 
HETATM   17  C   UNL     1      40.528 -11.151   3.569  1.00  0.00     0.038 A 
HETATM   18  C   UNL     1      41.058 -11.649   2.376  1.00  0.00     0.011 A 
BRANCH  16  19
HETATM   19  O   UNL     1      38.610 -10.111   4.717  1.00  0.00    -0.261 OA
BRANCH  19  20
HETATM   20  C   UNL     1      38.843 -10.455   6.047  1.00  0.00     0.368 C 
HETATM   21  N   UNL     1      39.560  -9.479   6.717  1.00  0.00    -0.324 N 
HETATM   22  C   UNL     1      39.795  -9.602   8.152  1.00  0.00     0.154 C 
HETATM   23  C   UNL     1      39.899  -8.177   6.142  1.00  0.00     0.154 C 
HETATM   24  C   UNL     1      41.187  -9.087   8.525  1.00  0.00     0.187 C 
HETATM   25  O   UNL     1      41.396  -7.753   8.033  1.00  0.00    -0.388 OA
HETATM   26  C   UNL     1      41.288  -7.722   6.602  1.00  0.00     0.187 C 
HETATM   27  O   UNL     1      38.471 -11.501   6.567  1.00  0.00    -0.238 OA
ENDBRANCH  19  20
ENDBRANCH  16  19
ENDBRANCH   7  13
BRANCH  11  28
HETATM   28  N   UNL     1      39.606 -10.419  -3.344  1.00  0.00    -0.282 NA
HETATM   29  H   UNL     1      40.438  -9.977  -3.727  1.00  0.00     0.126 HD
HETATM   30  H   UNL     1      38.878  -9.749  -3.107  1.00  0.00     0.126 HD
ENDBRANCH  11  28
BRANCH   1  31
HETATM   31  C   UNL     1      40.697 -15.183   1.345  1.00  0.00    -0.005 A 
HETATM   32  C   UNL     1      39.884 -15.466   2.447  1.00  0.00     0.014 A 
HETATM   33  C   UNL     1      40.438 -15.987   3.622  1.00  0.00     0.008 A 
HETATM   34  C   UNL     1      41.816 -16.219   3.723  1.00  0.00    -0.058 A 
HETATM   35  C   UNL     1      42.634 -15.887   2.638  1.00  0.00     0.008 A 
HETATM   36  C   UNL     1      42.079 -15.380   1.459  1.00  0.00     0.014 A 
BRANCH  34  37
HETATM   37  C   UNL     1      42.399 -16.804   4.989  1.00  0.00     0.042 C 
BRANCH  37  38
HETATM   38  C   UNL     1      43.928 -17.024   5.007  1.00  0.00    -0.019 C 
HETATM   39  C   UNL     1      44.327 -18.481   4.767  1.00  0.00     0.010 C 
HETATM   40  C   UNL     1      44.595 -16.495   6.278  1.00  0.00     0.010 C 
ENDBRANCH  37  38
ENDBRANCH  34  37
ENDBRANCH   1  31
TORSDOF 7
ENDMDL
MODEL 5
REMARK VINA RESULT:      -8.6      3.112      7.501
REMARK  7 active torsions:
REMARK  status: ('A' for Active; 'I' for Inactive)
REMARK    1  A    between atoms: C_2  and  C_3 
REMARK    2  A    between atoms: C_3  and  C_4 
REMARK    3  A    between atoms: C_7  and  C_8 
REMARK    4  A    between atoms: C_14  and  C_15 
REMARK    5  A    between atoms: C_18  and  O_19 
REMARK    6  A    between atoms: O_19  and  C_20 
REMARK       I    between atoms: C_20  and  N_21 
REMARK    7  A    between atoms: C_33  and  N_34 
ROOT
HETATM    1  C   UNL     1      44.508 -11.546   6.781  1.00  0.00     0.099 A 
HETATM    2  N   UNL     1      45.832 -11.326   6.652  1.00  0.00    -0.172 NA
HETATM    3  N   UNL     1      46.037 -10.120   7.215  1.00  0.00    -0.256 N 
HETATM    4  H   UNL     1      46.979  -9.745   7.237  1.00  0.00     0.191 HD
HETATM    5  C   UNL     1      44.897  -9.554   7.678  1.00  0.00     0.175 A 
HETATM    6  C   UNL     1      43.882 -10.441   7.425  1.00  0.00     0.040 A 
HETATM    7  C   UNL     1      42.481 -10.083   7.797  1.00  0.00     0.105 A 
HETATM    8  C   UNL     1      42.452  -8.744   8.524  1.00  0.00     0.067 A 
HETATM    9  C   UNL     1      41.131  -8.376   9.181  1.00  0.00     0.020 C 
HETATM   10  N   UNL     1      40.037  -8.069   9.726  1.00  0.00    -0.096 N 
HETATM   11  C   UNL     1      43.552  -7.969   8.720  1.00  0.00     0.139 A 
HETATM   12  O   UNL     1      44.820  -8.355   8.246  1.00  0.00    -0.279 OA
ENDROOT
BRANCH   7  13
HETATM   13  C   UNL     1      41.680 -10.092   6.502  1.00  0.00    -0.044 A 
HETATM   14  C   UNL     1      40.526 -10.892   6.417  1.00  0.00     0.011 A 
HETATM   15  C   UNL     1      39.841 -11.027   5.209  1.00  0.00     0.038 A 
HETATM   16  C   UNL     1      40.293 -10.351   4.078  1.00  0.00     0.081 A 
HETATM   17  C   UNL     1      41.398  -9.509   4.149  1.00  0.00     0.038 A 
HETATM   18  C   UNL     1      42.073  -9.364   5.363  1.00  0.00     0.011 A 
BRANCH  16  19
HETATM   19  O   UNL     1      39.664 -10.703   2.866  1.00  0.00    -0.261 OA
BRANCH  19  20
HETATM   20  C   UNL     1      39.775 -11.960   2.276  1.00  0.00     0.368 C 
HETATM   21  N   UNL     1      40.419 -11.905   1.053  1.00  0.00    -0.324 N 
HETATM   22  C   UNL     1      40.741 -13.137   0.340  1.00  0.00     0.154 C 
HETATM   23  C   UNL     1      41.044 -10.695   0.515  1.00  0.00     0.154 C 
HETATM   24  C   UNL     1      40.574 -12.955  -1.171  1.00  0.00     0.187 C 
HETATM   25  O   UNL     1      41.321 -11.821  -1.642  1.00  0.00    -0.388 OA
HETATM   26  C   UNL     1      40.866 -10.618  -1.004  1.00  0.00     0.187 C 
HETATM   27  O   UNL     1      39.345 -12.997   2.770  1.00  0.00    -0.238 OA
ENDBRANCH  19  20
ENDBRANCH  16  19
ENDBRANCH   7  13
BRANCH  11  28
HETATM   28  N   UNL     1      43.574  -6.771   9.395  1.00  0.00    -0.282 NA
HETATM   29  H   UNL     1      42.672  -6.442   9.731  1.00  0.00     0.126 HD
HETATM   30  H   UNL     1      44.090  -6.056   8.888  1.00  0.00     0.126 HD
ENDBRANCH  11  28
BRANCH   1  31
HETATM   31  C   UNL     1      43.888 -12.754   6.236  1.00  0.00    -0.005 A 
HETATM   32  C   UNL     1      43.347 -12.775   4.946  1.00  0.00     0.014 A 
HETATM   33  C   UNL     1      42.837 -13.963   4.411  1.00  0.00     0.008 A 
HETATM   34  C   UNL     1      42.840 -15.147   5.161  1.00  0.00    -0.058 A 
HETATM   35  C   UNL     1      43.334 -15.112   6.469  1.00  0.00     0.008 A 
HETATM   36  C   UNL     1      43.857 -13.928   6.998  1.00  0.00     0.014 A 
BRANCH  34  37
HETATM   37  C   UNL     1      42.307 -16.429   4.563  1.00  0.00     0.042 C 
BRANCH  37  38
HETATM   38  C   UNL     1      42.475 -16.600   3.037  1.00  0.00    -0.019 C 
HETATM   39  C   UNL     1      41.161 -16.455   2.269  1.00  0.00     0.010 C 
HETATM   40  C   UNL     1      43.171 -17.907   2.654  1.00  0.00     0.010 C 
ENDBRANCH  37  38
ENDBRANCH  34  37
ENDBRANCH   1  31
TORSDOF 7
ENDMDL
MODEL 6
REMARK VINA RESULT:      -8.5      3.166      6.796
REMARK  7 active torsions:
REMARK  status: ('A' for Active; 'I' for Inactive)
REMARK    1  A    between atoms: C_2  and  C_3 
REMARK    2  A    between atoms: C_3  and  C_4 
REMARK    3  A    between atoms: C_7  and  C_8 
REMARK    4  A    between atoms: C_14  and  C_15 
REMARK    5  A    between atoms: C_18  and  O_19 
REMARK    6  A    between atoms: O_19  and  C_20 
REMARK       I    between atoms: C_20  and  N_21 
REMARK    7  A    between atoms: C_33  and  N_34 
ROOT
HETATM    1  C   UNL     1      39.953 -10.287   4.149  1.00  0.00     0.099 A 
HETATM    2  N   UNL     1      38.887  -9.771   4.791  1.00  0.00    -0.172 NA
HETATM    3  N   UNL     1      39.298  -9.600   6.062  1.00  0.00    -0.256 N 
HETATM    4  H   UNL     1      38.649  -9.212   6.738  1.00  0.00     0.191 HD
HETATM    5  C   UNL     1      40.575 -10.006   6.261  1.00  0.00     0.175 A 
HETATM    6  C   UNL     1      41.043 -10.453   5.051  1.00  0.00     0.040 A 
HETATM    7  C   UNL     1      42.428 -11.000   4.953  1.00  0.00     0.105 A 
HETATM    8  C   UNL     1      43.146 -10.863   6.291  1.00  0.00     0.067 A 
HETATM    9  C   UNL     1      44.641 -11.146   6.272  1.00  0.00     0.020 C 
HETATM   10  N   UNL     1      45.879 -11.380   6.258  1.00  0.00    -0.096 N 
HETATM   11  C   UNL     1      42.556 -10.382   7.418  1.00  0.00     0.139 A 
HETATM   12  O   UNL     1      41.209  -9.976   7.429  1.00  0.00    -0.279 OA
ENDROOT
BRANCH   7  13
HETATM   13  C   UNL     1      42.287 -12.440   4.481  1.00  0.00    -0.044 A 
HETATM   14  C   UNL     1      41.557 -13.350   5.268  1.00  0.00     0.011 A 
HETATM   15  C   UNL     1      41.516 -14.704   4.936  1.00  0.00     0.038 A 
HETATM   16  C   UNL     1      42.189 -15.160   3.805  1.00  0.00     0.081 A 
HETATM   17  C   UNL     1      42.870 -14.273   2.979  1.00  0.00     0.038 A 
HETATM   18  C   UNL     1      42.898 -12.915   3.305  1.00  0.00     0.011 A 
BRANCH  16  19
HETATM   19  O   UNL     1      42.259 -16.562   3.662  1.00  0.00    -0.261 OA
BRANCH  19  20
HETATM   20  C   UNL     1      43.026 -17.384   4.484  1.00  0.00     0.368 C 
HETATM   21  N   UNL     1      43.460 -18.520   3.823  1.00  0.00    -0.324 N 
HETATM   22  C   UNL     1      44.380 -19.441   4.482  1.00  0.00     0.154 C 
HETATM   23  C   UNL     1      43.266 -18.754   2.392  1.00  0.00     0.154 C 
HETATM   24  C   UNL     1      44.058 -20.892   4.115  1.00  0.00     0.187 C 
HETATM   25  O   UNL     1      44.011 -21.068   2.689  1.00  0.00    -0.388 OA
HETATM   26  C   UNL     1      42.993 -20.235   2.113  1.00  0.00     0.187 C 
HETATM   27  O   UNL     1      43.282 -17.144   5.659  1.00  0.00    -0.238 OA
ENDBRANCH  19  20
ENDBRANCH  16  19
ENDBRANCH   7  13
BRANCH  11  28
HETATM   28  N   UNL     1      43.176 -10.215   8.634  1.00  0.00    -0.282 NA
HETATM   29  H   UNL     1      43.500 -11.070   9.081  1.00  0.00     0.126 HD
HETATM   30  H   UNL     1      42.634  -9.624   9.261  1.00  0.00     0.126 HD
ENDBRANCH  11  28
BRANCH   1  31
HETATM   31  C   UNL     1      39.876 -10.659   2.736  1.00  0.00    -0.005 A 
HETATM   32  C   UNL     1      40.884 -10.301   1.834  1.00  0.00     0.014 A 
HETATM   33  C   UNL     1      40.835 -10.740   0.506  1.00  0.00     0.008 A 
HETATM   34  C   UNL     1      39.770 -11.528   0.050  1.00  0.00    -0.058 A 
HETATM   35  C   UNL     1      38.738 -11.842   0.940  1.00  0.00     0.008 A 
HETATM   36  C   UNL     1      38.794 -11.416   2.271  1.00  0.00     0.014 A 
BRANCH  34  37
HETATM   37  C   UNL     1      39.741 -12.015  -1.380  1.00  0.00     0.042 C 
BRANCH  37  38
HETATM   38  C   UNL     1      39.950 -13.531  -1.597  1.00  0.00    -0.019 C 
HETATM   39  C   UNL     1      38.760 -14.208  -2.277  1.00  0.00     0.010 C 
HETATM   40  C   UNL     1      40.321 -14.274  -0.313  1.00  0.00     0.010 C 
ENDBRANCH  37  38
ENDBRANCH  34  37
ENDBRANCH   1  31
TORSDOF 7
ENDMDL
MODEL 7
REMARK VINA RESULT:      -8.4      4.365      6.671
REMARK  7 active torsions:
REMARK  status: ('A' for Active; 'I' for Inactive)
REMARK    1  A    between atoms: C_2  and  C_3 
REMARK    2  A    between atoms: C_3  and  C_4 
REMARK    3  A    between atoms: C_7  and  C_8 
REMARK    4  A    between atoms: C_14  and  C_15 
REMARK    5  A    between atoms: C_18  and  O_19 
REMARK    6  A    between atoms: O_19  and  C_20 
REMARK       I    between atoms: C_20  and  N_21 
REMARK    7  A    between atoms: C_33  and  N_34 
ROOT
HETATM    1  C   UNL     1      42.038 -13.080   4.498  1.00  0.00     0.099 A 
HETATM    2  N   UNL     1      41.950 -14.410   4.296  1.00  0.00    -0.172 NA
HETATM    3  N   UNL     1      40.854 -14.571   3.530  1.00  0.00    -0.256 N 
HETATM    4  H   UNL     1      40.590 -15.507   3.244  1.00  0.00     0.191 HD
HETATM    5  C   UNL     1      40.229 -13.401   3.253  1.00  0.00     0.175 A 
HETATM    6  C   UNL     1      40.961 -12.408   3.853  1.00  0.00     0.040 A 
HETATM    7  C   UNL     1      40.502 -10.991   3.753  1.00  0.00     0.105 A 
HETATM    8  C   UNL     1      39.269 -10.896   2.861  1.00  0.00     0.067 A 
HETATM    9  C   UNL     1      38.843  -9.491   2.466  1.00  0.00     0.020 C 
HETATM   10  N   UNL     1      38.490  -8.326   2.139  1.00  0.00    -0.096 N 
HETATM   11  C   UNL     1      38.650 -11.976   2.315  1.00  0.00     0.139 A 
HETATM   12  O   UNL     1      39.109 -13.286   2.547  1.00  0.00    -0.279 OA
ENDROOT
BRANCH   7  13
HETATM   13  C   UNL     1      40.260 -10.518   5.180  1.00  0.00    -0.044 A 
HETATM   14  C   UNL     1      41.085  -9.513   5.716  1.00  0.00     0.011 A 
HETATM   15  C   UNL     1      40.979  -9.146   7.058  1.00  0.00     0.038 A 
HETATM   16  C   UNL     1      40.037  -9.769   7.873  1.00  0.00     0.081 A 
HETATM   17  C   UNL     1      39.171 -10.726   7.354  1.00  0.00     0.038 A 
HETATM   18  C   UNL     1      39.269 -11.081   6.006  1.00  0.00     0.011 A 
BRANCH  16  19
HETATM   19  O   UNL     1      40.138  -9.482   9.250  1.00  0.00    -0.261 OA
BRANCH  19  20
HETATM   20  C   UNL     1      39.473  -8.424   9.868  1.00  0.00     0.368 C 
HETATM   21  N   UNL     1      40.317  -7.682  10.676  1.00  0.00    -0.324 N 
HETATM   22  C   UNL     1      39.833  -6.460  11.309  1.00  0.00     0.154 C 
HETATM   23  C   UNL     1      41.764  -7.891  10.752  1.00  0.00     0.154 C 
HETATM   24  C   UNL     1      40.424  -6.300  12.712  1.00  0.00     0.187 C 
HETATM   25  O   UNL     1      41.858  -6.389  12.685  1.00  0.00    -0.388 OA
HETATM   26  C   UNL     1      42.273  -7.667  12.180  1.00  0.00     0.187 C 
HETATM   27  O   UNL     1      38.280  -8.179   9.727  1.00  0.00    -0.238 OA
ENDBRANCH  19  20
ENDBRANCH  16  19
ENDBRANCH   7  13
BRANCH  11  28
HETATM   28  N   UNL     1      37.556 -11.932   1.482  1.00  0.00    -0.282 NA
HETATM   29  H   UNL     1      36.731 -12.425   1.816  1.00  0.00     0.126 HD
HETATM   30  H   UNL     1      37.796 -12.173   0.523  1.00  0.00     0.126 HD
ENDBRANCH  11  28
BRANCH   1  31
HETATM   31  C   UNL     1      43.093 -12.513   5.339  1.00  0.00    -0.005 A 
HETATM   32  C   UNL     1      44.137 -11.763   4.789  1.00  0.00     0.014 A 
HETATM   33  C   UNL     1      45.087 -11.156   5.617  1.00  0.00     0.008 A 
HETATM   34  C   UNL     1      45.023 -11.303   7.010  1.00  0.00    -0.058 A 
HETATM   35  C   UNL     1      44.008 -12.096   7.554  1.00  0.00     0.008 A 
HETATM   36  C   UNL     1      43.050 -12.690   6.727  1.00  0.00     0.014 A 
BRANCH  34  37
HETATM   37  C   UNL     1      46.042 -10.623   7.895  1.00  0.00     0.042 C 
BRANCH  37  38
HETATM   38  C   UNL     1      45.507  -9.532   8.850  1.00  0.00    -0.019 C 
HETATM   39  C   UNL     1      45.097 -10.080  10.217  1.00  0.00     0.010 C 
HETATM   40  C   UNL     1      44.366  -8.713   8.244  1.00  0.00     0.010 C 
ENDBRANCH  37  38
ENDBRANCH  34  37
ENDBRANCH   1  31
TORSDOF 7
ENDMDL
MODEL 8
REMARK VINA RESULT:      -8.3      2.657      4.475
REMARK  7 active torsions:
REMARK  status: ('A' for Active; 'I' for Inactive)
REMARK    1  A    between atoms: C_2  and  C_3 
REMARK    2  A    between atoms: C_3  and  C_4 
REMARK    3  A    between atoms: C_7  and  C_8 
REMARK    4  A    between atoms: C_14  and  C_15 
REMARK    5  A    between atoms: C_18  and  O_19 
REMARK    6  A    between atoms: O_19  and  C_20 
REMARK       I    between atoms: C_20  and  N_21 
REMARK    7  A    between atoms: C_33  and  N_34 
ROOT
HETATM    1  C   UNL     1      40.852 -14.807   2.397  1.00  0.00     0.099 A 
HETATM    2  N   UNL     1      40.245 -16.003   2.268  1.00  0.00    -0.172 NA
HETATM    3  N   UNL     1      39.703 -15.984   1.036  1.00  0.00    -0.256 N 
HETATM    4  H   UNL     1      39.191 -16.799   0.715  1.00  0.00     0.191 HD
HETATM    5  C   UNL     1      39.921 -14.818   0.383  1.00  0.00     0.175 A 
HETATM    6  C   UNL     1      40.665 -14.026   1.221  1.00  0.00     0.040 A 
HETATM    7  C   UNL     1      41.044 -12.648   0.789  1.00  0.00     0.105 A 
HETATM    8  C   UNL     1      40.579 -12.395  -0.640  1.00  0.00     0.067 A 
HETATM    9  C   UNL     1      41.114 -11.132  -1.297  1.00  0.00     0.020 C 
HETATM   10  N   UNL     1      41.557 -10.085  -1.841  1.00  0.00    -0.096 N 
HETATM   11  C   UNL     1      39.853 -13.287  -1.366  1.00  0.00     0.139 A 
HETATM   12  O   UNL     1      39.465 -14.530  -0.832  1.00  0.00    -0.279 OA
ENDROOT
BRANCH   7  13
HETATM   13  C   UNL     1      40.430 -11.698   1.808  1.00  0.00    -0.044 A 
HETATM   14  C   UNL     1      41.278 -10.923   2.620  1.00  0.00     0.011 A 
HETATM   15  C   UNL     1      40.758 -10.141   3.650  1.00  0.00     0.038 A 
HETATM   16  C   UNL     1      39.383 -10.111   3.870  1.00  0.00     0.081 A 
HETATM   17  C   UNL     1      38.517 -10.823   3.045  1.00  0.00     0.038 A 
HETATM   18  C   UNL     1      39.039 -11.594   2.005  1.00  0.00     0.011 A 
BRANCH  16  19
HETATM   19  O   UNL     1      38.968  -9.458   5.049  1.00  0.00    -0.261 OA
BRANCH  19  20
HETATM   20  C   UNL     1      38.949 -10.068   6.302  1.00  0.00     0.368 C 
HETATM   21  N   UNL     1      39.424  -9.228   7.294  1.00  0.00    -0.324 N 
HETATM   22  C   UNL     1      39.365  -9.644   8.692  1.00  0.00     0.154 C 
HETATM   23  C   UNL     1      39.761  -7.821   7.079  1.00  0.00     0.154 C 
HETATM   24  C   UNL     1      40.600  -9.163   9.458  1.00  0.00     0.187 C 
HETATM   25  O   UNL     1      40.790  -7.747   9.300  1.00  0.00    -0.388 OA
HETATM   26  C   UNL     1      40.978  -7.416   7.916  1.00  0.00     0.187 C 
HETATM   27  O   UNL     1      38.569 -11.215   6.508  1.00  0.00    -0.238 OA
ENDBRANCH  19  20
ENDBRANCH  16  19
ENDBRANCH   7  13
BRANCH  11  28
HETATM   28  N   UNL     1      39.441 -13.110  -2.666  1.00  0.00    -0.282 NA
HETATM   29  H   UNL     1      39.019 -13.924  -3.106  1.00  0.00     0.126 HD
HETATM   30  H   UNL     1      40.164 -12.683  -3.241  1.00  0.00     0.126 HD
ENDBRANCH  11  28
BRANCH   1  31
HETATM   31  C   UNL     1      41.523 -14.431   3.642  1.00  0.00    -0.005 A 
HETATM   32  C   UNL     1      42.893 -14.642   3.822  1.00  0.00     0.014 A 
HETATM   33  C   UNL     1      43.533 -14.197   4.984  1.00  0.00     0.008 A 
HETATM   34  C   UNL     1      42.811 -13.550   5.996  1.00  0.00    -0.058 A 
HETATM   35  C   UNL     1      41.431 -13.386   5.837  1.00  0.00     0.008 A 
HETATM   36  C   UNL     1      40.795 -13.817   4.669  1.00  0.00     0.014 A 
BRANCH  34  37
HETATM   37  C   UNL     1      43.518 -13.053   7.237  1.00  0.00     0.042 C 
BRANCH  37  38
HETATM   38  C   UNL     1      44.102 -11.624   7.172  1.00  0.00    -0.019 C 
HETATM   39  C   UNL     1      45.525 -11.583   6.614  1.00  0.00     0.010 C 
HETATM   40  C   UNL     1      44.037 -10.889   8.512  1.00  0.00     0.010 C 
ENDBRANCH  37  38
ENDBRANCH  34  37
ENDBRANCH   1  31
TORSDOF 7
ENDMDL
MODEL 9
REMARK VINA RESULT:      -8.0     16.445     19.935
REMARK  7 active torsions:
REMARK  status: ('A' for Active; 'I' for Inactive)
REMARK    1  A    between atoms: C_2  and  C_3 
REMARK    2  A    between atoms: C_3  and  C_4 
REMARK    3  A    between atoms: C_7  and  C_8 
REMARK    4  A    between atoms: C_14  and  C_15 
REMARK    5  A    between atoms: C_18  and  O_19 
REMARK    6  A    between atoms: O_19  and  C_20 
REMARK       I    between atoms: C_20  and  N_21 
REMARK    7  A    between atoms: C_33  and  N_34 
ROOT
HETATM    1  C   UNL     1      46.765 -29.337   1.120  1.00  0.00     0.099 A 
HETATM    2  N   UNL     1      46.652 -28.199   1.833  1.00  0.00    -0.172 NA
HETATM    3  N   UNL     1      45.463 -28.300   2.458  1.00  0.00    -0.256 N 
HETATM    4  H   UNL     1      45.164 -27.545   3.066  1.00  0.00     0.191 HD
HETATM    5  C   UNL     1      44.806 -29.446   2.157  1.00  0.00     0.175 A 
HETATM    6  C   UNL     1      45.611 -30.152   1.299  1.00  0.00     0.040 A 
HETATM    7  C   UNL     1      45.141 -31.461   0.758  1.00  0.00     0.105 A 
HETATM    8  C   UNL     1      43.800 -31.839   1.377  1.00  0.00     0.067 A 
HETATM    9  C   UNL     1      43.324 -33.259   1.110  1.00  0.00     0.020 C 
HETATM   10  N   UNL     1      42.929 -34.435   0.890  1.00  0.00    -0.096 N 
HETATM   11  C   UNL     1      43.114 -31.038   2.235  1.00  0.00     0.139 A 
HETATM   12  O   UNL     1      43.601 -29.773   2.613  1.00  0.00    -0.279 OA
ENDROOT
BRANCH   7  13
HETATM   13  C   UNL     1      45.092 -31.305  -0.756  1.00  0.00    -0.044 A 
HETATM   14  C   UNL     1      45.943 -32.092  -1.553  1.00  0.00     0.011 A 
HETATM   15  C   UNL     1      46.021 -31.886  -2.930  1.00  0.00     0.038 A 
HETATM   16  C   UNL     1      45.237 -30.902  -3.527  1.00  0.00     0.081 A 
HETATM   17  C   UNL     1      44.346 -30.148  -2.770  1.00  0.00     0.038 A 
HETATM   18  C   UNL     1      44.259 -30.366  -1.394  1.00  0.00     0.011 A 
BRANCH  16  19
HETATM   19  O   UNL     1      45.527 -30.630  -4.881  1.00  0.00    -0.261 OA
BRANCH  19  20
HETATM   20  C   UNL     1      44.787 -31.140  -5.945  1.00  0.00     0.368 C 
HETATM   21  N   UNL     1      45.563 -31.905  -6.798  1.00  0.00    -0.324 N 
HETATM   22  C   UNL     1      44.941 -32.626  -7.903  1.00  0.00     0.154 C 
HETATM   23  C   UNL     1      46.958 -32.261  -6.530  1.00  0.00     0.154 C 
HETATM   24  C   UNL     1      45.845 -32.621  -9.139  1.00  0.00     0.187 C 
HETATM   25  O   UNL     1      47.160 -33.105  -8.821  1.00  0.00    -0.388 OA
HETATM   26  C   UNL     1      47.776 -32.274  -7.825  1.00  0.00     0.187 C 
HETATM   27  O   UNL     1      43.591 -30.931  -6.121  1.00  0.00    -0.238 OA
ENDBRANCH  19  20
ENDBRANCH  16  19
ENDBRANCH   7  13
BRANCH  11  28
HETATM   28  N   UNL     1      41.918 -31.354   2.837  1.00  0.00    -0.282 NA
HETATM   29  H   UNL     1      41.852 -31.124   3.826  1.00  0.00     0.126 HD
HETATM   30  H   UNL     1      41.629 -32.308   2.635  1.00  0.00     0.126 HD
ENDBRANCH  11  28
BRANCH   1  31
HETATM   31  C   UNL     1      47.922 -29.575   0.257  1.00  0.00    -0.005 A 
HETATM   32  C   UNL     1      49.030 -30.298   0.709  1.00  0.00     0.014 A 
HETATM   33  C   UNL     1      50.089 -30.589  -0.159  1.00  0.00     0.008 A 
HETATM   34  C   UNL     1      50.069 -30.147  -1.488  1.00  0.00    -0.058 A 
HETATM   35  C   UNL     1      48.984 -29.380  -1.924  1.00  0.00     0.008 A 
HETATM   36  C   UNL     1      47.919 -29.101  -1.061  1.00  0.00     0.014 A 
BRANCH  34  37
HETATM   37  C   UNL     1      51.207 -30.488  -2.421  1.00  0.00     0.042 C 
BRANCH  37  38
HETATM   38  C   UNL     1      51.224 -31.924  -2.993  1.00  0.00    -0.019 C 
HETATM   39  C   UNL     1      49.826 -32.465  -3.294  1.00  0.00     0.010 C 
HETATM   40  C   UNL     1      51.996 -32.909  -2.115  1.00  0.00     0.010 C 
ENDBRANCH  37  38
ENDBRANCH  34  37
ENDBRANCH   1  31
TORSDOF 7
ENDMDL
MODEL 10
REMARK VINA RESULT:      -7.6      2.757      7.023
REMARK  7 active torsions:
REMARK  status: ('A' for Active; 'I' for Inactive)
REMARK    1  A    between atoms: C_2  and  C_3 
REMARK    2  A    between atoms: C_3  and  C_4 
REMARK    3  A    between atoms: C_7  and  C_8 
REMARK    4  A    between atoms: C_14  and  C_15 
REMARK    5  A    between atoms: C_18  and  O_19 
REMARK    6  A    between atoms: O_19  and  C_20 
REMARK       I    between atoms: C_20  and  N_21 
REMARK    7  A    between atoms: C_33  and  N_34 
ROOT
HETATM    1  C   UNL     1      42.402 -11.502   6.474  1.00  0.00     0.099 A 
HETATM    2  N   UNL     1      43.505 -11.166   7.170  1.00  0.00    -0.172 NA
HETATM    3  N   UNL     1      43.361  -9.853   7.432  1.00  0.00    -0.256 N 
HETATM    4  H   UNL     1      44.085  -9.377   7.960  1.00  0.00     0.191 HD
HETATM    5  C   UNL     1      42.221  -9.335   6.914  1.00  0.00     0.175 A 
HETATM    6  C   UNL     1      41.564 -10.365   6.290  1.00  0.00     0.040 A 
HETATM    7  C   UNL     1      40.274 -10.098   5.588  1.00  0.00     0.105 A 
HETATM    8  C   UNL     1      39.852  -8.648   5.791  1.00  0.00     0.067 A 
HETATM    9  C   UNL     1      38.439  -8.301   5.347  1.00  0.00     0.020 C 
HETATM   10  N   UNL     1      37.268  -8.013   4.980  1.00  0.00    -0.096 N 
HETATM   11  C   UNL     1      40.605  -7.729   6.453  1.00  0.00     0.139 A 
HETATM   12  O   UNL     1      41.858  -8.060   7.002  1.00  0.00    -0.279 OA
ENDROOT
BRANCH   7  13
HETATM   13  C   UNL     1      40.497 -10.471   4.129  1.00  0.00    -0.044 A 
HETATM   14  C   UNL     1      39.561 -11.300   3.484  1.00  0.00     0.011 A 
HETATM   15  C   UNL     1      39.797 -11.768   2.192  1.00  0.00     0.038 A 
HETATM   16  C   UNL     1      40.962 -11.399   1.524  1.00  0.00     0.081 A 
HETATM   17  C   UNL     1      41.876 -10.535   2.117  1.00  0.00     0.038 A 
HETATM   18  C   UNL     1      41.631 -10.055   3.406  1.00  0.00     0.011 A 
BRANCH  16  19
HETATM   19  O   UNL     1      41.210 -12.076   0.311  1.00  0.00    -0.261 OA
BRANCH  19  20
HETATM   20  C   UNL     1      40.657 -11.697  -0.910  1.00  0.00     0.368 C 
HETATM   21  N   UNL     1      39.787 -12.652  -1.406  1.00  0.00    -0.324 N 
HETATM   22  C   UNL     1      39.015 -12.380  -2.613  1.00  0.00     0.154 C 
HETATM   23  C   UNL     1      39.379 -13.846  -0.663  1.00  0.00     0.154 C 
HETATM   24  C   UNL     1      38.875 -13.642  -3.469  1.00  0.00     0.187 C 
HETATM   25  O   UNL     1      38.349 -14.735  -2.699  1.00  0.00    -0.388 OA
HETATM   26  C   UNL     1      39.222 -15.045  -1.603  1.00  0.00     0.187 C 
HETATM   27  O   UNL     1      40.914 -10.648  -1.491  1.00  0.00    -0.238 OA
ENDBRANCH  19  20
ENDBRANCH  16  19
ENDBRANCH   7  13
BRANCH  11  28
HETATM   28  N   UNL     1      40.247  -6.421   6.683  1.00  0.00    -0.282 NA
HETATM   29  H   UNL     1      39.304  -6.281   7.037  1.00  0.00     0.126 HD
HETATM   30  H   UNL     1      40.463  -5.821   5.890  1.00  0.00     0.126 HD
ENDBRANCH  11  28
BRANCH   1  31
HETATM   31  C   UNL     1      42.218 -12.861   5.961  1.00  0.00    -0.005 A 
HETATM   32  C   UNL     1      41.007 -13.541   6.122  1.00  0.00     0.014 A 
HETATM   33  C   UNL     1      40.822 -14.804   5.549  1.00  0.00     0.008 A 
HETATM   34  C   UNL     1      41.849 -15.419   4.822  1.00  0.00    -0.058 A 
HETATM   35  C   UNL     1      43.077 -14.759   4.706  1.00  0.00     0.008 A 
HETATM   36  C   UNL     1      43.257 -13.491   5.265  1.00  0.00     0.014 A 
BRANCH  34  37
HETATM   37  C   UNL     1      41.629 -16.773   4.188  1.00  0.00     0.042 C 
BRANCH  37  38
HETATM   38  C   UNL     1      41.690 -16.832   2.645  1.00  0.00    -0.019 C 
HETATM   39  C   UNL     1      43.115 -16.965   2.107  1.00  0.00     0.010 C 
HETATM   40  C   UNL     1      40.978 -15.657   1.973  1.00  0.00     0.010 C 
ENDBRANCH  37  38
ENDBRANCH  34  37
ENDBRANCH   1  31
TORSDOF 7
ENDMDL
