MODEL 1
REMARK VINA RESULT:      -8.1      0.000      0.000
REMARK  8 active torsions:
REMARK  status: ('A' for Active; 'I' for Inactive)
REMARK    1  A    between atoms: C_7  and  N_8 
REMARK    2  A    between atoms: N_8  and  C_9 
REMARK    3  A    between atoms: C_9  and  C_10 
REMARK    4  A    between atoms: C_10  and  C_11 
REMARK    5  A    between atoms: C_11  and  O_12 
REMARK    6  A    between atoms: C_14  and  N_15 
REMARK    7  A    between atoms: N_15  and  C_16 
REMARK    8  A    between atoms: C_16  and  C_17 
ROOT
HETATM    1  C   UNL     1      41.372 -13.349   5.769  1.00  0.00     0.001 A 
HETATM    2  C   UNL     1      42.017 -14.138   4.814  1.00  0.00     0.017 A 
HETATM    3  C   UNL     1      41.422 -14.392   3.557  1.00  0.00     0.032 A 
HETATM    4  C   UNL     1      40.184 -13.785   3.278  1.00  0.00     0.062 A 
HETATM    5  N   UNL     1      39.621 -13.965   2.078  1.00  0.00    -0.189 N 
HETATM    6  H   UNL     1      38.723 -13.557   1.862  1.00  0.00     0.184 HD
HETATM    7  C   UNL     1      40.199 -14.710   1.136  1.00  0.00     0.702 A 
HETATM    8  N   UNL     1      41.371 -15.337   1.338  1.00  0.00    -0.052 NA
HETATM    9  C   UNL     1      41.970 -15.186   2.532  1.00  0.00     0.135 A 
HETATM   10  C   UNL     1      39.539 -12.996   4.244  1.00  0.00     0.031 A 
HETATM   11  C   UNL     1      40.131 -12.787   5.488  1.00  0.00     0.002 A 
ENDROOT
BRANCH   9  12
HETATM   12  N   UNL     1      43.177 -15.876   2.661  1.00  0.00    -0.272 NA
HETATM   13  H   UNL     1      43.881 -15.268   2.239  1.00  0.00     0.129 HD
BRANCH  12  14
HETATM   14  C   UNL     1      43.204 -17.160   1.949  1.00  0.00     0.132 C 
BRANCH  14  15
HETATM   15  C   UNL     1      43.492 -18.266   2.938  1.00  0.00    -0.045 A 
HETATM   16  C   UNL     1      43.725 -17.971   4.291  1.00  0.00     0.011 A 
HETATM   17  C   UNL     1      44.014 -18.996   5.195  1.00  0.00     0.043 A 
HETATM   18  C   UNL     1      44.082 -20.309   4.746  1.00  0.00     0.116 A 
HETATM   19  F   UNL     1      44.363 -21.290   5.613  1.00  0.00    -0.206 F 
HETATM   20  C   UNL     1      43.869 -20.620   3.409  1.00  0.00     0.043 A 
HETATM   21  C   UNL     1      43.577 -19.600   2.502  1.00  0.00     0.011 A 
ENDBRANCH  14  15
ENDBRANCH  12  14
ENDBRANCH   9  12
BRANCH   7  22
HETATM   22  N   UNL     1      39.516 -14.854  -0.050  1.00  0.00    -0.224 N 
HETATM   23  H   UNL     1      38.739 -15.501  -0.104  1.00  0.00     0.177 HD
BRANCH  22  24
HETATM   24  C   UNL     1      39.438 -13.737  -0.991  1.00  0.00     0.140 C 
BRANCH  24  25
HETATM   25  C   UNL     1      39.719 -14.179  -2.424  1.00  0.00     0.046 C 
BRANCH  25  26
HETATM   26  C   UNL     1      38.511 -14.791  -3.117  1.00  0.00     0.165 C 
BRANCH  26  27
HETATM   27  O   UNL     1      38.286 -16.094  -2.603  1.00  0.00    -0.401 OA
HETATM   28  H   UNL     1      38.536 -16.099  -1.661  1.00  0.00     0.209 HD
ENDBRANCH  26  27
ENDBRANCH  25  26
ENDBRANCH  24  25
ENDBRANCH  22  24
ENDBRANCH   7  22
TORSDOF 8
ENDMDL
MODEL 2
REMARK VINA RESULT:      -7.8      4.109      6.134
REMARK  8 active torsions:
REMARK  status: ('A' for Active; 'I' for Inactive)
REMARK    1  A    between atoms: C_7  and  N_8 
REMARK    2  A    between atoms: N_8  and  C_9 
REMARK    3  A    between atoms: C_9  and  C_10 
REMARK    4  A    between atoms: C_10  and  C_11 
REMARK    5  A    between atoms: C_11  and  O_12 
REMARK    6  A    between atoms: C_14  and  N_15 
REMARK    7  A    between atoms: N_15  and  C_16 
REMARK    8  A    between atoms: C_16  and  C_17 
ROOT
HETATM    1  C   UNL     1      39.997 -15.748   2.801  1.00  0.00     0.001 A 
HETATM    2  C   UNL     1      40.833 -16.199   3.825  1.00  0.00     0.017 A 
HETATM    3  C   UNL     1      41.518 -15.288   4.661  1.00  0.00     0.032 A 
HETATM    4  C   UNL     1      41.292 -13.913   4.464  1.00  0.00     0.062 A 
HETATM    5  N   UNL     1      41.884 -13.028   5.274  1.00  0.00    -0.189 N 
HETATM    6  H   UNL     1      41.754 -12.036   5.138  1.00  0.00     0.184 HD
HETATM    7  C   UNL     1      42.691 -13.412   6.263  1.00  0.00     0.702 A 
HETATM    8  N   UNL     1      42.970 -14.706   6.497  1.00  0.00    -0.052 NA
HETATM    9  C   UNL     1      42.398 -15.629   5.705  1.00  0.00     0.135 A 
HETATM   10  C   UNL     1      40.452 -13.466   3.431  1.00  0.00     0.031 A 
HETATM   11  C   UNL     1      39.814 -14.383   2.599  1.00  0.00     0.002 A 
ENDROOT
BRANCH   9  12
HETATM   12  N   UNL     1      42.746 -16.946   6.012  1.00  0.00    -0.272 NA
HETATM   13  H   UNL     1      42.782 -16.984   7.032  1.00  0.00     0.129 HD
BRANCH  12  14
HETATM   14  C   UNL     1      44.062 -17.345   5.498  1.00  0.00     0.132 C 
BRANCH  14  15
HETATM   15  C   UNL     1      43.873 -18.331   4.369  1.00  0.00    -0.045 A 
HETATM   16  C   UNL     1      44.000 -19.711   4.598  1.00  0.00     0.011 A 
HETATM   17  C   UNL     1      43.847 -20.617   3.545  1.00  0.00     0.043 A 
HETATM   18  C   UNL     1      43.581 -20.144   2.266  1.00  0.00     0.116 A 
HETATM   19  F   UNL     1      43.438 -21.013   1.257  1.00  0.00    -0.206 F 
HETATM   20  C   UNL     1      43.465 -18.782   2.017  1.00  0.00     0.043 A 
HETATM   21  C   UNL     1      43.614 -17.874   3.065  1.00  0.00     0.011 A 
ENDBRANCH  14  15
ENDBRANCH  12  14
ENDBRANCH   9  12
BRANCH   7  22
HETATM   22  N   UNL     1      43.274 -12.417   7.013  1.00  0.00    -0.224 N 
HETATM   23  H   UNL     1      42.903 -12.201   7.931  1.00  0.00     0.177 HD
BRANCH  22  24
HETATM   24  C   UNL     1      44.695 -12.113   6.848  1.00  0.00     0.140 C 
BRANCH  24  25
HETATM   25  C   UNL     1      45.169 -11.055   7.841  1.00  0.00     0.046 C 
BRANCH  25  26
HETATM   26  C   UNL     1      44.046 -10.465   8.680  1.00  0.00     0.165 C 
BRANCH  26  27
HETATM   27  O   UNL     1      43.753 -11.341   9.756  1.00  0.00    -0.401 OA
HETATM   28  H   UNL     1      43.067 -10.926  10.310  1.00  0.00     0.209 HD
ENDBRANCH  26  27
ENDBRANCH  25  26
ENDBRANCH  24  25
ENDBRANCH  22  24
ENDBRANCH   7  22
TORSDOF 8
ENDMDL
MODEL 3
REMARK VINA RESULT:      -7.6      3.225      6.186
REMARK  8 active torsions:
REMARK  status: ('A' for Active; 'I' for Inactive)
REMARK    1  A    between atoms: C_7  and  N_8 
REMARK    2  A    between atoms: N_8  and  C_9 
REMARK    3  A    between atoms: C_9  and  C_10 
REMARK    4  A    between atoms: C_10  and  C_11 
REMARK    5  A    between atoms: C_11  and  O_12 
REMARK    6  A    between atoms: C_14  and  N_15 
REMARK    7  A    between atoms: N_15  and  C_16 
REMARK    8  A    between atoms: C_16  and  C_17 
ROOT
HETATM    1  C   UNL     1      44.077 -20.585   4.908  1.00  0.00     0.001 A 
HETATM    2  C   UNL     1      43.984 -19.234   5.250  1.00  0.00     0.017 A 
HETATM    3  C   UNL     1      43.751 -18.248   4.265  1.00  0.00     0.032 A 
HETATM    4  C   UNL     1      43.565 -18.673   2.936  1.00  0.00     0.062 A 
HETATM    5  N   UNL     1      43.290 -17.767   1.991  1.00  0.00    -0.189 N 
HETATM    6  H   UNL     1      43.174 -18.046   1.027  1.00  0.00     0.184 HD
HETATM    7  C   UNL     1      43.193 -16.468   2.269  1.00  0.00     0.702 A 
HETATM    8  N   UNL     1      43.379 -15.987   3.511  1.00  0.00    -0.052 NA
HETATM    9  C   UNL     1      43.661 -16.862   4.492  1.00  0.00     0.135 A 
HETATM   10  C   UNL     1      43.662 -20.032   2.599  1.00  0.00     0.031 A 
HETATM   11  C   UNL     1      43.925 -20.982   3.584  1.00  0.00     0.002 A 
ENDROOT
BRANCH   9  12
HETATM   12  N   UNL     1      43.847 -16.279   5.747  1.00  0.00    -0.272 NA
HETATM   13  H   UNL     1      44.489 -16.902   6.241  1.00  0.00     0.129 HD
BRANCH  12  14
HETATM   14  C   UNL     1      42.616 -16.177   6.541  1.00  0.00     0.132 C 
BRANCH  14  15
HETATM   15  C   UNL     1      42.005 -14.812   6.330  1.00  0.00    -0.045 A 
HETATM   16  C   UNL     1      40.617 -14.668   6.168  1.00  0.00     0.011 A 
HETATM   17  C   UNL     1      40.060 -13.406   5.950  1.00  0.00     0.043 A 
HETATM   18  C   UNL     1      40.888 -12.293   5.881  1.00  0.00     0.116 A 
HETATM   19  F   UNL     1      40.354 -11.084   5.668  1.00  0.00    -0.206 F 
HETATM   20  C   UNL     1      42.265 -12.415   6.026  1.00  0.00     0.043 A 
HETATM   21  C   UNL     1      42.826 -13.674   6.247  1.00  0.00     0.011 A 
ENDBRANCH  14  15
ENDBRANCH  12  14
ENDBRANCH   9  12
BRANCH   7  22
HETATM   22  N   UNL     1      42.940 -15.621   1.215  1.00  0.00    -0.224 N 
HETATM   23  H   UNL     1      43.183 -15.908   0.274  1.00  0.00     0.177 HD
BRANCH  22  24
HETATM   24  C   UNL     1      41.832 -14.670   1.289  1.00  0.00     0.140 C 
BRANCH  24  25
HETATM   25  C   UNL     1      40.478 -15.363   1.167  1.00  0.00     0.046 C 
BRANCH  25  26
HETATM   26  C   UNL     1      39.720 -15.450   2.484  1.00  0.00     0.165 C 
BRANCH  26  27
HETATM   27  O   UNL     1      38.932 -14.282   2.649  1.00  0.00    -0.401 OA
HETATM   28  H   UNL     1      38.302 -14.231   1.907  1.00  0.00     0.209 HD
ENDBRANCH  26  27
ENDBRANCH  25  26
ENDBRANCH  24  25
ENDBRANCH  22  24
ENDBRANCH   7  22
TORSDOF 8
ENDMDL
MODEL 4
REMARK VINA RESULT:      -7.6      3.620      7.518
REMARK  8 active torsions:
REMARK  status: ('A' for Active; 'I' for Inactive)
REMARK    1  A    between atoms: C_7  and  N_8 
REMARK    2  A    between atoms: N_8  and  C_9 
REMARK    3  A    between atoms: C_9  and  C_10 
REMARK    4  A    between atoms: C_10  and  C_11 
REMARK    5  A    between atoms: C_11  and  O_12 
REMARK    6  A    between atoms: C_14  and  N_15 
REMARK    7  A    between atoms: N_15  and  C_16 
REMARK    8  A    between atoms: C_16  and  C_17 
ROOT
HETATM    1  C   UNL     1      43.454 -20.389   2.271  1.00  0.00     0.001 A 
HETATM    2  C   UNL     1      43.167 -19.031   2.113  1.00  0.00     0.017 A 
HETATM    3  C   UNL     1      43.349 -18.119   3.179  1.00  0.00     0.032 A 
HETATM    4  C   UNL     1      43.875 -18.613   4.387  1.00  0.00     0.062 A 
HETATM    5  N   UNL     1      44.108 -17.765   5.395  1.00  0.00    -0.189 N 
HETATM    6  H   UNL     1      44.465 -18.099   6.279  1.00  0.00     0.184 HD
HETATM    7  C   UNL     1      43.849 -16.462   5.292  1.00  0.00     0.702 A 
HETATM    8  N   UNL     1      43.326 -15.923   4.176  1.00  0.00    -0.052 NA
HETATM    9  C   UNL     1      43.073 -16.740   3.138  1.00  0.00     0.135 A 
HETATM   10  C   UNL     1      44.159 -19.979   4.540  1.00  0.00     0.031 A 
HETATM   11  C   UNL     1      43.940 -20.864   3.485  1.00  0.00     0.002 A 
ENDROOT
BRANCH   9  12
HETATM   12  N   UNL     1      42.524 -16.102   2.025  1.00  0.00    -0.272 NA
HETATM   13  H   UNL     1      43.125 -15.293   1.855  1.00  0.00     0.129 HD
BRANCH  12  14
HETATM   14  C   UNL     1      41.157 -15.612   2.237  1.00  0.00     0.132 C 
BRANCH  14  15
HETATM   15  C   UNL     1      40.777 -14.699   1.095  1.00  0.00    -0.045 A 
HETATM   16  C   UNL     1      39.911 -15.143   0.083  1.00  0.00     0.011 A 
HETATM   17  C   UNL     1      39.583 -14.302  -0.983  1.00  0.00     0.043 A 
HETATM   18  C   UNL     1      40.128 -13.026  -1.043  1.00  0.00     0.116 A 
HETATM   19  F   UNL     1      39.815 -12.222  -2.067  1.00  0.00    -0.206 F 
HETATM   20  C   UNL     1      40.997 -12.572  -0.059  1.00  0.00     0.043 A 
HETATM   21  C   UNL     1      41.326 -13.407   1.009  1.00  0.00     0.011 A 
ENDBRANCH  14  15
ENDBRANCH  12  14
ENDBRANCH   9  12
BRANCH   7  22
HETATM   22  N   UNL     1      44.096 -15.687   6.402  1.00  0.00    -0.224 N 
HETATM   23  H   UNL     1      44.975 -15.192   6.480  1.00  0.00     0.177 HD
BRANCH  22  24
HETATM   24  C   UNL     1      42.985 -15.063   7.119  1.00  0.00     0.140 C 
BRANCH  24  25
HETATM   25  C   UNL     1      41.741 -15.946   7.122  1.00  0.00     0.046 C 
BRANCH  25  26
HETATM   26  C   UNL     1      40.553 -15.322   6.405  1.00  0.00     0.165 C 
BRANCH  26  27
HETATM   27  O   UNL     1      39.936 -16.299   5.581  1.00  0.00    -0.401 OA
HETATM   28  H   UNL     1      40.022 -16.013   4.653  1.00  0.00     0.209 HD
ENDBRANCH  26  27
ENDBRANCH  25  26
ENDBRANCH  24  25
ENDBRANCH  22  24
ENDBRANCH   7  22
TORSDOF 8
ENDMDL
MODEL 5
REMARK VINA RESULT:      -7.6      2.629      5.144
REMARK  8 active torsions:
REMARK  status: ('A' for Active; 'I' for Inactive)
REMARK    1  A    between atoms: C_7  and  N_8 
REMARK    2  A    between atoms: N_8  and  C_9 
REMARK    3  A    between atoms: C_9  and  C_10 
REMARK    4  A    between atoms: C_10  and  C_11 
REMARK    5  A    between atoms: C_11  and  O_12 
REMARK    6  A    between atoms: C_14  and  N_15 
REMARK    7  A    between atoms: N_15  and  C_16 
REMARK    8  A    between atoms: C_16  and  C_17 
ROOT
HETATM    1  C   UNL     1      42.973 -17.221   4.580  1.00  0.00     0.001 A 
HETATM    2  C   UNL     1      42.011 -16.210   4.519  1.00  0.00     0.017 A 
HETATM    3  C   UNL     1      41.689 -15.584   3.292  1.00  0.00     0.032 A 
HETATM    4  C   UNL     1      42.330 -16.045   2.128  1.00  0.00     0.062 A 
HETATM    5  N   UNL     1      42.008 -15.509   0.945  1.00  0.00    -0.189 N 
HETATM    6  H   UNL     1      42.470 -15.808   0.099  1.00  0.00     0.184 HD
HETATM    7  C   UNL     1      41.097 -14.542   0.837  1.00  0.00     0.702 A 
HETATM    8  N   UNL     1      40.460 -14.037   1.908  1.00  0.00    -0.052 NA
HETATM    9  C   UNL     1      40.756 -14.545   3.118  1.00  0.00     0.135 A 
HETATM   10  C   UNL     1      43.298 -17.060   2.197  1.00  0.00     0.031 A 
HETATM   11  C   UNL     1      43.622 -17.638   3.423  1.00  0.00     0.002 A 
ENDROOT
BRANCH   9  12
HETATM   12  N   UNL     1      40.056 -13.960   4.174  1.00  0.00    -0.272 NA
HETATM   13  H   UNL     1      39.068 -14.059   3.930  1.00  0.00     0.129 HD
BRANCH  12  14
HETATM   14  C   UNL     1      40.337 -12.530   4.351  1.00  0.00     0.132 C 
BRANCH  14  15
HETATM   15  C   UNL     1      41.716 -12.369   4.946  1.00  0.00    -0.045 A 
HETATM   16  C   UNL     1      42.693 -11.604   4.288  1.00  0.00     0.011 A 
HETATM   17  C   UNL     1      43.973 -11.478   4.831  1.00  0.00     0.043 A 
HETATM   18  C   UNL     1      44.281 -12.125   6.021  1.00  0.00     0.116 A 
HETATM   19  F   UNL     1      45.510 -12.007   6.539  1.00  0.00    -0.206 F 
HETATM   20  C   UNL     1      43.334 -12.898   6.681  1.00  0.00     0.043 A 
HETATM   21  C   UNL     1      42.052 -13.025   6.144  1.00  0.00     0.011 A 
ENDBRANCH  14  15
ENDBRANCH  12  14
ENDBRANCH   9  12
BRANCH   7  22
HETATM   22  N   UNL     1      40.868 -14.039  -0.423  1.00  0.00    -0.224 N 
HETATM   23  H   UNL     1      41.636 -13.965  -1.078  1.00  0.00     0.177 HD
BRANCH  22  24
HETATM   24  C   UNL     1      39.555 -14.199  -1.046  1.00  0.00     0.140 C 
BRANCH  24  25
HETATM   25  C   UNL     1      39.595 -13.900  -2.542  1.00  0.00     0.046 C 
BRANCH  25  26
HETATM   26  C   UNL     1      40.596 -12.817  -2.916  1.00  0.00     0.165 C 
BRANCH  26  27
HETATM   27  O   UNL     1      41.754 -13.420  -3.473  1.00  0.00    -0.401 OA
HETATM   28  H   UNL     1      41.657 -14.388  -3.403  1.00  0.00     0.209 HD
ENDBRANCH  26  27
ENDBRANCH  25  26
ENDBRANCH  24  25
ENDBRANCH  22  24
ENDBRANCH   7  22
TORSDOF 8
ENDMDL
MODEL 6
REMARK VINA RESULT:      -7.5      4.243      7.892
REMARK  8 active torsions:
REMARK  status: ('A' for Active; 'I' for Inactive)
REMARK    1  A    between atoms: C_7  and  N_8 
REMARK    2  A    between atoms: N_8  and  C_9 
REMARK    3  A    between atoms: C_9  and  C_10 
REMARK    4  A    between atoms: C_10  and  C_11 
REMARK    5  A    between atoms: C_11  and  O_12 
REMARK    6  A    between atoms: C_14  and  N_15 
REMARK    7  A    between atoms: N_15  and  C_16 
REMARK    8  A    between atoms: C_16  and  C_17 
ROOT
HETATM    1  C   UNL     1      43.576 -20.340   2.520  1.00  0.00     0.001 A 
HETATM    2  C   UNL     1      43.294 -18.992   2.286  1.00  0.00     0.017 A 
HETATM    3  C   UNL     1      43.423 -18.031   3.315  1.00  0.00     0.032 A 
HETATM    4  C   UNL     1      43.893 -18.466   4.569  1.00  0.00     0.062 A 
HETATM    5  N   UNL     1      44.076 -17.571   5.546  1.00  0.00    -0.189 N 
HETATM    6  H   UNL     1      44.392 -17.862   6.461  1.00  0.00     0.184 HD
HETATM    7  C   UNL     1      43.819 -16.275   5.370  1.00  0.00     0.702 A 
HETATM    8  N   UNL     1      43.348 -15.791   4.207  1.00  0.00    -0.052 NA
HETATM    9  C   UNL     1      43.146 -16.657   3.198  1.00  0.00     0.135 A 
HETATM   10  C   UNL     1      44.172 -19.822   4.798  1.00  0.00     0.031 A 
HETATM   11  C   UNL     1      44.005 -20.756   3.777  1.00  0.00     0.002 A 
ENDROOT
BRANCH   9  12
HETATM   12  N   UNL     1      42.649 -16.073   2.031  1.00  0.00    -0.272 NA
HETATM   13  H   UNL     1      43.044 -15.131   2.012  1.00  0.00     0.129 HD
BRANCH  12  14
HETATM   14  C   UNL     1      41.187 -15.951   2.007  1.00  0.00     0.132 C 
BRANCH  14  15
HETATM   15  C   UNL     1      40.800 -14.848   1.049  1.00  0.00    -0.045 A 
HETATM   16  C   UNL     1      39.882 -15.092   0.014  1.00  0.00     0.011 A 
HETATM   17  C   UNL     1      39.547 -14.076  -0.883  1.00  0.00     0.043 A 
HETATM   18  C   UNL     1      40.135 -12.824  -0.755  1.00  0.00     0.116 A 
HETATM   19  F   UNL     1      39.816 -11.851  -1.617  1.00  0.00    -0.206 F 
HETATM   20  C   UNL     1      41.056 -12.566   0.254  1.00  0.00     0.043 A 
HETATM   21  C   UNL     1      41.392 -13.578   1.155  1.00  0.00     0.011 A 
ENDBRANCH  14  15
ENDBRANCH  12  14
ENDBRANCH   9  12
BRANCH   7  22
HETATM   22  N   UNL     1      44.011 -15.449   6.453  1.00  0.00    -0.224 N 
HETATM   23  H   UNL     1      44.874 -15.507   6.979  1.00  0.00     0.177 HD
BRANCH  22  24
HETATM   24  C   UNL     1      43.364 -14.138   6.497  1.00  0.00     0.140 C 
BRANCH  24  25
HETATM   25  C   UNL     1      44.381 -13.003   6.569  1.00  0.00     0.046 C 
BRANCH  25  26
HETATM   26  C   UNL     1      43.849 -11.756   7.259  1.00  0.00     0.165 C 
BRANCH  26  27
HETATM   27  O   UNL     1      43.866 -11.952   8.664  1.00  0.00    -0.401 OA
HETATM   28  H   UNL     1      43.875 -12.911   8.838  1.00  0.00     0.209 HD
ENDBRANCH  26  27
ENDBRANCH  25  26
ENDBRANCH  24  25
ENDBRANCH  22  24
ENDBRANCH   7  22
TORSDOF 8
ENDMDL
MODEL 7
REMARK VINA RESULT:      -7.3      3.595      7.209
REMARK  8 active torsions:
REMARK  status: ('A' for Active; 'I' for Inactive)
REMARK    1  A    between atoms: C_7  and  N_8 
REMARK    2  A    between atoms: N_8  and  C_9 
REMARK    3  A    between atoms: C_9  and  C_10 
REMARK    4  A    between atoms: C_10  and  C_11 
REMARK    5  A    between atoms: C_11  and  O_12 
REMARK    6  A    between atoms: C_14  and  N_15 
REMARK    7  A    between atoms: N_15  and  C_16 
REMARK    8  A    between atoms: C_16  and  C_17 
ROOT
HETATM    1  C   UNL     1      43.660 -19.229   2.670  1.00  0.00     0.001 A 
HETATM    2  C   UNL     1      42.811 -18.198   2.260  1.00  0.00     0.017 A 
HETATM    3  C   UNL     1      42.632 -17.042   3.055  1.00  0.00     0.032 A 
HETATM    4  C   UNL     1      43.373 -16.940   4.247  1.00  0.00     0.062 A 
HETATM    5  N   UNL     1      43.265 -15.835   4.994  1.00  0.00    -0.189 N 
HETATM    6  H   UNL     1      43.770 -15.748   5.864  1.00  0.00     0.184 HD
HETATM    7  C   UNL     1      42.468 -14.826   4.644  1.00  0.00     0.702 A 
HETATM    8  N   UNL     1      41.714 -14.863   3.531  1.00  0.00    -0.052 NA
HETATM    9  C   UNL     1      41.790 -15.956   2.752  1.00  0.00     0.135 A 
HETATM   10  C   UNL     1      44.222 -17.981   4.655  1.00  0.00     0.031 A 
HETATM   11  C   UNL     1      44.357 -19.125   3.870  1.00  0.00     0.002 A 
ENDROOT
BRANCH   9  12
HETATM   12  N   UNL     1      40.971 -15.916   1.622  1.00  0.00    -0.272 NA
HETATM   13  H   UNL     1      41.610 -15.828   0.830  1.00  0.00     0.129 HD
BRANCH  12  14
HETATM   14  C   UNL     1      40.057 -14.767   1.595  1.00  0.00     0.132 C 
BRANCH  14  15
HETATM   15  C   UNL     1      40.175 -14.075   0.257  1.00  0.00    -0.045 A 
HETATM   16  C   UNL     1      39.670 -14.680  -0.906  1.00  0.00     0.011 A 
HETATM   17  C   UNL     1      39.803 -14.047  -2.144  1.00  0.00     0.043 A 
HETATM   18  C   UNL     1      40.449 -12.819  -2.221  1.00  0.00     0.116 A 
HETATM   19  F   UNL     1      40.579 -12.215  -3.409  1.00  0.00    -0.206 F 
HETATM   20  C   UNL     1      40.967 -12.211  -1.085  1.00  0.00     0.043 A 
HETATM   21  C   UNL     1      40.835 -12.838   0.155  1.00  0.00     0.011 A 
ENDBRANCH  14  15
ENDBRANCH  12  14
ENDBRANCH   9  12
BRANCH   7  22
HETATM   22  N   UNL     1      42.407 -13.753   5.503  1.00  0.00    -0.224 N 
HETATM   23  H   UNL     1      43.039 -13.709   6.293  1.00  0.00     0.177 HD
BRANCH  22  24
HETATM   24  C   UNL     1      41.960 -12.449   5.015  1.00  0.00     0.140 C 
BRANCH  24  25
HETATM   25  C   UNL     1      40.842 -11.871   5.878  1.00  0.00     0.046 C 
BRANCH  25  26
HETATM   26  C   UNL     1      39.486 -12.511   5.621  1.00  0.00     0.165 C 
BRANCH  26  27
HETATM   27  O   UNL     1      39.461 -13.807   6.196  1.00  0.00    -0.401 OA
HETATM   28  H   UNL     1      40.218 -13.885   6.806  1.00  0.00     0.209 HD
ENDBRANCH  26  27
ENDBRANCH  25  26
ENDBRANCH  24  25
ENDBRANCH  22  24
ENDBRANCH   7  22
TORSDOF 8
ENDMDL
MODEL 8
REMARK VINA RESULT:      -7.3      3.187      5.256
REMARK  8 active torsions:
REMARK  status: ('A' for Active; 'I' for Inactive)
REMARK    1  A    between atoms: C_7  and  N_8 
REMARK    2  A    between atoms: N_8  and  C_9 
REMARK    3  A    between atoms: C_9  and  C_10 
REMARK    4  A    between atoms: C_10  and  C_11 
REMARK    5  A    between atoms: C_11  and  O_12 
REMARK    6  A    between atoms: C_14  and  N_15 
REMARK    7  A    between atoms: N_15  and  C_16 
REMARK    8  A    between atoms: C_16  and  C_17 
ROOT
HETATM    1  C   UNL     1      40.092 -15.586   0.929  1.00  0.00     0.001 A 
HETATM    2  C   UNL     1      40.715 -15.747   2.169  1.00  0.00     0.017 A 
HETATM    3  C   UNL     1      41.463 -14.697   2.750  1.00  0.00     0.032 A 
HETATM    4  C   UNL     1      41.518 -13.468   2.066  1.00  0.00     0.062 A 
HETATM    5  N   UNL     1      42.174 -12.440   2.617  1.00  0.00    -0.189 N 
HETATM    6  H   UNL     1      42.245 -11.556   2.134  1.00  0.00     0.184 HD
HETATM    7  C   UNL     1      42.784 -12.547   3.796  1.00  0.00     0.702 A 
HETATM    8  N   UNL     1      42.791 -13.695   4.497  1.00  0.00    -0.052 NA
HETATM    9  C   UNL     1      42.147 -14.755   3.979  1.00  0.00     0.135 A 
HETATM   10  C   UNL     1      40.892 -13.314   0.819  1.00  0.00     0.031 A 
HETATM   11  C   UNL     1      40.188 -14.375   0.251  1.00  0.00     0.002 A 
ENDROOT
BRANCH   9  12
HETATM   12  N   UNL     1      42.210 -15.907   4.765  1.00  0.00    -0.272 NA
HETATM   13  H   UNL     1      41.818 -15.637   5.669  1.00  0.00     0.129 HD
BRANCH  12  14
HETATM   14  C   UNL     1      43.576 -16.394   4.992  1.00  0.00     0.132 C 
BRANCH  14  15
HETATM   15  C   UNL     1      43.686 -17.811   4.477  1.00  0.00    -0.045 A 
HETATM   16  C   UNL     1      43.949 -18.873   5.358  1.00  0.00     0.011 A 
HETATM   17  C   UNL     1      44.073 -20.176   4.873  1.00  0.00     0.043 A 
HETATM   18  C   UNL     1      43.949 -20.417   3.510  1.00  0.00     0.116 A 
HETATM   19  F   UNL     1      44.072 -21.666   3.045  1.00  0.00    -0.206 F 
HETATM   20  C   UNL     1      43.702 -19.378   2.620  1.00  0.00     0.043 A 
HETATM   21  C   UNL     1      43.574 -18.074   3.100  1.00  0.00     0.011 A 
ENDBRANCH  14  15
ENDBRANCH  12  14
ENDBRANCH   9  12
BRANCH   7  22
HETATM   22  N   UNL     1      43.457 -11.437   4.253  1.00  0.00    -0.224 N 
HETATM   23  H   UNL     1      42.933 -10.637   4.585  1.00  0.00     0.177 HD
BRANCH  22  24
HETATM   24  C   UNL     1      44.785 -11.580   4.849  1.00  0.00     0.140 C 
BRANCH  24  25
HETATM   25  C   UNL     1      44.787 -11.210   6.329  1.00  0.00     0.046 C 
BRANCH  25  26
HETATM   26  C   UNL     1      43.416 -10.815   6.856  1.00  0.00     0.165 C 
BRANCH  26  27
HETATM   27  O   UNL     1      42.669 -11.986   7.146  1.00  0.00    -0.401 OA
HETATM   28  H   UNL     1      42.437 -11.974   8.093  1.00  0.00     0.209 HD
ENDBRANCH  26  27
ENDBRANCH  25  26
ENDBRANCH  24  25
ENDBRANCH  22  24
ENDBRANCH   7  22
TORSDOF 8
ENDMDL
MODEL 9
REMARK VINA RESULT:      -7.3      4.010      7.690
REMARK  8 active torsions:
REMARK  status: ('A' for Active; 'I' for Inactive)
REMARK    1  A    between atoms: C_7  and  N_8 
REMARK    2  A    between atoms: N_8  and  C_9 
REMARK    3  A    between atoms: C_9  and  C_10 
REMARK    4  A    between atoms: C_10  and  C_11 
REMARK    5  A    between atoms: C_11  and  O_12 
REMARK    6  A    between atoms: C_14  and  N_15 
REMARK    7  A    between atoms: N_15  and  C_16 
REMARK    8  A    between atoms: C_16  and  C_17 
ROOT
HETATM    1  C   UNL     1      43.739 -19.135   2.672  1.00  0.00     0.001 A 
HETATM    2  C   UNL     1      43.252 -17.946   2.124  1.00  0.00     0.017 A 
HETATM    3  C   UNL     1      43.102 -16.785   2.918  1.00  0.00     0.032 A 
HETATM    4  C   UNL     1      43.506 -16.850   4.264  1.00  0.00     0.062 A 
HETATM    5  N   UNL     1      43.426 -15.753   5.026  1.00  0.00    -0.189 N 
HETATM    6  H   UNL     1      43.689 -15.781   6.001  1.00  0.00     0.184 HD
HETATM    7  C   UNL     1      42.967 -14.597   4.548  1.00  0.00     0.702 A 
HETATM    8  N   UNL     1      42.544 -14.466   3.278  1.00  0.00    -0.052 NA
HETATM    9  C   UNL     1      42.604 -15.545   2.477  1.00  0.00     0.135 A 
HETATM   10  C   UNL     1      43.992 -18.049   4.810  1.00  0.00     0.031 A 
HETATM   11  C   UNL     1      44.099 -19.189   4.015  1.00  0.00     0.002 A 
ENDROOT
BRANCH   9  12
HETATM   12  N   UNL     1      42.139 -15.325   1.180  1.00  0.00    -0.272 NA
HETATM   13  H   UNL     1      42.565 -14.444   0.887  1.00  0.00     0.129 HD
BRANCH  12  14
HETATM   14  C   UNL     1      40.681 -15.173   1.091  1.00  0.00     0.132 C 
BRANCH  14  15
HETATM   15  C   UNL     1      40.349 -14.274  -0.077  1.00  0.00    -0.045 A 
HETATM   16  C   UNL     1      40.813 -12.948  -0.112  1.00  0.00     0.011 A 
HETATM   17  C   UNL     1      40.483 -12.115  -1.183  1.00  0.00     0.043 A 
HETATM   18  C   UNL     1      39.681 -12.600  -2.209  1.00  0.00     0.116 A 
HETATM   19  F   UNL     1      39.362 -11.799  -3.233  1.00  0.00    -0.206 F 
HETATM   20  C   UNL     1      39.201 -13.904  -2.186  1.00  0.00     0.043 A 
HETATM   21  C   UNL     1      39.530 -14.741  -1.120  1.00  0.00     0.011 A 
ENDBRANCH  14  15
ENDBRANCH  12  14
ENDBRANCH   9  12
BRANCH   7  22
HETATM   22  N   UNL     1      42.896 -13.542   5.428  1.00  0.00    -0.224 N 
HETATM   23  H   UNL     1      42.043 -13.000   5.491  1.00  0.00     0.177 HD
BRANCH  22  24
HETATM   24  C   UNL     1      43.694 -13.557   6.653  1.00  0.00     0.140 C 
BRANCH  24  25
HETATM   25  C   UNL     1      44.189 -12.162   7.026  1.00  0.00     0.046 C 
BRANCH  25  26
HETATM   26  C   UNL     1      45.077 -11.531   5.964  1.00  0.00     0.165 C 
BRANCH  26  27
HETATM   27  O   UNL     1      44.281 -11.153   4.852  1.00  0.00    -0.401 OA
HETATM   28  H   UNL     1      44.563 -10.265   4.562  1.00  0.00     0.209 HD
ENDBRANCH  26  27
ENDBRANCH  25  26
ENDBRANCH  24  25
ENDBRANCH  22  24
ENDBRANCH   7  22
TORSDOF 8
ENDMDL
MODEL 10
REMARK VINA RESULT:      -7.2      3.670      5.778
REMARK  8 active torsions:
REMARK  status: ('A' for Active; 'I' for Inactive)
REMARK    1  A    between atoms: C_7  and  N_8 
REMARK    2  A    between atoms: N_8  and  C_9 
REMARK    3  A    between atoms: C_9  and  C_10 
REMARK    4  A    between atoms: C_10  and  C_11 
REMARK    5  A    between atoms: C_11  and  O_12 
REMARK    6  A    between atoms: C_14  and  N_15 
REMARK    7  A    between atoms: N_15  and  C_16 
REMARK    8  A    between atoms: C_16  and  C_17 
ROOT
HETATM    1  C   UNL     1      39.080 -12.444   2.795  1.00  0.00     0.001 A 
HETATM    2  C   UNL     1      39.904 -13.524   3.117  1.00  0.00     0.017 A 
HETATM    3  C   UNL     1      40.867 -13.424   4.148  1.00  0.00     0.032 A 
HETATM    4  C   UNL     1      40.934 -12.220   4.873  1.00  0.00     0.062 A 
HETATM    5  N   UNL     1      41.799 -12.115   5.889  1.00  0.00    -0.189 N 
HETATM    6  H   UNL     1      41.881 -11.253   6.410  1.00  0.00     0.184 HD
HETATM    7  C   UNL     1      42.606 -13.118   6.232  1.00  0.00     0.702 A 
HETATM    8  N   UNL     1      42.612 -14.289   5.571  1.00  0.00    -0.052 NA
HETATM    9  C   UNL     1      41.761 -14.438   4.541  1.00  0.00     0.135 A 
HETATM   10  C   UNL     1      40.105 -11.137   4.543  1.00  0.00     0.031 A 
HETATM   11  C   UNL     1      39.186 -11.249   3.501  1.00  0.00     0.002 A 
ENDROOT
BRANCH   9  12
HETATM   12  N   UNL     1      41.837 -15.679   3.906  1.00  0.00    -0.272 NA
HETATM   13  H   UNL     1      41.660 -16.367   4.640  1.00  0.00     0.129 HD
BRANCH  12  14
HETATM   14  C   UNL     1      43.154 -15.966   3.325  1.00  0.00     0.132 C 
BRANCH  14  15
HETATM   15  C   UNL     1      43.387 -17.459   3.344  1.00  0.00    -0.045 A 
HETATM   16  C   UNL     1      43.993 -18.073   4.452  1.00  0.00     0.011 A 
HETATM   17  C   UNL     1      44.227 -19.450   4.453  1.00  0.00     0.043 A 
HETATM   18  C   UNL     1      43.868 -20.209   3.346  1.00  0.00     0.116 A 
HETATM   19  F   UNL     1      44.096 -21.528   3.347  1.00  0.00    -0.206 F 
HETATM   20  C   UNL     1      43.279 -19.618   2.235  1.00  0.00     0.043 A 
HETATM   21  C   UNL     1      43.041 -18.243   2.229  1.00  0.00     0.011 A 
ENDBRANCH  14  15
ENDBRANCH  12  14
ENDBRANCH   9  12
BRANCH   7  22
HETATM   22  N   UNL     1      43.479 -12.889   7.270  1.00  0.00    -0.224 N 
HETATM   23  H   UNL     1      43.651 -13.620   7.949  1.00  0.00     0.177 HD
BRANCH  22  24
HETATM   24  C   UNL     1      44.586 -11.948   7.102  1.00  0.00     0.140 C 
BRANCH  24  25
HETATM   25  C   UNL     1      44.590 -10.873   8.184  1.00  0.00     0.046 C 
BRANCH  25  26
HETATM   26  C   UNL     1      43.579  -9.763   7.938  1.00  0.00     0.165 C 
BRANCH  26  27
HETATM   27  O   UNL     1      42.281 -10.226   8.276  1.00  0.00    -0.401 OA
HETATM   28  H   UNL     1      42.365 -10.854   9.016  1.00  0.00     0.209 HD
ENDBRANCH  26  27
ENDBRANCH  25  26
ENDBRANCH  24  25
ENDBRANCH  22  24
ENDBRANCH   7  22
TORSDOF 8
ENDMDL
