MODEL 1
REMARK VINA RESULT:      -8.8      0.000      0.000
REMARK  9 active torsions:
REMARK  status: ('A' for Active; 'I' for Inactive)
REMARK    1  A    between atoms: O_2  and  C_3 
REMARK    2  A    between atoms: C_4  and  O_5 
REMARK    3  A    between atoms: C_8  and  C_9 
REMARK    4  A    between atoms: C_9  and  C_10 
REMARK    5  A    between atoms: C_10  and  N_11 
REMARK       I    between atoms: N_11  and  C_12 
REMARK    6  A    between atoms: C_12  and  C_13 
REMARK    7  A    between atoms: C_13  and  C_14 
REMARK    8  A    between atoms: N_21  and  C_22 
REMARK    9  A    between atoms: C_22  and  C_23 
REMARK       I    between atoms: C_23  and  N_24 
ROOT
HETATM    1  C   UNL     1      40.999 -12.967   3.329  1.00  0.00     0.048 C 
HETATM    2  C   UNL     1      41.081 -13.855   4.452  1.00  0.00     0.006 A 
HETATM    3  C   UNL     1      42.005 -13.307   5.352  1.00  0.00     0.045 A 
HETATM    4  C   UNL     1      42.312 -13.921   6.579  1.00  0.00     0.030 A 
HETATM    5  C   UNL     1      41.684 -15.128   6.893  1.00  0.00     0.002 A 
HETATM    6  C   UNL     1      40.770 -15.700   6.018  1.00  0.00     0.001 A 
HETATM    7  C   UNL     1      40.458 -15.075   4.805  1.00  0.00     0.015 A 
HETATM    8  N   UNL     1      42.467 -12.132   4.798  1.00  0.00    -0.346 N 
HETATM    9  C   UNL     1      41.939 -11.973   3.548  1.00  0.00     0.108 C 
ENDROOT
BRANCH   1  10
HETATM   10  C   UNL     1      40.158 -12.997   2.135  1.00  0.00     0.251 C 
HETATM   11  O   UNL     1      38.928 -12.979   2.210  1.00  0.00    -0.281 OA
BRANCH  10  12
HETATM   12  C   UNL     1      40.759 -13.080   0.729  1.00  0.00     0.292 C 
HETATM   13  N   UNL     1      41.331 -14.271   0.328  1.00  0.00    -0.354 N 
HETATM   14  H   UNL     1      41.850 -14.184  -0.538  1.00  0.00     0.162 HD
HETATM   15  O   UNL     1      40.751 -12.103  -0.008  1.00  0.00    -0.264 OA
BRANCH  13  16
HETATM   16  C   UNL     1      41.595 -15.401   1.202  1.00  0.00     0.127 C 
BRANCH  16  17
HETATM   17  C   UNL     1      43.049 -15.432   1.673  1.00  0.00     0.058 C 
BRANCH  17  18
HETATM   18  C   UNL     1      43.323 -16.618   2.563  1.00  0.00    -0.054 A 
HETATM   19  C   UNL     1      43.621 -16.434   3.922  1.00  0.00     0.046 A 
HETATM   20  C   UNL     1      43.908 -17.520   4.768  1.00  0.00     0.102 A 
HETATM   21  C   UNL     1      43.896 -18.819   4.228  1.00  0.00     0.101 A 
HETATM   22  C   UNL     1      43.610 -18.995   2.867  1.00  0.00     0.040 A 
HETATM   23  C   UNL     1      43.323 -17.911   2.040  1.00  0.00     0.010 A 
BRANCH  20  24
HETATM   24  O   UNL     1      44.222 -17.368   6.092  1.00  0.00    -0.353 OA
HETATM   25  C   UNL     1      45.088 -16.304   6.465  1.00  0.00     0.210 C 
ENDBRANCH  20  24
BRANCH  21  26
HETATM   26  O   UNL     1      44.152 -20.010   4.857  1.00  0.00    -0.353 OA
HETATM   27  C   UNL     1      43.917 -21.219   4.152  1.00  0.00     0.210 C 
ENDBRANCH  21  26
ENDBRANCH  17  18
ENDBRANCH  16  17
ENDBRANCH  13  16
ENDBRANCH  10  12
ENDBRANCH   1  10
BRANCH   8  28
HETATM   28  C   UNL     1      43.416 -11.214   5.411  1.00  0.00     0.231 C 
BRANCH  28  29
HETATM   29  C   UNL     1      42.748 -10.267   6.395  1.00  0.00     0.238 C 
HETATM   30  N   UNL     1      43.123 -10.270   7.741  1.00  0.00    -0.351 N 
HETATM   31  C   UNL     1      42.471  -9.317   8.643  1.00  0.00     0.126 C 
HETATM   32  C   UNL     1      44.127 -11.154   8.344  1.00  0.00     0.126 C 
HETATM   33  C   UNL     1      43.433  -8.342   9.328  1.00  0.00     0.020 C 
HETATM   34  C   UNL     1      44.259  -8.999  10.432  1.00  0.00     0.002 C 
HETATM   35  C   UNL     1      45.518  -9.723   9.959  1.00  0.00     0.002 C 
HETATM   36  C   UNL     1      45.443 -10.427   8.607  1.00  0.00     0.020 C 
HETATM   37  O   UNL     1      41.859  -9.514   5.976  1.00  0.00    -0.272 OA
ENDBRANCH  28  29
ENDBRANCH   8  28
TORSDOF 9
ENDMDL
MODEL 2
REMARK VINA RESULT:      -8.7      2.441      4.466
REMARK  9 active torsions:
REMARK  status: ('A' for Active; 'I' for Inactive)
REMARK    1  A    between atoms: O_2  and  C_3 
REMARK    2  A    between atoms: C_4  and  O_5 
REMARK    3  A    between atoms: C_8  and  C_9 
REMARK    4  A    between atoms: C_9  and  C_10 
REMARK    5  A    between atoms: C_10  and  N_11 
REMARK       I    between atoms: N_11  and  C_12 
REMARK    6  A    between atoms: C_12  and  C_13 
REMARK    7  A    between atoms: C_13  and  C_14 
REMARK    8  A    between atoms: N_21  and  C_22 
REMARK    9  A    between atoms: C_22  and  C_23 
REMARK       I    between atoms: C_23  and  N_24 
ROOT
HETATM    1  C   UNL     1      42.058 -11.133   6.342  1.00  0.00     0.048 C 
HETATM    2  C   UNL     1      43.426 -10.928   6.722  1.00  0.00     0.006 A 
HETATM    3  C   UNL     1      43.448  -9.884   7.659  1.00  0.00     0.045 A 
HETATM    4  C   UNL     1      44.639  -9.437   8.255  1.00  0.00     0.030 A 
HETATM    5  C   UNL     1      45.838 -10.046   7.882  1.00  0.00     0.002 A 
HETATM    6  C   UNL     1      45.851 -11.076   6.951  1.00  0.00     0.001 A 
HETATM    7  C   UNL     1      44.658 -11.528   6.372  1.00  0.00     0.015 A 
HETATM    8  N   UNL     1      42.145  -9.471   7.839  1.00  0.00    -0.346 N 
HETATM    9  C   UNL     1      41.323 -10.151   6.985  1.00  0.00     0.108 C 
ENDROOT
BRANCH   1  10
HETATM   10  C   UNL     1      41.441 -12.120   5.460  1.00  0.00     0.251 C 
HETATM   11  O   UNL     1      41.691 -12.155   4.254  1.00  0.00    -0.281 OA
BRANCH  10  12
HETATM   12  C   UNL     1      40.430 -13.145   5.982  1.00  0.00     0.292 C 
HETATM   13  N   UNL     1      40.908 -14.289   6.589  1.00  0.00    -0.354 N 
HETATM   14  H   UNL     1      40.184 -14.980   6.745  1.00  0.00     0.162 HD
HETATM   15  O   UNL     1      39.228 -12.959   5.841  1.00  0.00    -0.264 OA
BRANCH  13  16
HETATM   16  C   UNL     1      42.300 -14.705   6.596  1.00  0.00     0.127 C 
BRANCH  16  17
HETATM   17  C   UNL     1      42.451 -16.187   6.942  1.00  0.00     0.058 C 
BRANCH  17  18
HETATM   18  C   UNL     1      42.970 -16.984   5.772  1.00  0.00    -0.054 A 
HETATM   19  C   UNL     1      42.864 -16.480   4.466  1.00  0.00     0.046 A 
HETATM   20  C   UNL     1      43.314 -17.214   3.354  1.00  0.00     0.102 A 
HETATM   21  C   UNL     1      43.882 -18.483   3.566  1.00  0.00     0.101 A 
HETATM   22  C   UNL     1      43.974 -18.986   4.872  1.00  0.00     0.040 A 
HETATM   23  C   UNL     1      43.527 -18.247   5.966  1.00  0.00     0.010 A 
BRANCH  20  24
HETATM   24  O   UNL     1      43.205 -16.756   2.068  1.00  0.00    -0.353 OA
HETATM   25  C   UNL     1      43.376 -15.366   1.827  1.00  0.00     0.210 C 
ENDBRANCH  20  24
BRANCH  21  26
HETATM   26  O   UNL     1      44.374 -19.367   2.641  1.00  0.00    -0.353 OA
HETATM   27  C   UNL     1      43.481 -20.287   2.033  1.00  0.00     0.210 C 
ENDBRANCH  21  26
ENDBRANCH  17  18
ENDBRANCH  16  17
ENDBRANCH  13  16
ENDBRANCH  10  12
ENDBRANCH   1  10
BRANCH   8  28
HETATM   28  C   UNL     1      41.698  -8.432   8.755  1.00  0.00     0.231 C 
BRANCH  28  29
HETATM   29  C   UNL     1      40.855  -8.989   9.891  1.00  0.00     0.238 C 
HETATM   30  N   UNL     1      41.433  -9.240  11.139  1.00  0.00    -0.351 N 
HETATM   31  C   UNL     1      40.571  -9.748  12.210  1.00  0.00     0.126 C 
HETATM   32  C   UNL     1      42.845  -9.037  11.481  1.00  0.00     0.126 C 
HETATM   33  C   UNL     1      40.508  -8.846  13.446  1.00  0.00     0.020 C 
HETATM   34  C   UNL     1      41.782  -8.901  14.287  1.00  0.00     0.002 C 
HETATM   35  C   UNL     1      42.910  -7.982  13.820  1.00  0.00     0.002 C 
HETATM   36  C   UNL     1      43.055  -7.777  12.314  1.00  0.00     0.020 C 
HETATM   37  O   UNL     1      39.660  -9.228   9.675  1.00  0.00    -0.272 OA
ENDBRANCH  28  29
ENDBRANCH   8  28
TORSDOF 9
ENDMDL
MODEL 3
REMARK VINA RESULT:      -8.5      2.323      3.807
REMARK  9 active torsions:
REMARK  status: ('A' for Active; 'I' for Inactive)
REMARK    1  A    between atoms: O_2  and  C_3 
REMARK    2  A    between atoms: C_4  and  O_5 
REMARK    3  A    between atoms: C_8  and  C_9 
REMARK    4  A    between atoms: C_9  and  C_10 
REMARK    5  A    between atoms: C_10  and  N_11 
REMARK       I    between atoms: N_11  and  C_12 
REMARK    6  A    between atoms: C_12  and  C_13 
REMARK    7  A    between atoms: C_13  and  C_14 
REMARK    8  A    between atoms: N_21  and  C_22 
REMARK    9  A    between atoms: C_22  and  C_23 
REMARK       I    between atoms: C_23  and  N_24 
ROOT
HETATM    1  C   UNL     1      41.523 -10.841   6.014  1.00  0.00     0.048 C 
HETATM    2  C   UNL     1      42.867 -11.049   6.470  1.00  0.00     0.006 A 
HETATM    3  C   UNL     1      43.069 -10.210   7.575  1.00  0.00     0.045 A 
HETATM    4  C   UNL     1      44.284 -10.178   8.280  1.00  0.00     0.030 A 
HETATM    5  C   UNL     1      45.326 -10.999   7.845  1.00  0.00     0.002 A 
HETATM    6  C   UNL     1      45.160 -11.835   6.749  1.00  0.00     0.001 A 
HETATM    7  C   UNL     1      43.941 -11.873   6.061  1.00  0.00     0.015 A 
HETATM    8  N   UNL     1      41.894  -9.519   7.782  1.00  0.00    -0.346 N 
HETATM    9  C   UNL     1      41.000  -9.824   6.795  1.00  0.00     0.108 C 
ENDROOT
BRANCH   1  10
HETATM   10  C   UNL     1      40.754 -11.485   4.952  1.00  0.00     0.251 C 
HETATM   11  O   UNL     1      40.517 -10.913   3.888  1.00  0.00    -0.281 OA
BRANCH  10  12
HETATM   12  C   UNL     1      40.182 -12.896   5.117  1.00  0.00     0.292 C 
HETATM   13  N   UNL     1      40.615 -13.885   4.257  1.00  0.00    -0.354 N 
HETATM   14  H   UNL     1      40.063 -14.733   4.326  1.00  0.00     0.162 HD
HETATM   15  O   UNL     1      39.342 -13.129   5.977  1.00  0.00    -0.264 OA
BRANCH  13  16
HETATM   16  C   UNL     1      41.424 -13.660   3.072  1.00  0.00     0.127 C 
BRANCH  16  17
HETATM   17  C   UNL     1      42.891 -14.020   3.304  1.00  0.00     0.058 C 
BRANCH  17  18
HETATM   18  C   UNL     1      43.101 -15.513   3.343  1.00  0.00    -0.054 A 
HETATM   19  C   UNL     1      43.381 -16.160   4.557  1.00  0.00     0.046 A 
HETATM   20  C   UNL     1      43.609 -17.546   4.618  1.00  0.00     0.102 A 
HETATM   21  C   UNL     1      43.553 -18.294   3.428  1.00  0.00     0.101 A 
HETATM   22  C   UNL     1      43.285 -17.640   2.217  1.00  0.00     0.040 A 
HETATM   23  C   UNL     1      43.057 -16.266   2.170  1.00  0.00     0.010 A 
BRANCH  20  24
HETATM   24  O   UNL     1      43.905 -18.199   5.785  1.00  0.00    -0.353 OA
HETATM   25  C   UNL     1      43.515 -17.602   7.014  1.00  0.00     0.210 C 
ENDBRANCH  20  24
BRANCH  21  26
HETATM   26  O   UNL     1      43.749 -19.639   3.251  1.00  0.00    -0.353 OA
HETATM   27  C   UNL     1      43.512 -20.202   1.971  1.00  0.00     0.210 C 
ENDBRANCH  21  26
ENDBRANCH  17  18
ENDBRANCH  16  17
ENDBRANCH  13  16
ENDBRANCH  10  12
ENDBRANCH   1  10
BRANCH   8  28
HETATM   28  C   UNL     1      41.643  -8.564   8.852  1.00  0.00     0.231 C 
BRANCH  28  29
HETATM   29  C   UNL     1      40.970  -9.209  10.054  1.00  0.00     0.238 C 
HETATM   30  N   UNL     1      41.650  -9.306  11.272  1.00  0.00    -0.351 N 
HETATM   31  C   UNL     1      40.948  -9.908  12.408  1.00  0.00     0.126 C 
HETATM   32  C   UNL     1      43.023  -8.852  11.521  1.00  0.00     0.126 C 
HETATM   33  C   UNL     1      40.799  -8.979  13.616  1.00  0.00     0.020 C 
HETATM   34  C   UNL     1      42.107  -8.782  14.380  1.00  0.00     0.002 C 
HETATM   35  C   UNL     1      43.033  -7.706  13.817  1.00  0.00     0.002 C 
HETATM   36  C   UNL     1      43.058  -7.542  12.299  1.00  0.00     0.020 C 
HETATM   37  O   UNL     1      39.824  -9.656   9.918  1.00  0.00    -0.272 OA
ENDBRANCH  28  29
ENDBRANCH   8  28
TORSDOF 9
ENDMDL
MODEL 4
REMARK VINA RESULT:      -7.8      2.671      5.065
REMARK  9 active torsions:
REMARK  status: ('A' for Active; 'I' for Inactive)
REMARK    1  A    between atoms: O_2  and  C_3 
REMARK    2  A    between atoms: C_4  and  O_5 
REMARK    3  A    between atoms: C_8  and  C_9 
REMARK    4  A    between atoms: C_9  and  C_10 
REMARK    5  A    between atoms: C_10  and  N_11 
REMARK       I    between atoms: N_11  and  C_12 
REMARK    6  A    between atoms: C_12  and  C_13 
REMARK    7  A    between atoms: C_13  and  C_14 
REMARK    8  A    between atoms: N_21  and  C_22 
REMARK    9  A    between atoms: C_22  and  C_23 
REMARK       I    between atoms: C_23  and  N_24 
ROOT
HETATM    1  C   UNL     1      42.052 -10.059   6.998  1.00  0.00     0.048 C 
HETATM    2  C   UNL     1      43.308 -10.579   6.541  1.00  0.00     0.006 A 
HETATM    3  C   UNL     1      44.251 -10.344   7.552  1.00  0.00     0.045 A 
HETATM    4  C   UNL     1      45.592 -10.748   7.436  1.00  0.00     0.030 A 
HETATM    5  C   UNL     1      45.994 -11.387   6.262  1.00  0.00     0.002 A 
HETATM    6  C   UNL     1      45.086 -11.627   5.239  1.00  0.00     0.001 A 
HETATM    7  C   UNL     1      43.748 -11.236   5.368  1.00  0.00     0.015 A 
HETATM    8  N   UNL     1      43.593  -9.705   8.582  1.00  0.00    -0.346 N 
HETATM    9  C   UNL     1      42.302  -9.450   8.216  1.00  0.00     0.108 C 
ENDROOT
BRANCH   1  10
HETATM   10  C   UNL     1      40.722 -10.086   6.395  1.00  0.00     0.251 C 
HETATM   11  O   UNL     1      40.438  -9.383   5.425  1.00  0.00    -0.281 OA
BRANCH  10  12
HETATM   12  C   UNL     1      39.603 -10.969   6.954  1.00  0.00     0.292 C 
HETATM   13  N   UNL     1      39.579 -12.303   6.600  1.00  0.00    -0.354 N 
HETATM   14  H   UNL     1      38.719 -12.765   6.872  1.00  0.00     0.162 HD
HETATM   15  O   UNL     1      38.739 -10.492   7.680  1.00  0.00    -0.264 OA
BRANCH  13  16
HETATM   16  C   UNL     1      40.412 -12.904   5.573  1.00  0.00     0.127 C 
BRANCH  16  17
HETATM   17  C   UNL     1      41.442 -13.867   6.165  1.00  0.00     0.058 C 
BRANCH  17  18
HETATM   18  C   UNL     1      41.816 -14.954   5.189  1.00  0.00    -0.054 A 
HETATM   19  C   UNL     1      41.133 -15.080   3.969  1.00  0.00     0.046 A 
HETATM   20  C   UNL     1      41.441 -16.102   3.054  1.00  0.00     0.102 A 
HETATM   21  C   UNL     1      42.461 -17.015   3.377  1.00  0.00     0.101 A 
HETATM   22  C   UNL     1      43.132 -16.890   4.603  1.00  0.00     0.040 A 
HETATM   23  C   UNL     1      42.819 -15.872   5.501  1.00  0.00     0.010 A 
BRANCH  20  24
HETATM   24  O   UNL     1      40.777 -16.262   1.867  1.00  0.00    -0.353 OA
HETATM   25  C   UNL     1      39.998 -15.179   1.375  1.00  0.00     0.210 C 
ENDBRANCH  20  24
BRANCH  21  26
HETATM   26  O   UNL     1      42.919 -18.082   2.648  1.00  0.00    -0.353 OA
HETATM   27  C   UNL     1      44.111 -18.732   3.062  1.00  0.00     0.210 C 
ENDBRANCH  21  26
ENDBRANCH  17  18
ENDBRANCH  16  17
ENDBRANCH  13  16
ENDBRANCH  10  12
ENDBRANCH   1  10
BRANCH   8  28
HETATM   28  C   UNL     1      44.181  -9.305   9.852  1.00  0.00     0.231 C 
BRANCH  28  29
HETATM   29  C   UNL     1      43.532 -10.009  11.034  1.00  0.00     0.238 C 
HETATM   30  N   UNL     1      42.678  -9.305  11.889  1.00  0.00    -0.351 N 
HETATM   31  C   UNL     1      42.053 -10.035  12.995  1.00  0.00     0.126 C 
HETATM   32  C   UNL     1      42.343  -7.881  11.777  1.00  0.00     0.126 C 
HETATM   33  C   UNL     1      40.522 -10.035  12.962  1.00  0.00     0.020 C 
HETATM   34  C   UNL     1      39.919  -8.688  13.357  1.00  0.00     0.002 C 
HETATM   35  C   UNL     1      39.826  -7.661  12.230  1.00  0.00     0.002 C 
HETATM   36  C   UNL     1      40.949  -7.667  11.196  1.00  0.00     0.020 C 
HETATM   37  O   UNL     1      43.794 -11.203  11.225  1.00  0.00    -0.272 OA
ENDBRANCH  28  29
ENDBRANCH   8  28
TORSDOF 9
ENDMDL
MODEL 5
REMARK VINA RESULT:      -7.8      4.048     10.704
REMARK  9 active torsions:
REMARK  status: ('A' for Active; 'I' for Inactive)
REMARK    1  A    between atoms: O_2  and  C_3 
REMARK    2  A    between atoms: C_4  and  O_5 
REMARK    3  A    between atoms: C_8  and  C_9 
REMARK    4  A    between atoms: C_9  and  C_10 
REMARK    5  A    between atoms: C_10  and  N_11 
REMARK       I    between atoms: N_11  and  C_12 
REMARK    6  A    between atoms: C_12  and  C_13 
REMARK    7  A    between atoms: C_13  and  C_14 
REMARK    8  A    between atoms: N_21  and  C_22 
REMARK    9  A    between atoms: C_22  and  C_23 
REMARK       I    between atoms: C_23  and  N_24 
ROOT
HETATM    1  C   UNL     1      42.141  -9.739   7.558  1.00  0.00     0.048 C 
HETATM    2  C   UNL     1      43.556  -9.924   7.701  1.00  0.00     0.006 A 
HETATM    3  C   UNL     1      43.963 -10.821   6.703  1.00  0.00     0.045 A 
HETATM    4  C   UNL     1      45.305 -11.210   6.545  1.00  0.00     0.030 A 
HETATM    5  C   UNL     1      46.254 -10.695   7.431  1.00  0.00     0.002 A 
HETATM    6  C   UNL     1      45.880  -9.811   8.435  1.00  0.00     0.001 A 
HETATM    7  C   UNL     1      44.545  -9.416   8.576  1.00  0.00     0.015 A 
HETATM    8  N   UNL     1      42.840 -11.168   5.983  1.00  0.00    -0.346 N 
HETATM    9  C   UNL     1      41.735 -10.597   6.550  1.00  0.00     0.108 C 
ENDROOT
BRANCH   1  10
HETATM   10  C   UNL     1      41.206  -8.874   8.273  1.00  0.00     0.251 C 
HETATM   11  O   UNL     1      41.259  -7.647   8.177  1.00  0.00    -0.281 OA
BRANCH  10  12
HETATM   12  C   UNL     1      40.128  -9.445   9.198  1.00  0.00     0.292 C 
HETATM   13  N   UNL     1      40.457  -9.696  10.515  1.00  0.00    -0.354 N 
HETATM   14  H   UNL     1      39.745 -10.228  11.002  1.00  0.00     0.162 HD
HETATM   15  O   UNL     1      39.008  -9.694   8.768  1.00  0.00    -0.264 OA
BRANCH  13  16
HETATM   16  C   UNL     1      41.805  -9.654  11.056  1.00  0.00     0.127 C 
BRANCH  16  17
HETATM   17  C   UNL     1      41.829  -9.964  12.553  1.00  0.00     0.058 C 
BRANCH  17  18
HETATM   18  C   UNL     1      41.706  -8.712  13.384  1.00  0.00    -0.054 A 
HETATM   19  C   UNL     1      40.442  -8.224  13.750  1.00  0.00     0.046 A 
HETATM   20  C   UNL     1      40.296  -7.044  14.501  1.00  0.00     0.102 A 
HETATM   21  C   UNL     1      41.452  -6.342  14.889  1.00  0.00     0.101 A 
HETATM   22  C   UNL     1      42.711  -6.829  14.510  1.00  0.00     0.040 A 
HETATM   23  C   UNL     1      42.842  -8.002  13.768  1.00  0.00     0.010 A 
BRANCH  20  24
HETATM   24  O   UNL     1      39.076  -6.533  14.854  1.00  0.00    -0.353 OA
HETATM   25  C   UNL     1      38.392  -5.707  13.921  1.00  0.00     0.210 C 
ENDBRANCH  20  24
BRANCH  21  26
HETATM   26  O   UNL     1      41.548  -5.178  15.608  1.00  0.00    -0.353 OA
HETATM   27  C   UNL     1      41.540  -5.248  17.025  1.00  0.00     0.210 C 
ENDBRANCH  21  26
ENDBRANCH  17  18
ENDBRANCH  16  17
ENDBRANCH  13  16
ENDBRANCH  10  12
ENDBRANCH   1  10
BRANCH   8  28
HETATM   28  C   UNL     1      42.806 -12.050   4.826  1.00  0.00     0.231 C 
BRANCH  28  29
HETATM   29  C   UNL     1      42.648 -13.510   5.219  1.00  0.00     0.238 C 
HETATM   30  N   UNL     1      42.355 -14.473   4.249  1.00  0.00    -0.351 N 
HETATM   31  C   UNL     1      42.244 -15.871   4.674  1.00  0.00     0.126 C 
HETATM   32  C   UNL     1      42.148 -14.208   2.821  1.00  0.00     0.126 C 
HETATM   33  C   UNL     1      43.238 -16.815   3.992  1.00  0.00     0.020 C 
HETATM   34  C   UNL     1      42.878 -17.108   2.537  1.00  0.00     0.002 C 
HETATM   35  C   UNL     1      43.356 -16.067   1.526  1.00  0.00     0.002 C 
HETATM   36  C   UNL     1      43.358 -14.610   1.984  1.00  0.00     0.020 C 
HETATM   37  O   UNL     1      42.767 -13.814   6.413  1.00  0.00    -0.272 OA
ENDBRANCH  28  29
ENDBRANCH   8  28
TORSDOF 9
ENDMDL
MODEL 6
REMARK VINA RESULT:      -7.7      3.200      9.664
REMARK  9 active torsions:
REMARK  status: ('A' for Active; 'I' for Inactive)
REMARK    1  A    between atoms: O_2  and  C_3 
REMARK    2  A    between atoms: C_4  and  O_5 
REMARK    3  A    between atoms: C_8  and  C_9 
REMARK    4  A    between atoms: C_9  and  C_10 
REMARK    5  A    between atoms: C_10  and  N_11 
REMARK       I    between atoms: N_11  and  C_12 
REMARK    6  A    between atoms: C_12  and  C_13 
REMARK    7  A    between atoms: C_13  and  C_14 
REMARK    8  A    between atoms: N_21  and  C_22 
REMARK    9  A    between atoms: C_22  and  C_23 
REMARK       I    between atoms: C_23  and  N_24 
ROOT
HETATM    1  C   UNL     1      43.153  -9.618   7.314  1.00  0.00     0.048 C 
HETATM    2  C   UNL     1      41.743  -9.816   7.479  1.00  0.00     0.006 A 
HETATM    3  C   UNL     1      41.334 -10.745   6.512  1.00  0.00     0.045 A 
HETATM    4  C   UNL     1      40.003 -11.182   6.405  1.00  0.00     0.030 A 
HETATM    5  C   UNL     1      39.058 -10.651   7.285  1.00  0.00     0.002 A 
HETATM    6  C   UNL     1      39.429  -9.722   8.249  1.00  0.00     0.001 A 
HETATM    7  C   UNL     1      40.761  -9.304   8.359  1.00  0.00     0.015 A 
HETATM    8  N   UNL     1      42.453 -11.098   5.787  1.00  0.00    -0.346 N 
HETATM    9  C   UNL     1      43.524 -10.357   6.202  1.00  0.00     0.108 C 
ENDROOT
BRANCH   1  10
HETATM   10  C   UNL     1      44.111  -8.821   8.077  1.00  0.00     0.251 C 
HETATM   11  O   UNL     1      43.934  -7.619   8.279  1.00  0.00    -0.281 OA
BRANCH  10  12
HETATM   12  C   UNL     1      45.396  -9.432   8.643  1.00  0.00     0.292 C 
HETATM   13  N   UNL     1      45.319 -10.155   9.816  1.00  0.00    -0.354 N 
HETATM   14  H   UNL     1      46.230 -10.372  10.203  1.00  0.00     0.162 HD
HETATM   15  O   UNL     1      46.467  -9.259   8.076  1.00  0.00    -0.264 OA
BRANCH  13  16
HETATM   16  C   UNL     1      44.150 -10.219  10.676  1.00  0.00     0.127 C 
BRANCH  16  17
HETATM   17  C   UNL     1      44.014  -8.973  11.550  1.00  0.00     0.058 C 
BRANCH  17  18
HETATM   18  C   UNL     1      42.591  -8.479  11.603  1.00  0.00    -0.054 A 
HETATM   19  C   UNL     1      41.552  -9.343  11.985  1.00  0.00     0.046 A 
HETATM   20  C   UNL     1      40.213  -8.917  12.015  1.00  0.00     0.102 A 
HETATM   21  C   UNL     1      39.916  -7.591  11.651  1.00  0.00     0.101 A 
HETATM   22  C   UNL     1      40.956  -6.737  11.259  1.00  0.00     0.040 A 
HETATM   23  C   UNL     1      42.281  -7.170  11.236  1.00  0.00     0.010 A 
BRANCH  20  24
HETATM   24  O   UNL     1      39.178  -9.744  12.363  1.00  0.00    -0.353 OA
HETATM   25  C   UNL     1      39.478 -10.957  13.038  1.00  0.00     0.210 C 
ENDBRANCH  20  24
BRANCH  21  26
HETATM   26  O   UNL     1      38.695  -6.969  11.599  1.00  0.00    -0.353 OA
HETATM   27  C   UNL     1      38.087  -6.555  12.812  1.00  0.00     0.210 C 
ENDBRANCH  21  26
ENDBRANCH  17  18
ENDBRANCH  16  17
ENDBRANCH  13  16
ENDBRANCH  10  12
ENDBRANCH   1  10
BRANCH   8  28
HETATM   28  C   UNL     1      42.498 -12.069   4.704  1.00  0.00     0.231 C 
BRANCH  28  29
HETATM   29  C   UNL     1      42.620 -13.496   5.214  1.00  0.00     0.238 C 
HETATM   30  N   UNL     1      42.374 -14.573   4.358  1.00  0.00    -0.351 N 
HETATM   31  C   UNL     1      42.535 -15.929   4.889  1.00  0.00     0.126 C 
HETATM   32  C   UNL     1      41.965 -14.469   2.953  1.00  0.00     0.126 C 
HETATM   33  C   UNL     1      43.581 -16.771   4.154  1.00  0.00     0.020 C 
HETATM   34  C   UNL     1      43.108 -17.241   2.780  1.00  0.00     0.002 C 
HETATM   35  C   UNL     1      43.295 -16.234   1.647  1.00  0.00     0.002 C 
HETATM   36  C   UNL     1      43.120 -14.759   1.999  1.00  0.00     0.020 C 
HETATM   37  O   UNL     1      42.922 -13.673   6.402  1.00  0.00    -0.272 OA
ENDBRANCH  28  29
ENDBRANCH   8  28
TORSDOF 9
ENDMDL
MODEL 7
REMARK VINA RESULT:      -7.7      3.058      5.796
REMARK  9 active torsions:
REMARK  status: ('A' for Active; 'I' for Inactive)
REMARK    1  A    between atoms: O_2  and  C_3 
REMARK    2  A    between atoms: C_4  and  O_5 
REMARK    3  A    between atoms: C_8  and  C_9 
REMARK    4  A    between atoms: C_9  and  C_10 
REMARK    5  A    between atoms: C_10  and  N_11 
REMARK       I    between atoms: N_11  and  C_12 
REMARK    6  A    between atoms: C_12  and  C_13 
REMARK    7  A    between atoms: C_13  and  C_14 
REMARK    8  A    between atoms: N_21  and  C_22 
REMARK    9  A    between atoms: C_22  and  C_23 
REMARK       I    between atoms: C_23  and  N_24 
ROOT
HETATM    1  C   UNL     1      40.655 -11.864  -1.842  1.00  0.00     0.048 C 
HETATM    2  C   UNL     1      40.896 -10.599  -2.473  1.00  0.00     0.006 A 
HETATM    3  C   UNL     1      41.315  -9.707  -1.476  1.00  0.00     0.045 A 
HETATM    4  C   UNL     1      41.656  -8.373  -1.758  1.00  0.00     0.030 A 
HETATM    5  C   UNL     1      41.550  -7.925  -3.076  1.00  0.00     0.002 A 
HETATM    6  C   UNL     1      41.130  -8.782  -4.085  1.00  0.00     0.001 A 
HETATM    7  C   UNL     1      40.808 -10.115  -3.799  1.00  0.00     0.015 A 
HETATM    8  N   UNL     1      41.328 -10.402  -0.286  1.00  0.00    -0.346 N 
HETATM    9  C   UNL     1      40.844 -11.665  -0.484  1.00  0.00     0.108 C 
ENDROOT
BRANCH   1  10
HETATM   10  C   UNL     1      40.270 -13.160  -2.395  1.00  0.00     0.251 C 
HETATM   11  O   UNL     1      40.963 -13.735  -3.236  1.00  0.00    -0.281 OA
BRANCH  10  12
HETATM   12  C   UNL     1      38.973 -13.859  -1.980  1.00  0.00     0.292 C 
HETATM   13  N   UNL     1      38.952 -14.548  -0.784  1.00  0.00    -0.354 N 
HETATM   14  H   UNL     1      38.120 -15.116  -0.673  1.00  0.00     0.162 HD
HETATM   15  O   UNL     1      37.988 -13.825  -2.707  1.00  0.00    -0.264 OA
BRANCH  13  16
HETATM   16  C   UNL     1      40.122 -14.840   0.027  1.00  0.00     0.127 C 
BRANCH  16  17
HETATM   17  C   UNL     1      39.874 -16.002   0.989  1.00  0.00     0.058 C 
BRANCH  17  18
HETATM   18  C   UNL     1      40.864 -16.007   2.126  1.00  0.00    -0.054 A 
HETATM   19  C   UNL     1      40.435 -16.247   3.441  1.00  0.00     0.046 A 
HETATM   20  C   UNL     1      41.332 -16.229   4.524  1.00  0.00     0.102 A 
HETATM   21  C   UNL     1      42.690 -15.963   4.273  1.00  0.00     0.101 A 
HETATM   22  C   UNL     1      43.110 -15.713   2.959  1.00  0.00     0.040 A 
HETATM   23  C   UNL     1      42.213 -15.736   1.894  1.00  0.00     0.010 A 
BRANCH  20  24
HETATM   24  O   UNL     1      40.938 -16.438   5.819  1.00  0.00    -0.353 OA
HETATM   25  C   UNL     1      40.175 -15.429   6.466  1.00  0.00     0.210 C 
ENDBRANCH  20  24
BRANCH  21  26
HETATM   26  O   UNL     1      43.728 -15.888   5.166  1.00  0.00    -0.353 OA
HETATM   27  C   UNL     1      44.503 -17.051   5.413  1.00  0.00     0.210 C 
ENDBRANCH  21  26
ENDBRANCH  17  18
ENDBRANCH  16  17
ENDBRANCH  13  16
ENDBRANCH  10  12
ENDBRANCH   1  10
BRANCH   8  28
HETATM   28  C   UNL     1      41.737  -9.874   1.008  1.00  0.00     0.231 C 
BRANCH  28  29
HETATM   29  C   UNL     1      40.891 -10.421   2.147  1.00  0.00     0.238 C 
HETATM   30  N   UNL     1      41.399 -11.418   2.985  1.00  0.00    -0.351 N 
HETATM   31  C   UNL     1      40.556 -11.889   4.087  1.00  0.00     0.126 C 
HETATM   32  C   UNL     1      42.719 -12.045   2.861  1.00  0.00     0.126 C 
HETATM   33  C   UNL     1      41.171 -11.693   5.475  1.00  0.00     0.020 C 
HETATM   34  C   UNL     1      42.304 -12.675   5.768  1.00  0.00     0.002 C 
HETATM   35  C   UNL     1      43.675 -12.266   5.233  1.00  0.00     0.002 C 
HETATM   36  C   UNL     1      43.701 -11.518   3.902  1.00  0.00     0.020 C 
HETATM   37  O   UNL     1      39.747  -9.974   2.297  1.00  0.00    -0.272 OA
ENDBRANCH  28  29
ENDBRANCH   8  28
TORSDOF 9
ENDMDL
MODEL 8
REMARK VINA RESULT:      -7.7     16.287     19.708
REMARK  9 active torsions:
REMARK  status: ('A' for Active; 'I' for Inactive)
REMARK    1  A    between atoms: O_2  and  C_3 
REMARK    2  A    between atoms: C_4  and  O_5 
REMARK    3  A    between atoms: C_8  and  C_9 
REMARK    4  A    between atoms: C_9  and  C_10 
REMARK    5  A    between atoms: C_10  and  N_11 
REMARK       I    between atoms: N_11  and  C_12 
REMARK    6  A    between atoms: C_12  and  C_13 
REMARK    7  A    between atoms: C_13  and  C_14 
REMARK    8  A    between atoms: N_21  and  C_22 
REMARK    9  A    between atoms: C_22  and  C_23 
REMARK       I    between atoms: C_23  and  N_24 
ROOT
HETATM    1  C   UNL     1      49.852 -30.171  -0.029  1.00  0.00     0.048 C 
HETATM    2  C   UNL     1      50.009 -30.229   1.395  1.00  0.00     0.006 A 
HETATM    3  C   UNL     1      48.908 -29.574   1.964  1.00  0.00     0.045 A 
HETATM    4  C   UNL     1      48.737 -29.463   3.355  1.00  0.00     0.030 A 
HETATM    5  C   UNL     1      49.713 -30.011   4.189  1.00  0.00     0.002 A 
HETATM    6  C   UNL     1      50.820 -30.659   3.656  1.00  0.00     0.001 A 
HETATM    7  C   UNL     1      50.975 -30.779   2.270  1.00  0.00     0.015 A 
HETATM    8  N   UNL     1      48.114 -29.134   0.926  1.00  0.00    -0.346 N 
HETATM    9  C   UNL     1      48.722 -29.407  -0.267  1.00  0.00     0.108 C 
ENDROOT
BRANCH   1  10
HETATM   10  C   UNL     1      50.653 -30.739  -1.111  1.00  0.00     0.251 C 
HETATM   11  O   UNL     1      51.225 -30.025  -1.936  1.00  0.00    -0.281 OA
BRANCH  10  12
HETATM   12  C   UNL     1      50.801 -32.252  -1.293  1.00  0.00     0.292 C 
HETATM   13  N   UNL     1      49.994 -32.885  -2.217  1.00  0.00    -0.354 N 
HETATM   14  H   UNL     1      50.038 -33.896  -2.148  1.00  0.00     0.162 HD
HETATM   15  O   UNL     1      51.600 -32.884  -0.613  1.00  0.00    -0.264 OA
BRANCH  13  16
HETATM   16  C   UNL     1      48.868 -32.269  -2.896  1.00  0.00     0.127 C 
BRANCH  16  17
HETATM   17  C   UNL     1      47.537 -32.893  -2.477  1.00  0.00     0.058 C 
BRANCH  17  18
HETATM   18  C   UNL     1      46.495 -32.766  -3.559  1.00  0.00    -0.054 A 
HETATM   19  C   UNL     1      45.398 -33.641  -3.596  1.00  0.00     0.046 A 
HETATM   20  C   UNL     1      44.426 -33.563  -4.609  1.00  0.00     0.102 A 
HETATM   21  C   UNL     1      44.566 -32.581  -5.606  1.00  0.00     0.101 A 
HETATM   22  C   UNL     1      45.670 -31.718  -5.571  1.00  0.00     0.040 A 
HETATM   23  C   UNL     1      46.625 -31.803  -4.559  1.00  0.00     0.010 A 
BRANCH  20  24
HETATM   24  O   UNL     1      43.358 -34.417  -4.681  1.00  0.00    -0.353 OA
HETATM   25  C   UNL     1      42.822 -34.936  -3.471  1.00  0.00     0.210 C 
ENDBRANCH  20  24
BRANCH  21  26
HETATM   26  O   UNL     1      43.753 -32.331  -6.682  1.00  0.00    -0.353 OA
HETATM   27  C   UNL     1      44.238 -31.500  -7.725  1.00  0.00     0.210 C 
ENDBRANCH  21  26
ENDBRANCH  17  18
ENDBRANCH  16  17
ENDBRANCH  13  16
ENDBRANCH  10  12
ENDBRANCH   1  10
BRANCH   8  28
HETATM   28  C   UNL     1      46.844 -28.435   1.060  1.00  0.00     0.231 C 
BRANCH  28  29
HETATM   29  C   UNL     1      45.667 -29.288   0.612  1.00  0.00     0.238 C 
HETATM   30  N   UNL     1      44.945 -28.944  -0.534  1.00  0.00    -0.351 N 
HETATM   31  C   UNL     1      43.839 -29.814  -0.941  1.00  0.00     0.126 C 
HETATM   32  C   UNL     1      45.197 -27.773  -1.382  1.00  0.00     0.126 C 
HETATM   33  C   UNL     1      43.997 -30.419  -2.339  1.00  0.00     0.020 C 
HETATM   34  C   UNL     1      43.762 -29.404  -3.456  1.00  0.00     0.002 C 
HETATM   35  C   UNL     1      44.972 -28.545  -3.820  1.00  0.00     0.002 C 
HETATM   36  C   UNL     1      45.906 -28.150  -2.679  1.00  0.00     0.020 C 
HETATM   37  O   UNL     1      45.360 -30.273   1.295  1.00  0.00    -0.272 OA
ENDBRANCH  28  29
ENDBRANCH   8  28
TORSDOF 9
ENDMDL
MODEL 9
REMARK VINA RESULT:      -7.6      1.906      3.122
REMARK  9 active torsions:
REMARK  status: ('A' for Active; 'I' for Inactive)
REMARK    1  A    between atoms: O_2  and  C_3 
REMARK    2  A    between atoms: C_4  and  O_5 
REMARK    3  A    between atoms: C_8  and  C_9 
REMARK    4  A    between atoms: C_9  and  C_10 
REMARK    5  A    between atoms: C_10  and  N_11 
REMARK       I    between atoms: N_11  and  C_12 
REMARK    6  A    between atoms: C_12  and  C_13 
REMARK    7  A    between atoms: C_13  and  C_14 
REMARK    8  A    between atoms: N_21  and  C_22 
REMARK    9  A    between atoms: C_22  and  C_23 
REMARK       I    between atoms: C_23  and  N_24 
ROOT
HETATM    1  C   UNL     1      41.294 -11.034   3.953  1.00  0.00     0.048 C 
HETATM    2  C   UNL     1      42.208 -11.802   4.748  1.00  0.00     0.006 A 
HETATM    3  C   UNL     1      42.539 -11.029   5.870  1.00  0.00     0.045 A 
HETATM    4  C   UNL     1      43.407 -11.494   6.873  1.00  0.00     0.030 A 
HETATM    5  C   UNL     1      43.970 -12.763   6.727  1.00  0.00     0.002 A 
HETATM    6  C   UNL     1      43.669 -13.550   5.623  1.00  0.00     0.001 A 
HETATM    7  C   UNL     1      42.791 -13.087   4.636  1.00  0.00     0.015 A 
HETATM    8  N   UNL     1      41.853  -9.838   5.761  1.00  0.00    -0.346 N 
HETATM    9  C   UNL     1      41.182  -9.800   4.571  1.00  0.00     0.108 C 
ENDROOT
BRANCH   1  10
HETATM   10  C   UNL     1      40.577 -11.362   2.723  1.00  0.00     0.251 C 
HETATM   11  O   UNL     1      41.042 -11.098   1.614  1.00  0.00    -0.281 OA
BRANCH  10  12
HETATM   12  C   UNL     1      39.197 -12.025   2.750  1.00  0.00     0.292 C 
HETATM   13  N   UNL     1      39.126 -13.400   2.643  1.00  0.00    -0.354 N 
HETATM   14  H   UNL     1      38.180 -13.733   2.497  1.00  0.00     0.162 HD
HETATM   15  O   UNL     1      38.182 -11.345   2.839  1.00  0.00    -0.264 OA
BRANCH  13  16
HETATM   16  C   UNL     1      40.243 -14.264   2.304  1.00  0.00     0.127 C 
BRANCH  16  17
HETATM   17  C   UNL     1      39.977 -15.719   2.690  1.00  0.00     0.058 C 
BRANCH  17  18
HETATM   18  C   UNL     1      40.923 -16.195   3.762  1.00  0.00    -0.054 A 
HETATM   19  C   UNL     1      42.115 -16.852   3.418  1.00  0.00     0.046 A 
HETATM   20  C   UNL     1      43.002 -17.331   4.398  1.00  0.00     0.102 A 
HETATM   21  C   UNL     1      42.678 -17.144   5.754  1.00  0.00     0.101 A 
HETATM   22  C   UNL     1      41.479 -16.499   6.091  1.00  0.00     0.040 A 
HETATM   23  C   UNL     1      40.610 -16.025   5.111  1.00  0.00     0.010 A 
BRANCH  20  24
HETATM   24  O   UNL     1      44.161 -17.993   4.092  1.00  0.00    -0.353 OA
HETATM   25  C   UNL     1      44.164 -18.871   2.974  1.00  0.00     0.210 C 
ENDBRANCH  20  24
BRANCH  21  26
HETATM   26  O   UNL     1      43.381 -17.532   6.865  1.00  0.00    -0.353 OA
HETATM   27  C   UNL     1      43.798 -16.541   7.791  1.00  0.00     0.210 C 
ENDBRANCH  21  26
ENDBRANCH  17  18
ENDBRANCH  16  17
ENDBRANCH  13  16
ENDBRANCH  10  12
ENDBRANCH   1  10
BRANCH   8  28
HETATM   28  C   UNL     1      41.870  -8.750   6.728  1.00  0.00     0.231 C 
BRANCH  28  29
HETATM   29  C   UNL     1      40.919  -8.995   7.888  1.00  0.00     0.238 C 
HETATM   30  N   UNL     1      41.419  -9.208   9.176  1.00  0.00    -0.351 N 
HETATM   31  C   UNL     1      40.461  -9.410  10.265  1.00  0.00     0.126 C 
HETATM   32  C   UNL     1      42.839  -9.248   9.543  1.00  0.00     0.126 C 
HETATM   33  C   UNL     1      40.563  -8.376  11.390  1.00  0.00     0.020 C 
HETATM   34  C   UNL     1      41.790  -8.581  12.277  1.00  0.00     0.002 C 
HETATM   35  C   UNL     1      43.083  -7.962  11.751  1.00  0.00     0.002 C 
HETATM   36  C   UNL     1      43.285  -7.965  10.238  1.00  0.00     0.020 C 
HETATM   37  O   UNL     1      39.703  -9.019   7.658  1.00  0.00    -0.272 OA
ENDBRANCH  28  29
ENDBRANCH   8  28
TORSDOF 9
ENDMDL
MODEL 10
REMARK VINA RESULT:      -7.5      3.432     10.324
REMARK  9 active torsions:
REMARK  status: ('A' for Active; 'I' for Inactive)
REMARK    1  A    between atoms: O_2  and  C_3 
REMARK    2  A    between atoms: C_4  and  O_5 
REMARK    3  A    between atoms: C_8  and  C_9 
REMARK    4  A    between atoms: C_9  and  C_10 
REMARK    5  A    between atoms: C_10  and  N_11 
REMARK       I    between atoms: N_11  and  C_12 
REMARK    6  A    between atoms: C_12  and  C_13 
REMARK    7  A    between atoms: C_13  and  C_14 
REMARK    8  A    between atoms: N_21  and  C_22 
REMARK    9  A    between atoms: C_22  and  C_23 
REMARK       I    between atoms: C_23  and  N_24 
ROOT
HETATM    1  C   UNL     1      43.568 -10.398   7.222  1.00  0.00     0.048 C 
HETATM    2  C   UNL     1      42.283  -9.762   7.277  1.00  0.00     0.006 A 
HETATM    3  C   UNL     1      41.516 -10.276   6.222  1.00  0.00     0.045 A 
HETATM    4  C   UNL     1      40.188  -9.877   5.996  1.00  0.00     0.030 A 
HETATM    5  C   UNL     1      39.629  -8.920   6.845  1.00  0.00     0.002 A 
HETATM    6  C   UNL     1      40.366  -8.385   7.894  1.00  0.00     0.001 A 
HETATM    7  C   UNL     1      41.683  -8.800   8.123  1.00  0.00     0.015 A 
HETATM    8  N   UNL     1      42.304 -11.188   5.552  1.00  0.00    -0.346 N 
HETATM    9  C   UNL     1      43.560 -11.195   6.089  1.00  0.00     0.108 C 
ENDROOT
BRANCH   1  10
HETATM   10  C   UNL     1      44.730 -10.301   8.102  1.00  0.00     0.251 C 
HETATM   11  O   UNL     1      45.509 -11.243   8.249  1.00  0.00    -0.281 OA
BRANCH  10  12
HETATM   12  C   UNL     1      45.025  -9.033   8.907  1.00  0.00     0.292 C 
HETATM   13  N   UNL     1      44.842  -9.065  10.275  1.00  0.00    -0.354 N 
HETATM   14  H   UNL     1      44.893  -8.145  10.698  1.00  0.00     0.162 HD
HETATM   15  O   UNL     1      45.392  -8.010   8.342  1.00  0.00    -0.264 OA
BRANCH  13  16
HETATM   16  C   UNL     1      44.196 -10.144  11.001  1.00  0.00     0.127 C 
BRANCH  16  17
HETATM   17  C   UNL     1      42.695  -9.905  11.164  1.00  0.00     0.058 C 
BRANCH  17  18
HETATM   18  C   UNL     1      42.412  -8.674  11.987  1.00  0.00    -0.054 A 
HETATM   19  C   UNL     1      41.362  -7.810  11.637  1.00  0.00     0.046 A 
HETATM   20  C   UNL     1      41.094  -6.640  12.369  1.00  0.00     0.102 A 
HETATM   21  C   UNL     1      41.903  -6.336  13.479  1.00  0.00     0.101 A 
HETATM   22  C   UNL     1      42.958  -7.197  13.817  1.00  0.00     0.040 A 
HETATM   23  C   UNL     1      43.212  -8.355  13.084  1.00  0.00     0.010 A 
BRANCH  20  24
HETATM   24  O   UNL     1      40.090  -5.769  12.038  1.00  0.00    -0.353 OA
HETATM   25  C   UNL     1      39.129  -6.179  11.074  1.00  0.00     0.210 C 
ENDBRANCH  20  24
BRANCH  21  26
HETATM   26  O   UNL     1      41.831  -5.258  14.323  1.00  0.00    -0.353 OA
HETATM   27  C   UNL     1      40.914  -5.297  15.405  1.00  0.00     0.210 C 
ENDBRANCH  21  26
ENDBRANCH  17  18
ENDBRANCH  16  17
ENDBRANCH  13  16
ENDBRANCH  10  12
ENDBRANCH   1  10
BRANCH   8  28
HETATM   28  C   UNL     1      41.896 -11.992   4.409  1.00  0.00     0.231 C 
BRANCH  28  29
HETATM   29  C   UNL     1      41.610 -13.436   4.792  1.00  0.00     0.238 C 
HETATM   30  N   UNL     1      41.612 -14.436   3.816  1.00  0.00    -0.351 N 
HETATM   31  C   UNL     1      41.361 -15.816   4.241  1.00  0.00     0.126 C 
HETATM   32  C   UNL     1      41.847 -14.229   2.383  1.00  0.00     0.126 C 
HETATM   33  C   UNL     1      42.504 -16.786   3.927  1.00  0.00     0.020 C 
HETATM   34  C   UNL     1      42.595 -17.137   2.443  1.00  0.00     0.002 C 
HETATM   35  C   UNL     1      43.367 -16.137   1.584  1.00  0.00     0.002 C 
HETATM   36  C   UNL     1      43.249 -14.664   1.966  1.00  0.00     0.020 C 
HETATM   37  O   UNL     1      41.361 -13.692   5.977  1.00  0.00    -0.272 OA
ENDBRANCH  28  29
ENDBRANCH   8  28
TORSDOF 9
ENDMDL
