MODEL 1
REMARK VINA RESULT:      -8.9      0.000      0.000
REMARK  6 active torsions:
REMARK  status: ('A' for Active; 'I' for Inactive)
REMARK    1  A    between atoms: C_2  and  C_3 
REMARK    2  A    between atoms: C_7  and  C_8 
REMARK       I    between atoms: C_8  and  N_9 
REMARK    3  A    between atoms: N_9  and  C_10 
REMARK    4  A    between atoms: C_12  and  N_13 
REMARK       I    between atoms: N_13  and  C_14 
REMARK    5  A    between atoms: C_14  and  C_15 
REMARK    6  A    between atoms: C_23  and  O_24 
ROOT
HETATM    1  C   UNL     1      42.933 -12.444   5.442  1.00  0.00     0.037 A 
HETATM    2  C   UNL     1      42.897 -13.844   5.478  1.00  0.00     0.062 A 
HETATM    3  C   UNL     1      42.963 -14.593   4.299  1.00  0.00     0.070 A 
HETATM    4  C   UNL     1      43.033 -13.933   3.056  1.00  0.00     0.095 A 
HETATM    5  C   UNL     1      43.039 -12.538   3.019  1.00  0.00     0.041 A 
HETATM    6  C   UNL     1      42.996 -11.800   4.207  1.00  0.00     0.032 A 
ENDROOT
BRANCH   1   7
HETATM    7  N   UNL     1      42.901 -11.770   6.680  1.00  0.00    -0.322 N 
HETATM    8  C   UNL     1      43.975 -11.395   7.462  1.00  0.00     0.274 C 
HETATM    9  O   UNL     1      45.151 -11.648   7.221  1.00  0.00    -0.266 OA
HETATM   10  H   UNL     1      41.983 -11.645   7.086  1.00  0.00     0.169 HD
BRANCH   8  11
HETATM   11  C   UNL     1      43.608 -10.699   8.671  1.00  0.00     0.120 A 
HETATM   12  N   UNL     1      42.383 -10.103   8.809  1.00  0.00    -0.273 N 
HETATM   13  N   UNL     1      42.200  -9.489   9.988  1.00  0.00    -0.179 NA
HETATM   14  H   UNL     1      41.638 -10.078   8.119  1.00  0.00     0.189 HD
HETATM   15  C   UNL     1      43.334  -9.729  10.658  1.00  0.00     0.056 A 
HETATM   16  C   UNL     1      44.247 -10.477   9.876  1.00  0.00     0.065 A 
BRANCH  15  17
HETATM   17  C   UNL     1      43.504  -9.243  12.058  1.00  0.00     0.056 C 
HETATM   18  C   UNL     1      43.001  -7.821  12.251  1.00  0.00     0.011 C 
ENDBRANCH  15  17
ENDBRANCH   8  11
ENDBRANCH   1   7
BRANCH   3  19
HETATM   19  N   UNL     1      43.018 -16.006   4.276  1.00  0.00    -0.320 N 
HETATM   20  C   UNL     1      43.932 -16.832   4.896  1.00  0.00     0.256 C 
HETATM   21  O   UNL     1      44.765 -16.500   5.731  1.00  0.00    -0.267 OA
HETATM   22  H   UNL     1      42.272 -16.423   3.728  1.00  0.00     0.169 HD
BRANCH  20  23
HETATM   23  C   UNL     1      43.861 -18.268   4.498  1.00  0.00     0.035 A 
HETATM   24  C   UNL     1      43.761 -18.654   3.157  1.00  0.00     0.059 A 
HETATM   25  C   UNL     1      43.743 -20.007   2.837  1.00  0.00     0.117 A 
HETATM   26  F   UNL     1      43.652 -20.375   1.552  1.00  0.00    -0.206 F 
HETATM   27  C   UNL     1      43.831 -20.984   3.823  1.00  0.00     0.042 A 
HETATM   28  C   UNL     1      43.945 -20.604   5.159  1.00  0.00     0.004 A 
HETATM   29  C   UNL     1      43.964 -19.248   5.496  1.00  0.00     0.017 A 
ENDBRANCH  20  23
ENDBRANCH   3  19
BRANCH   4  30
HETATM   30  O   UNL     1      43.101 -14.754   1.953  1.00  0.00    -0.354 OA
HETATM   31  C   UNL     1      41.906 -14.914   1.196  1.00  0.00     0.210 C 
ENDBRANCH   4  30
TORSDOF 6
ENDMDL
MODEL 2
REMARK VINA RESULT:      -8.9      1.391      1.821
REMARK  6 active torsions:
REMARK  status: ('A' for Active; 'I' for Inactive)
REMARK    1  A    between atoms: C_2  and  C_3 
REMARK    2  A    between atoms: C_7  and  C_8 
REMARK       I    between atoms: C_8  and  N_9 
REMARK    3  A    between atoms: N_9  and  C_10 
REMARK    4  A    between atoms: C_12  and  N_13 
REMARK       I    between atoms: N_13  and  C_14 
REMARK    5  A    between atoms: C_14  and  C_15 
REMARK    6  A    between atoms: C_23  and  O_24 
ROOT
HETATM    1  C   UNL     1      42.941 -11.506   6.237  1.00  0.00     0.037 A 
HETATM    2  C   UNL     1      42.930 -12.894   6.051  1.00  0.00     0.062 A 
HETATM    3  C   UNL     1      42.910 -13.446   4.767  1.00  0.00     0.070 A 
HETATM    4  C   UNL     1      42.869 -12.596   3.643  1.00  0.00     0.095 A 
HETATM    5  C   UNL     1      42.851 -11.213   3.828  1.00  0.00     0.041 A 
HETATM    6  C   UNL     1      42.894 -10.673   5.119  1.00  0.00     0.032 A 
ENDROOT
BRANCH   1   7
HETATM    7  N   UNL     1      43.000 -11.036   7.565  1.00  0.00    -0.322 N 
HETATM    8  C   UNL     1      44.118 -10.915   8.365  1.00  0.00     0.274 C 
HETATM    9  O   UNL     1      45.253 -11.261   8.056  1.00  0.00    -0.266 OA
HETATM   10  H   UNL     1      42.107 -10.872   8.011  1.00  0.00     0.169 HD
BRANCH   8  11
HETATM   11  C   UNL     1      43.847 -10.382   9.678  1.00  0.00     0.120 A 
HETATM   12  N   UNL     1      43.475 -11.194  10.716  1.00  0.00    -0.273 N 
HETATM   13  N   UNL     1      43.248 -10.544  11.868  1.00  0.00    -0.179 NA
HETATM   14  H   UNL     1      43.350 -12.201  10.685  1.00  0.00     0.189 HD
HETATM   15  C   UNL     1      43.521  -9.266  11.579  1.00  0.00     0.056 A 
HETATM   16  C   UNL     1      43.896  -9.113  10.222  1.00  0.00     0.065 A 
BRANCH  15  17
HETATM   17  C   UNL     1      43.434  -8.215  12.634  1.00  0.00     0.056 C 
HETATM   18  C   UNL     1      42.358  -8.508  13.667  1.00  0.00     0.011 C 
ENDBRANCH  15  17
ENDBRANCH   8  11
ENDBRANCH   1   7
BRANCH   3  19
HETATM   19  N   UNL     1      42.984 -14.835   4.514  1.00  0.00    -0.320 N 
HETATM   20  C   UNL     1      43.688 -15.791   5.217  1.00  0.00     0.256 C 
HETATM   21  O   UNL     1      44.241 -15.639   6.300  1.00  0.00    -0.267 OA
HETATM   22  H   UNL     1      42.432 -15.122   3.712  1.00  0.00     0.169 HD
BRANCH  20  23
HETATM   23  C   UNL     1      43.750 -17.134   4.572  1.00  0.00     0.035 A 
HETATM   24  C   UNL     1      44.142 -18.274   5.283  1.00  0.00     0.059 A 
HETATM   25  C   UNL     1      44.139 -19.509   4.645  1.00  0.00     0.117 A 
HETATM   26  F   UNL     1      44.511 -20.600   5.329  1.00  0.00    -0.206 F 
HETATM   27  C   UNL     1      43.748 -19.636   3.317  1.00  0.00     0.042 A 
HETATM   28  C   UNL     1      43.343 -18.507   2.608  1.00  0.00     0.004 A 
HETATM   29  C   UNL     1      43.340 -17.258   3.236  1.00  0.00     0.017 A 
ENDBRANCH  20  23
ENDBRANCH   3  19
BRANCH   4  30
HETATM   30  O   UNL     1      42.859 -13.231   2.422  1.00  0.00    -0.354 OA
HETATM   31  C   UNL     1      41.739 -12.985   1.578  1.00  0.00     0.210 C 
ENDBRANCH   4  30
TORSDOF 6
ENDMDL
MODEL 3
REMARK VINA RESULT:      -8.8      1.850      2.177
REMARK  6 active torsions:
REMARK  status: ('A' for Active; 'I' for Inactive)
REMARK    1  A    between atoms: C_2  and  C_3 
REMARK    2  A    between atoms: C_7  and  C_8 
REMARK       I    between atoms: C_8  and  N_9 
REMARK    3  A    between atoms: N_9  and  C_10 
REMARK    4  A    between atoms: C_12  and  N_13 
REMARK       I    between atoms: N_13  and  C_14 
REMARK    5  A    between atoms: C_14  and  C_15 
REMARK    6  A    between atoms: C_23  and  O_24 
ROOT
HETATM    1  C   UNL     1      41.955 -12.893   6.020  1.00  0.00     0.037 A 
HETATM    2  C   UNL     1      42.505 -14.170   5.852  1.00  0.00     0.062 A 
HETATM    3  C   UNL     1      41.967 -15.065   4.922  1.00  0.00     0.070 A 
HETATM    4  C   UNL     1      40.838 -14.691   4.166  1.00  0.00     0.095 A 
HETATM    5  C   UNL     1      40.273 -13.429   4.354  1.00  0.00     0.041 A 
HETATM    6  C   UNL     1      40.835 -12.534   5.272  1.00  0.00     0.032 A 
ENDROOT
BRANCH   1   7
HETATM    7  N   UNL     1      42.584 -12.041   6.952  1.00  0.00    -0.322 N 
HETATM    8  C   UNL     1      43.686 -11.237   6.746  1.00  0.00     0.274 C 
HETATM    9  O   UNL     1      44.340 -11.181   5.711  1.00  0.00    -0.266 OA
HETATM   10  H   UNL     1      42.250 -12.114   7.905  1.00  0.00     0.169 HD
BRANCH   8  11
HETATM   11  C   UNL     1      44.077 -10.468   7.903  1.00  0.00     0.120 A 
HETATM   12  N   UNL     1      45.264  -9.787   7.940  1.00  0.00    -0.273 N 
HETATM   13  N   UNL     1      45.485  -9.130   9.089  1.00  0.00    -0.179 NA
HETATM   14  H   UNL     1      45.966  -9.749   7.207  1.00  0.00     0.189 HD
HETATM   15  C   UNL     1      44.383  -9.359   9.811  1.00  0.00     0.056 A 
HETATM   16  C   UNL     1      43.474 -10.194   9.115  1.00  0.00     0.065 A 
BRANCH  15  17
HETATM   17  C   UNL     1      44.219  -8.746  11.161  1.00  0.00     0.056 C 
HETATM   18  C   UNL     1      43.224  -9.498  12.030  1.00  0.00     0.011 C 
ENDBRANCH  15  17
ENDBRANCH   8  11
ENDBRANCH   1   7
BRANCH   3  19
HETATM   19  N   UNL     1      42.529 -16.334   4.646  1.00  0.00    -0.320 N 
HETATM   20  C   UNL     1      43.215 -16.732   3.518  1.00  0.00     0.256 C 
HETATM   21  O   UNL     1      43.621 -16.008   2.618  1.00  0.00    -0.267 OA
HETATM   22  H   UNL     1      42.390 -17.000   5.399  1.00  0.00     0.169 HD
BRANCH  20  23
HETATM   23  C   UNL     1      43.485 -18.196   3.426  1.00  0.00     0.035 A 
HETATM   24  C   UNL     1      43.991 -18.920   4.511  1.00  0.00     0.059 A 
HETATM   25  C   UNL     1      44.183 -20.292   4.385  1.00  0.00     0.117 A 
HETATM   26  F   UNL     1      44.664 -20.984   5.427  1.00  0.00    -0.206 F 
HETATM   27  C   UNL     1      43.873 -20.960   3.205  1.00  0.00     0.042 A 
HETATM   28  C   UNL     1      43.355 -20.246   2.127  1.00  0.00     0.004 A 
HETATM   29  C   UNL     1      43.157 -18.867   2.238  1.00  0.00     0.017 A 
ENDBRANCH  20  23
ENDBRANCH   3  19
BRANCH   4  30
HETATM   30  O   UNL     1      40.385 -15.635   3.272  1.00  0.00    -0.354 OA
HETATM   31  C   UNL     1      39.921 -15.158   2.013  1.00  0.00     0.210 C 
ENDBRANCH   4  30
TORSDOF 6
ENDMDL
MODEL 4
REMARK VINA RESULT:      -8.8      4.433      8.200
REMARK  6 active torsions:
REMARK  status: ('A' for Active; 'I' for Inactive)
REMARK    1  A    between atoms: C_2  and  C_3 
REMARK    2  A    between atoms: C_7  and  C_8 
REMARK       I    between atoms: C_8  and  N_9 
REMARK    3  A    between atoms: N_9  and  C_10 
REMARK    4  A    between atoms: C_12  and  N_13 
REMARK       I    between atoms: N_13  and  C_14 
REMARK    5  A    between atoms: C_14  and  C_15 
REMARK    6  A    between atoms: C_23  and  O_24 
ROOT
HETATM    1  C   UNL     1      39.818 -13.455   2.344  1.00  0.00     0.037 A 
HETATM    2  C   UNL     1      40.550 -14.649   2.365  1.00  0.00     0.062 A 
HETATM    3  C   UNL     1      41.288 -15.017   3.494  1.00  0.00     0.070 A 
HETATM    4  C   UNL     1      41.325 -14.161   4.613  1.00  0.00     0.095 A 
HETATM    5  C   UNL     1      40.619 -12.958   4.581  1.00  0.00     0.041 A 
HETATM    6  C   UNL     1      39.865 -12.612   3.454  1.00  0.00     0.032 A 
ENDROOT
BRANCH   1   7
HETATM    7  N   UNL     1      39.070 -13.181   1.180  1.00  0.00    -0.322 N 
HETATM    8  C   UNL     1      39.550 -12.814  -0.061  1.00  0.00     0.274 C 
HETATM    9  O   UNL     1      40.728 -12.608  -0.334  1.00  0.00    -0.266 OA
HETATM   10  H   UNL     1      38.066 -13.148   1.303  1.00  0.00     0.169 HD
BRANCH   8  11
HETATM   11  C   UNL     1      38.523 -12.622  -1.055  1.00  0.00     0.120 A 
HETATM   12  N   UNL     1      38.013 -13.673  -1.769  1.00  0.00    -0.273 N 
HETATM   13  N   UNL     1      37.073 -13.327  -2.662  1.00  0.00    -0.179 NA
HETATM   14  H   UNL     1      38.284 -14.649  -1.690  1.00  0.00     0.189 HD
HETATM   15  C   UNL     1      36.938 -12.007  -2.496  1.00  0.00     0.056 A 
HETATM   16  C   UNL     1      37.825 -11.517  -1.506  1.00  0.00     0.065 A 
BRANCH  15  17
HETATM   17  C   UNL     1      35.931 -11.242  -3.288  1.00  0.00     0.056 C 
HETATM   18  C   UNL     1      34.897 -12.141  -3.946  1.00  0.00     0.011 C 
ENDBRANCH  15  17
ENDBRANCH   8  11
ENDBRANCH   1   7
BRANCH   3  19
HETATM   19  N   UNL     1      41.977 -16.247   3.607  1.00  0.00    -0.320 N 
HETATM   20  C   UNL     1      42.971 -16.744   2.790  1.00  0.00     0.256 C 
HETATM   21  O   UNL     1      43.568 -16.130   1.914  1.00  0.00    -0.267 OA
HETATM   22  H   UNL     1      41.674 -16.799   4.403  1.00  0.00     0.169 HD
BRANCH  20  23
HETATM   23  C   UNL     1      43.340 -18.168   3.035  1.00  0.00     0.035 A 
HETATM   24  C   UNL     1      43.843 -18.595   4.269  1.00  0.00     0.059 A 
HETATM   25  C   UNL     1      44.129 -19.942   4.459  1.00  0.00     0.117 A 
HETATM   26  F   UNL     1      44.607 -20.349   5.643  1.00  0.00    -0.206 F 
HETATM   27  C   UNL     1      43.919 -20.875   3.450  1.00  0.00     0.042 A 
HETATM   28  C   UNL     1      43.404 -20.457   2.224  1.00  0.00     0.004 A 
HETATM   29  C   UNL     1      43.111 -19.107   2.018  1.00  0.00     0.017 A 
ENDBRANCH  20  23
ENDBRANCH   3  19
BRANCH   4  30
HETATM   30  O   UNL     1      42.072 -14.612   5.678  1.00  0.00    -0.354 OA
HETATM   31  C   UNL     1      43.047 -13.718   6.203  1.00  0.00     0.210 C 
ENDBRANCH   4  30
TORSDOF 6
ENDMDL
MODEL 5
REMARK VINA RESULT:      -8.2      2.408      4.869
REMARK  6 active torsions:
REMARK  status: ('A' for Active; 'I' for Inactive)
REMARK    1  A    between atoms: C_2  and  C_3 
REMARK    2  A    between atoms: C_7  and  C_8 
REMARK       I    between atoms: C_8  and  N_9 
REMARK    3  A    between atoms: N_9  and  C_10 
REMARK    4  A    between atoms: C_12  and  N_13 
REMARK       I    between atoms: N_13  and  C_14 
REMARK    5  A    between atoms: C_14  and  C_15 
REMARK    6  A    between atoms: C_23  and  O_24 
ROOT
HETATM    1  C   UNL     1      43.162 -13.688   5.965  1.00  0.00     0.037 A 
HETATM    2  C   UNL     1      42.698 -13.320   4.696  1.00  0.00     0.062 A 
HETATM    3  C   UNL     1      42.625 -14.256   3.660  1.00  0.00     0.070 A 
HETATM    4  C   UNL     1      43.054 -15.580   3.884  1.00  0.00     0.095 A 
HETATM    5  C   UNL     1      43.543 -15.939   5.141  1.00  0.00     0.041 A 
HETATM    6  C   UNL     1      43.589 -14.998   6.176  1.00  0.00     0.032 A 
ENDROOT
BRANCH   1   7
HETATM    7  N   UNL     1      43.165 -12.690   6.962  1.00  0.00    -0.322 N 
HETATM    8  C   UNL     1      44.208 -11.858   7.315  1.00  0.00     0.274 C 
HETATM    9  O   UNL     1      45.340 -11.899   6.844  1.00  0.00    -0.266 OA
HETATM   10  H   UNL     1      42.343 -12.658   7.551  1.00  0.00     0.169 HD
BRANCH   8  11
HETATM   11  C   UNL     1      43.886 -10.926   8.368  1.00  0.00     0.120 A 
HETATM   12  N   UNL     1      42.656 -10.331   8.444  1.00  0.00    -0.273 N 
HETATM   13  N   UNL     1      42.518  -9.482   9.474  1.00  0.00    -0.179 NA
HETATM   14  H   UNL     1      41.876 -10.464   7.806  1.00  0.00     0.189 HD
HETATM   15  C   UNL     1      43.690  -9.558  10.115  1.00  0.00     0.056 A 
HETATM   16  C   UNL     1      44.580 -10.444   9.461  1.00  0.00     0.065 A 
BRANCH  15  17
HETATM   17  C   UNL     1      43.920  -8.783  11.369  1.00  0.00     0.056 C 
HETATM   18  C   UNL     1      42.930  -9.137  12.467  1.00  0.00     0.011 C 
ENDBRANCH  15  17
ENDBRANCH   8  11
ENDBRANCH   1   7
BRANCH   3  19
HETATM   19  N   UNL     1      42.087 -13.966   2.384  1.00  0.00    -0.320 N 
HETATM   20  C   UNL     1      40.760 -13.855   2.027  1.00  0.00     0.256 C 
HETATM   21  O   UNL     1      39.801 -13.811   2.789  1.00  0.00    -0.267 OA
HETATM   22  H   UNL     1      42.801 -13.826   1.676  1.00  0.00     0.169 HD
BRANCH  20  23
HETATM   23  C   UNL     1      40.504 -13.767   0.560  1.00  0.00     0.035 A 
HETATM   24  C   UNL     1      39.777 -14.751  -0.119  1.00  0.00     0.059 A 
HETATM   25  C   UNL     1      39.529 -14.598  -1.479  1.00  0.00     0.117 A 
HETATM   26  F   UNL     1      38.829 -15.539  -2.126  1.00  0.00    -0.206 F 
HETATM   27  C   UNL     1      39.982 -13.483  -2.175  1.00  0.00     0.042 A 
HETATM   28  C   UNL     1      40.694 -12.493  -1.500  1.00  0.00     0.004 A 
HETATM   29  C   UNL     1      40.951 -12.633  -0.134  1.00  0.00     0.017 A 
ENDBRANCH  20  23
ENDBRANCH   3  19
BRANCH   4  30
HETATM   30  O   UNL     1      42.938 -16.430   2.808  1.00  0.00    -0.354 OA
HETATM   31  C   UNL     1      43.251 -17.800   3.033  1.00  0.00     0.210 C 
ENDBRANCH   4  30
TORSDOF 6
ENDMDL
MODEL 6
REMARK VINA RESULT:      -8.0      4.243      9.382
REMARK  6 active torsions:
REMARK  status: ('A' for Active; 'I' for Inactive)
REMARK    1  A    between atoms: C_2  and  C_3 
REMARK    2  A    between atoms: C_7  and  C_8 
REMARK       I    between atoms: C_8  and  N_9 
REMARK    3  A    between atoms: N_9  and  C_10 
REMARK    4  A    between atoms: C_12  and  N_13 
REMARK       I    between atoms: N_13  and  C_14 
REMARK    5  A    between atoms: C_14  and  C_15 
REMARK    6  A    between atoms: C_23  and  O_24 
ROOT
HETATM    1  C   UNL     1      41.872 -14.937   3.346  1.00  0.00     0.037 A 
HETATM    2  C   UNL     1      42.402 -13.885   4.104  1.00  0.00     0.062 A 
HETATM    3  C   UNL     1      43.076 -14.134   5.303  1.00  0.00     0.070 A 
HETATM    4  C   UNL     1      43.198 -15.458   5.774  1.00  0.00     0.095 A 
HETATM    5  C   UNL     1      42.644 -16.503   5.033  1.00  0.00     0.041 A 
HETATM    6  C   UNL     1      41.992 -16.242   3.822  1.00  0.00     0.032 A 
ENDROOT
BRANCH   1   7
HETATM    7  N   UNL     1      41.242 -14.599   2.130  1.00  0.00    -0.322 N 
HETATM    8  C   UNL     1      40.056 -13.914   1.961  1.00  0.00     0.274 C 
HETATM    9  O   UNL     1      39.319 -13.535   2.865  1.00  0.00    -0.266 OA
HETATM   10  H   UNL     1      41.655 -14.998   1.297  1.00  0.00     0.169 HD
BRANCH   8  11
HETATM   11  C   UNL     1      39.687 -13.710   0.581  1.00  0.00     0.120 A 
HETATM   12  N   UNL     1      38.802 -12.731   0.215  1.00  0.00    -0.273 N 
HETATM   13  N   UNL     1      38.556 -12.678  -1.103  1.00  0.00    -0.179 NA
HETATM   14  H   UNL     1      38.329 -12.078   0.832  1.00  0.00     0.189 HD
HETATM   15  C   UNL     1      39.340 -13.632  -1.619  1.00  0.00     0.056 A 
HETATM   16  C   UNL     1      40.063 -14.309  -0.606  1.00  0.00     0.065 A 
BRANCH  15  17
HETATM   17  C   UNL     1      39.389 -13.859  -3.092  1.00  0.00     0.056 C 
HETATM   18  C   UNL     1      38.231 -14.706  -3.595  1.00  0.00     0.011 C 
ENDBRANCH  15  17
ENDBRANCH   8  11
ENDBRANCH   1   7
BRANCH   3  19
HETATM   19  N   UNL     1      43.706 -13.124   6.067  1.00  0.00    -0.320 N 
HETATM   20  C   UNL     1      43.201 -11.893   6.429  1.00  0.00     0.256 C 
HETATM   21  O   UNL     1      42.042 -11.515   6.304  1.00  0.00    -0.267 OA
HETATM   22  H   UNL     1      44.640 -13.381   6.369  1.00  0.00     0.169 HD
BRANCH  20  23
HETATM   23  C   UNL     1      44.189 -10.959   7.042  1.00  0.00     0.035 A 
HETATM   24  C   UNL     1      43.783  -9.823   7.753  1.00  0.00     0.059 A 
HETATM   25  C   UNL     1      44.744  -9.010   8.343  1.00  0.00     0.117 A 
HETATM   26  F   UNL     1      44.353  -7.925   9.026  1.00  0.00    -0.206 F 
HETATM   27  C   UNL     1      46.099  -9.306   8.247  1.00  0.00     0.042 A 
HETATM   28  C   UNL     1      46.507 -10.443   7.553  1.00  0.00     0.004 A 
HETATM   29  C   UNL     1      45.554 -11.271   6.955  1.00  0.00     0.017 A 
ENDBRANCH  20  23
ENDBRANCH   3  19
BRANCH   4  30
HETATM   30  O   UNL     1      43.883 -15.604   6.958  1.00  0.00    -0.354 OA
HETATM   31  C   UNL     1      43.104 -15.811   8.131  1.00  0.00     0.210 C 
ENDBRANCH   4  30
TORSDOF 6
ENDMDL
MODEL 7
REMARK VINA RESULT:      -7.7      3.762      9.516
REMARK  6 active torsions:
REMARK  status: ('A' for Active; 'I' for Inactive)
REMARK    1  A    between atoms: C_2  and  C_3 
REMARK    2  A    between atoms: C_7  and  C_8 
REMARK       I    between atoms: C_8  and  N_9 
REMARK    3  A    between atoms: N_9  and  C_10 
REMARK    4  A    between atoms: C_12  and  N_13 
REMARK       I    between atoms: N_13  and  C_14 
REMARK    5  A    between atoms: C_14  and  C_15 
REMARK    6  A    between atoms: C_23  and  O_24 
ROOT
HETATM    1  C   UNL     1      42.663 -12.657   4.811  1.00  0.00     0.037 A 
HETATM    2  C   UNL     1      42.851 -12.130   6.095  1.00  0.00     0.062 A 
HETATM    3  C   UNL     1      42.471 -10.818   6.394  1.00  0.00     0.070 A 
HETATM    4  C   UNL     1      41.923 -10.002   5.383  1.00  0.00     0.095 A 
HETATM    5  C   UNL     1      41.764 -10.518   4.097  1.00  0.00     0.041 A 
HETATM    6  C   UNL     1      42.126 -11.840   3.816  1.00  0.00     0.032 A 
ENDROOT
BRANCH   1   7
HETATM    7  N   UNL     1      43.038 -14.001   4.608  1.00  0.00    -0.322 N 
HETATM    8  C   UNL     1      42.207 -15.085   4.412  1.00  0.00     0.274 C 
HETATM    9  O   UNL     1      40.981 -15.055   4.444  1.00  0.00    -0.266 OA
HETATM   10  H   UNL     1      44.023 -14.203   4.726  1.00  0.00     0.169 HD
BRANCH   8  11
HETATM   11  C   UNL     1      42.905 -16.333   4.215  1.00  0.00     0.120 A 
HETATM   12  N   UNL     1      43.871 -16.757   5.087  1.00  0.00    -0.273 N 
HETATM   13  N   UNL     1      44.432 -17.930   4.758  1.00  0.00    -0.179 NA
HETATM   14  H   UNL     1      44.193 -16.272   5.920  1.00  0.00     0.189 HD
HETATM   15  C   UNL     1      43.778 -18.303   3.652  1.00  0.00     0.056 A 
HETATM   16  C   UNL     1      42.817 -17.336   3.269  1.00  0.00     0.065 A 
BRANCH  15  17
HETATM   17  C   UNL     1      44.084 -19.606   2.993  1.00  0.00     0.056 C 
HETATM   18  C   UNL     1      43.047 -19.994   1.951  1.00  0.00     0.011 C 
ENDBRANCH  15  17
ENDBRANCH   8  11
ENDBRANCH   1   7
BRANCH   3  19
HETATM   19  N   UNL     1      42.556 -10.258   7.690  1.00  0.00    -0.320 N 
HETATM   20  C   UNL     1      43.687  -9.854   8.369  1.00  0.00     0.256 C 
HETATM   21  O   UNL     1      44.814  -9.740   7.904  1.00  0.00    -0.267 OA
HETATM   22  H   UNL     1      41.651 -10.155   8.137  1.00  0.00     0.169 HD
BRANCH  20  23
HETATM   23  C   UNL     1      43.475  -9.516   9.807  1.00  0.00     0.035 A 
HETATM   24  C   UNL     1      43.231  -8.204  10.225  1.00  0.00     0.059 A 
HETATM   25  C   UNL     1      42.996  -7.950  11.572  1.00  0.00     0.117 A 
HETATM   26  F   UNL     1      42.758  -6.693  11.969  1.00  0.00    -0.206 F 
HETATM   27  C   UNL     1      42.992  -8.975  12.510  1.00  0.00     0.042 A 
HETATM   28  C   UNL     1      43.221 -10.287  12.097  1.00  0.00     0.004 A 
HETATM   29  C   UNL     1      43.458 -10.557  10.747  1.00  0.00     0.017 A 
ENDBRANCH  20  23
ENDBRANCH   3  19
BRANCH   4  30
HETATM   30  O   UNL     1      41.575  -8.729   5.774  1.00  0.00    -0.354 OA
HETATM   31  C   UNL     1      41.330  -7.783   4.740  1.00  0.00     0.210 C 
ENDBRANCH   4  30
TORSDOF 6
ENDMDL
MODEL 8
REMARK VINA RESULT:      -7.4      5.974      9.940
REMARK  6 active torsions:
REMARK  status: ('A' for Active; 'I' for Inactive)
REMARK    1  A    between atoms: C_2  and  C_3 
REMARK    2  A    between atoms: C_7  and  C_8 
REMARK       I    between atoms: C_8  and  N_9 
REMARK    3  A    between atoms: N_9  and  C_10 
REMARK    4  A    between atoms: C_12  and  N_13 
REMARK       I    between atoms: N_13  and  C_14 
REMARK    5  A    between atoms: C_14  and  C_15 
REMARK    6  A    between atoms: C_23  and  O_24 
ROOT
HETATM    1  C   UNL     1      40.651 -14.004   1.856  1.00  0.00     0.037 A 
HETATM    2  C   UNL     1      41.082 -13.252   0.756  1.00  0.00     0.062 A 
HETATM    3  C   UNL     1      40.437 -12.063   0.403  1.00  0.00     0.070 A 
HETATM    4  C   UNL     1      39.318 -11.630   1.142  1.00  0.00     0.095 A 
HETATM    5  C   UNL     1      38.870 -12.394   2.221  1.00  0.00     0.041 A 
HETATM    6  C   UNL     1      39.539 -13.570   2.578  1.00  0.00     0.032 A 
ENDROOT
BRANCH   1   7
HETATM    7  N   UNL     1      41.383 -15.169   2.164  1.00  0.00    -0.322 N 
HETATM    8  C   UNL     1      42.481 -15.278   2.993  1.00  0.00     0.274 C 
HETATM    9  O   UNL     1      43.039 -14.343   3.559  1.00  0.00    -0.266 OA
HETATM   10  H   UNL     1      41.136 -15.994   1.632  1.00  0.00     0.169 HD
BRANCH   8  11
HETATM   11  C   UNL     1      42.995 -16.620   3.116  1.00  0.00     0.120 A 
HETATM   12  N   UNL     1      43.725 -17.009   4.206  1.00  0.00    -0.273 N 
HETATM   13  N   UNL     1      44.139 -18.285   4.164  1.00  0.00    -0.179 NA
HETATM   14  H   UNL     1      43.978 -16.435   5.005  1.00  0.00     0.189 HD
HETATM   15  C   UNL     1      43.626 -18.755   3.021  1.00  0.00     0.056 A 
HETATM   16  C   UNL     1      42.906 -17.752   2.328  1.00  0.00     0.065 A 
BRANCH  15  17
HETATM   17  C   UNL     1      43.825 -20.180   2.630  1.00  0.00     0.056 C 
HETATM   18  C   UNL     1      43.878 -21.115   3.828  1.00  0.00     0.011 C 
ENDBRANCH  15  17
ENDBRANCH   8  11
ENDBRANCH   1   7
BRANCH   3  19
HETATM   19  N   UNL     1      40.877 -11.218  -0.643  1.00  0.00    -0.320 N 
HETATM   20  C   UNL     1      41.631 -10.067  -0.545  1.00  0.00     0.256 C 
HETATM   21  O   UNL     1      42.210  -9.658   0.454  1.00  0.00    -0.267 OA
HETATM   22  H   UNL     1      40.585 -11.538  -1.560  1.00  0.00     0.169 HD
BRANCH  20  23
HETATM   23  C   UNL     1      41.741  -9.274  -1.803  1.00  0.00     0.035 A 
HETATM   24  C   UNL     1      40.966  -9.571  -2.930  1.00  0.00     0.059 A 
HETATM   25  C   UNL     1      41.076  -8.772  -4.063  1.00  0.00     0.117 A 
HETATM   26  F   UNL     1      40.330  -9.056  -5.139  1.00  0.00    -0.206 F 
HETATM   27  C   UNL     1      41.935  -7.679  -4.096  1.00  0.00     0.042 A 
HETATM   28  C   UNL     1      42.698  -7.370  -2.971  1.00  0.00     0.004 A 
HETATM   29  C   UNL     1      42.598  -8.163  -1.826  1.00  0.00     0.017 A 
ENDBRANCH  20  23
ENDBRANCH   3  19
BRANCH   4  30
HETATM   30  O   UNL     1      38.755 -10.446   0.724  1.00  0.00    -0.354 OA
HETATM   31  C   UNL     1      38.399  -9.509   1.736  1.00  0.00     0.210 C 
ENDBRANCH   4  30
TORSDOF 6
ENDMDL
MODEL 9
REMARK VINA RESULT:      -7.3      4.654      9.814
REMARK  6 active torsions:
REMARK  status: ('A' for Active; 'I' for Inactive)
REMARK    1  A    between atoms: C_2  and  C_3 
REMARK    2  A    between atoms: C_7  and  C_8 
REMARK       I    between atoms: C_8  and  N_9 
REMARK    3  A    between atoms: N_9  and  C_10 
REMARK    4  A    between atoms: C_12  and  N_13 
REMARK       I    between atoms: N_13  and  C_14 
REMARK    5  A    between atoms: C_14  and  C_15 
REMARK    6  A    between atoms: C_23  and  O_24 
ROOT
HETATM    1  C   UNL     1      43.692 -12.037   5.531  1.00  0.00     0.037 A 
HETATM    2  C   UNL     1      43.102 -11.718   6.761  1.00  0.00     0.062 A 
HETATM    3  C   UNL     1      43.846 -11.110   7.777  1.00  0.00     0.070 A 
HETATM    4  C   UNL     1      45.215 -10.845   7.576  1.00  0.00     0.095 A 
HETATM    5  C   UNL     1      45.810 -11.190   6.362  1.00  0.00     0.041 A 
HETATM    6  C   UNL     1      45.049 -11.776   5.344  1.00  0.00     0.032 A 
ENDROOT
BRANCH   1   7
HETATM    7  N   UNL     1      42.859 -12.612   4.549  1.00  0.00    -0.322 N 
HETATM    8  C   UNL     1      42.313 -13.880   4.547  1.00  0.00     0.274 C 
HETATM    9  O   UNL     1      42.519 -14.743   5.393  1.00  0.00    -0.266 OA
HETATM   10  H   UNL     1      42.740 -12.069   3.704  1.00  0.00     0.169 HD
BRANCH   8  11
HETATM   11  C   UNL     1      41.485 -14.161   3.400  1.00  0.00     0.120 A 
HETATM   12  N   UNL     1      40.378 -14.961   3.496  1.00  0.00    -0.273 N 
HETATM   13  N   UNL     1      39.722 -15.133   2.338  1.00  0.00    -0.179 NA
HETATM   14  H   UNL     1      40.033 -15.423   4.332  1.00  0.00     0.189 HD
HETATM   15  C   UNL     1      40.405 -14.386   1.464  1.00  0.00     0.056 A 
HETATM   16  C   UNL     1      41.519 -13.762   2.077  1.00  0.00     0.065 A 
BRANCH  15  17
HETATM   17  C   UNL     1      39.953 -14.273   0.047  1.00  0.00     0.056 C 
HETATM   18  C   UNL     1      39.427 -12.887  -0.292  1.00  0.00     0.011 C 
ENDBRANCH  15  17
ENDBRANCH   8  11
ENDBRANCH   1   7
BRANCH   3  19
HETATM   19  N   UNL     1      43.287 -10.687   9.005  1.00  0.00    -0.320 N 
HETATM   20  C   UNL     1      42.701  -9.473   9.299  1.00  0.00     0.256 C 
HETATM   21  O   UNL     1      42.397  -8.598   8.498  1.00  0.00    -0.267 OA
HETATM   22  H   UNL     1      43.340 -11.396   9.730  1.00  0.00     0.169 HD
BRANCH  20  23
HETATM   23  C   UNL     1      42.411  -9.243  10.744  1.00  0.00     0.035 A 
HETATM   24  C   UNL     1      43.293  -8.534  11.566  1.00  0.00     0.059 A 
HETATM   25  C   UNL     1      42.954  -8.310  12.896  1.00  0.00     0.117 A 
HETATM   26  F   UNL     1      43.798  -7.627  13.681  1.00  0.00    -0.206 F 
HETATM   27  C   UNL     1      41.752  -8.769  13.423  1.00  0.00     0.042 A 
HETATM   28  C   UNL     1      40.863  -9.463  12.604  1.00  0.00     0.004 A 
HETATM   29  C   UNL     1      41.190  -9.696  11.265  1.00  0.00     0.017 A 
ENDBRANCH  20  23
ENDBRANCH   3  19
BRANCH   4  30
HETATM   30  O   UNL     1      45.861 -10.239   8.629  1.00  0.00    -0.354 OA
HETATM   31  C   UNL     1      46.195  -8.864   8.475  1.00  0.00     0.210 C 
ENDBRANCH   4  30
TORSDOF 6
ENDMDL
MODEL 10
REMARK VINA RESULT:      -7.3      3.293      5.566
REMARK  6 active torsions:
REMARK  status: ('A' for Active; 'I' for Inactive)
REMARK    1  A    between atoms: C_2  and  C_3 
REMARK    2  A    between atoms: C_7  and  C_8 
REMARK       I    between atoms: C_8  and  N_9 
REMARK    3  A    between atoms: N_9  and  C_10 
REMARK    4  A    between atoms: C_12  and  N_13 
REMARK       I    between atoms: N_13  and  C_14 
REMARK    5  A    between atoms: C_14  and  C_15 
REMARK    6  A    between atoms: C_23  and  O_24 
ROOT
HETATM    1  C   UNL     1      43.085 -13.673   6.293  1.00  0.00     0.037 A 
HETATM    2  C   UNL     1      42.254 -13.256   5.246  1.00  0.00     0.062 A 
HETATM    3  C   UNL     1      41.785 -14.168   4.296  1.00  0.00     0.070 A 
HETATM    4  C   UNL     1      42.178 -15.520   4.374  1.00  0.00     0.095 A 
HETATM    5  C   UNL     1      43.030 -15.929   5.400  1.00  0.00     0.041 A 
HETATM    6  C   UNL     1      43.474 -15.010   6.358  1.00  0.00     0.032 A 
ENDROOT
BRANCH   1   7
HETATM    7  N   UNL     1      43.480 -12.693   7.228  1.00  0.00    -0.322 N 
HETATM    8  C   UNL     1      44.544 -11.819   7.131  1.00  0.00     0.274 C 
HETATM    9  O   UNL     1      45.365 -11.798   6.221  1.00  0.00    -0.266 OA
HETATM   10  H   UNL     1      42.990 -12.710   8.113  1.00  0.00     0.169 HD
BRANCH   8  11
HETATM   11  C   UNL     1      44.672 -10.922   8.254  1.00  0.00     0.120 A 
HETATM   12  N   UNL     1      45.726 -10.055   8.359  1.00  0.00    -0.273 N 
HETATM   13  N   UNL     1      45.706  -9.296   9.466  1.00  0.00    -0.179 NA
HETATM   14  H   UNL     1      46.496  -9.951   7.704  1.00  0.00     0.189 HD
HETATM   15  C   UNL     1      44.574  -9.655  10.084  1.00  0.00     0.056 A 
HETATM   16  C   UNL     1      43.895 -10.671   9.368  1.00  0.00     0.065 A 
BRANCH  15  17
HETATM   17  C   UNL     1      44.159  -8.989  11.352  1.00  0.00     0.056 C 
HETATM   18  C   UNL     1      42.851  -9.536  11.901  1.00  0.00     0.011 C 
ENDBRANCH  15  17
ENDBRANCH   8  11
ENDBRANCH   1   7
BRANCH   3  19
HETATM   19  N   UNL     1      40.877 -13.825   3.268  1.00  0.00    -0.320 N 
HETATM   20  C   UNL     1      41.158 -13.518   1.953  1.00  0.00     0.256 C 
HETATM   21  O   UNL     1      42.235 -13.658   1.386  1.00  0.00    -0.267 OA
HETATM   22  H   UNL     1      39.910 -13.821   3.578  1.00  0.00     0.169 HD
BRANCH  20  23
HETATM   23  C   UNL     1      40.010 -12.976   1.170  1.00  0.00     0.035 A 
HETATM   24  C   UNL     1      39.057 -12.134   1.751  1.00  0.00     0.059 A 
HETATM   25  C   UNL     1      38.031 -11.621   0.964  1.00  0.00     0.117 A 
HETATM   26  F   UNL     1      37.121 -10.811   1.522  1.00  0.00    -0.206 F 
HETATM   27  C   UNL     1      37.939 -11.922  -0.390  1.00  0.00     0.042 A 
HETATM   28  C   UNL     1      38.895 -12.750  -0.977  1.00  0.00     0.004 A 
HETATM   29  C   UNL     1      39.931 -13.272  -0.200  1.00  0.00     0.017 A 
ENDBRANCH  20  23
ENDBRANCH   3  19
BRANCH   4  30
HETATM   30  O   UNL     1      41.660 -16.343   3.400  1.00  0.00    -0.354 OA
HETATM   31  C   UNL     1      42.582 -17.174   2.703  1.00  0.00     0.210 C 
ENDBRANCH   4  30
TORSDOF 6
ENDMDL
