MODEL 1
REMARK VINA RESULT:      -8.1      0.000      0.000
REMARK  14 active torsions:
REMARK  status: ('A' for Active; 'I' for Inactive)
REMARK    1  A    between atoms: C_2  and  N_3 
REMARK    2  A    between atoms: N_3  and  C_5 
REMARK    3  A    between atoms: N_3  and  C_37 
REMARK    4  A    between atoms: C_5  and  C_6 
REMARK    5  A    between atoms: C_6  and  N_7 
REMARK    6  A    between atoms: C_10  and  O_11 
REMARK    7  A    between atoms: C_12  and  C_13 
REMARK    8  A    between atoms: C_13  and  C_14 
REMARK    9  A    between atoms: C_18  and  O_19 
REMARK   10  A    between atoms: O_19  and  C_20 
REMARK   11  A    between atoms: C_26  and  C_27 
REMARK   12  A    between atoms: C_29  and  O_30 
REMARK   13  A    between atoms: O_30  and  C_31 
REMARK   14  A    between atoms: C_33  and  O_34 
ROOT
HETATM    1  N   UNL     1      41.940 -11.494   4.713  1.00  0.00    -0.332 N 
HETATM    2  C   UNL     1      40.665 -11.933   4.991  1.00  0.00     0.278 C 
HETATM    3  O   UNL     1      39.617 -11.493   4.552  1.00  0.00    -0.265 OA
HETATM    4  C   UNL     1      40.778 -13.119   5.861  1.00  0.00     0.146 C 
HETATM    5  C   UNL     1      42.084 -13.399   5.966  1.00  0.00     0.059 C 
HETATM    6  C   UNL     1      42.946 -12.335   5.351  1.00  0.00     0.161 C 
ENDROOT
BRANCH   5   7
HETATM    7  C   UNL     1      42.736 -14.606   6.521  1.00  0.00     0.193 C 
HETATM    8  O   UNL     1      42.991 -14.664   7.721  1.00  0.00    -0.287 OA
BRANCH   7   9
HETATM    9  C   UNL     1      43.173 -15.707   5.630  1.00  0.00     0.015 A 
HETATM   10  C   UNL     1      43.026 -15.633   4.241  1.00  0.00     0.025 A 
HETATM   11  C   UNL     1      43.416 -16.703   3.422  1.00  0.00    -0.028 A 
HETATM   12  C   UNL     1      43.179 -16.633   1.937  1.00  0.00     0.051 C 
HETATM   13  C   UNL     1      43.995 -17.846   4.003  1.00  0.00     0.075 A 
HETATM   14  C   UNL     1      44.216 -17.881   5.382  1.00  0.00     0.038 A 
HETATM   15  C   UNL     1      43.805 -16.817   6.195  1.00  0.00     0.018 A 
BRANCH  13  16
HETATM   16  O   UNL     1      44.307 -18.848   3.126  1.00  0.00    -0.346 OA
BRANCH  16  17
HETATM   17  C   UNL     1      43.425 -19.964   2.970  1.00  0.00     0.121 C 
HETATM   18  C   UNL     1      43.436 -20.470   1.528  1.00  0.00     0.040 C 
HETATM   19  C   UNL     1      43.953 -21.056   3.898  1.00  0.00     0.040 C 
ENDBRANCH  16  17
ENDBRANCH  13  16
ENDBRANCH   7   9
ENDBRANCH   5   7
BRANCH   4  20
HETATM   20  O   UNL     1      39.701 -13.813   6.315  1.00  0.00    -0.355 OA
HETATM   21  H   UNL     1      40.031 -14.674   6.642  1.00  0.00     0.218 HD
ENDBRANCH   4  20
BRANCH   6  22
HETATM   22  C   UNL     1      43.763 -11.496   6.322  1.00  0.00    -0.028 A 
HETATM   23  C   UNL     1      43.108 -10.676   7.264  1.00  0.00     0.049 A 
HETATM   24  C   UNL     1      43.840  -9.945   8.202  1.00  0.00     0.102 A 
HETATM   25  C   UNL     1      45.236 -10.036   8.191  1.00  0.00     0.099 A 
HETATM   26  C   UNL     1      45.906 -10.817   7.262  1.00  0.00     0.040 A 
HETATM   27  C   UNL     1      45.172 -11.544   6.327  1.00  0.00     0.012 A 
BRANCH  24  28
HETATM   28  O   UNL     1      43.328  -9.135   9.180  1.00  0.00    -0.349 OA
BRANCH  28  29
HETATM   29  C   UNL     1      42.865  -9.767  10.373  1.00  0.00     0.171 C 
HETATM   30  C   UNL     1      43.159  -8.834  11.535  1.00  0.00     0.034 C 
ENDBRANCH  28  29
ENDBRANCH  24  28
BRANCH  25  31
HETATM   31  O   UNL     1      45.982  -9.343   9.104  1.00  0.00    -0.358 OA
HETATM   32  H   UNL     1      46.894  -9.676   9.000  1.00  0.00     0.218 HD
ENDBRANCH  25  31
ENDBRANCH   6  22
BRANCH   1  33
HETATM   33  C   UNL     1      42.252 -10.595   3.616  1.00  0.00     0.155 C 
BRANCH  33  34
HETATM   34  C   UNL     1      42.199 -11.275   2.236  1.00  0.00     0.254 C 
BRANCH  34  35
HETATM   35  N   UNL     1      40.851 -11.131   1.536  1.00  0.00    -0.070 N 
HETATM   36  H   UNL     1      40.237 -10.685   2.232  1.00  0.00     0.279 HD
BRANCH  35  37
HETATM   37  C   UNL     1      40.169 -12.449   1.192  1.00  0.00     0.230 C 
HETATM   38  C   UNL     1      40.917 -13.640   1.762  1.00  0.00     0.034 C 
ENDBRANCH  35  37
BRANCH  35  39
HETATM   39  C   UNL     1      40.848 -10.202   0.334  1.00  0.00     0.230 C 
HETATM   40  C   UNL     1      41.075 -10.960  -0.959  1.00  0.00     0.034 C 
ENDBRANCH  35  39
ENDBRANCH  34  35
ENDBRANCH  33  34
ENDBRANCH   1  33
TORSDOF 14
ENDMDL
MODEL 2
REMARK VINA RESULT:      -7.7      2.551      7.106
REMARK  14 active torsions:
REMARK  status: ('A' for Active; 'I' for Inactive)
REMARK    1  A    between atoms: C_2  and  N_3 
REMARK    2  A    between atoms: N_3  and  C_5 
REMARK    3  A    between atoms: N_3  and  C_37 
REMARK    4  A    between atoms: C_5  and  C_6 
REMARK    5  A    between atoms: C_6  and  N_7 
REMARK    6  A    between atoms: C_10  and  O_11 
REMARK    7  A    between atoms: C_12  and  C_13 
REMARK    8  A    between atoms: C_13  and  C_14 
REMARK    9  A    between atoms: C_18  and  O_19 
REMARK   10  A    between atoms: O_19  and  C_20 
REMARK   11  A    between atoms: C_26  and  C_27 
REMARK   12  A    between atoms: C_29  and  O_30 
REMARK   13  A    between atoms: O_30  and  C_31 
REMARK   14  A    between atoms: C_33  and  O_34 
ROOT
HETATM    1  N   UNL     1      40.667 -14.390   3.784  1.00  0.00    -0.332 N 
HETATM    2  C   UNL     1      40.017 -14.334   2.573  1.00  0.00     0.278 C 
HETATM    3  O   UNL     1      39.869 -15.237   1.768  1.00  0.00    -0.265 OA
HETATM    4  C   UNL     1      39.429 -12.988   2.440  1.00  0.00     0.146 C 
HETATM    5  C   UNL     1      39.647 -12.354   3.599  1.00  0.00     0.059 C 
HETATM    6  C   UNL     1      40.550 -13.132   4.512  1.00  0.00     0.161 C 
ENDROOT
BRANCH   5   7
HETATM    7  C   UNL     1      39.074 -11.079   4.088  1.00  0.00     0.193 C 
HETATM    8  O   UNL     1      38.350 -10.415   3.352  1.00  0.00    -0.287 OA
BRANCH   7   9
HETATM    9  C   UNL     1      39.441 -10.547   5.422  1.00  0.00     0.015 A 
HETATM   10  C   UNL     1      40.439  -9.579   5.580  1.00  0.00     0.025 A 
HETATM   11  C   UNL     1      40.791  -9.117   6.857  1.00  0.00    -0.028 A 
HETATM   12  C   UNL     1      41.918  -8.131   7.010  1.00  0.00     0.051 C 
HETATM   13  C   UNL     1      40.108  -9.607   7.984  1.00  0.00     0.075 A 
HETATM   14  C   UNL     1      39.057 -10.512   7.814  1.00  0.00     0.038 A 
HETATM   15  C   UNL     1      38.725 -10.983   6.538  1.00  0.00     0.018 A 
BRANCH  13  16
HETATM   16  O   UNL     1      40.548  -9.123   9.185  1.00  0.00    -0.346 OA
BRANCH  16  17
HETATM   17  C   UNL     1      39.777  -9.340  10.371  1.00  0.00     0.121 C 
HETATM   18  C   UNL     1      40.680  -9.696  11.552  1.00  0.00     0.040 C 
HETATM   19  C   UNL     1      39.058  -8.023  10.658  1.00  0.00     0.040 C 
ENDBRANCH  16  17
ENDBRANCH  13  16
ENDBRANCH   7   9
ENDBRANCH   5   7
BRANCH   4  20
HETATM   20  O   UNL     1      38.701 -12.597   1.360  1.00  0.00    -0.355 OA
HETATM   21  H   UNL     1      38.680 -13.354   0.739  1.00  0.00     0.218 HD
ENDBRANCH   4  20
BRANCH   6  22
HETATM   22  C   UNL     1      41.937 -12.547   4.736  1.00  0.00    -0.028 A 
HETATM   23  C   UNL     1      42.491 -12.531   6.032  1.00  0.00     0.049 A 
HETATM   24  C   UNL     1      43.786 -12.054   6.246  1.00  0.00     0.102 A 
HETATM   25  C   UNL     1      44.525 -11.588   5.153  1.00  0.00     0.099 A 
HETATM   26  C   UNL     1      43.995 -11.572   3.872  1.00  0.00     0.040 A 
HETATM   27  C   UNL     1      42.704 -12.048   3.662  1.00  0.00     0.012 A 
BRANCH  24  28
HETATM   28  O   UNL     1      44.446 -12.006   7.444  1.00  0.00    -0.349 OA
BRANCH  28  29
HETATM   29  C   UNL     1      44.060 -10.983   8.361  1.00  0.00     0.171 C 
HETATM   30  C   UNL     1      45.302 -10.183   8.713  1.00  0.00     0.034 C 
ENDBRANCH  28  29
ENDBRANCH  24  28
BRANCH  25  31
HETATM   31  O   UNL     1      45.800 -11.125   5.327  1.00  0.00    -0.358 OA
HETATM   32  H   UNL     1      46.259 -11.306   4.484  1.00  0.00     0.218 HD
ENDBRANCH  25  31
ENDBRANCH   6  22
BRANCH   1  33
HETATM   33  C   UNL     1      41.049 -15.635   4.428  1.00  0.00     0.155 C 
BRANCH  33  34
HETATM   34  C   UNL     1      42.511 -16.035   4.161  1.00  0.00     0.254 C 
BRANCH  34  35
HETATM   35  N   UNL     1      42.667 -17.076   3.055  1.00  0.00    -0.070 N 
HETATM   36  H   UNL     1      41.735 -17.505   2.963  1.00  0.00     0.279 HD
BRANCH  35  37
HETATM   37  C   UNL     1      43.603 -18.228   3.395  1.00  0.00     0.230 C 
HETATM   38  C   UNL     1      43.431 -19.399   2.445  1.00  0.00     0.034 C 
ENDBRANCH  35  37
BRANCH  35  39
HETATM   39  C   UNL     1      42.995 -16.511   1.684  1.00  0.00     0.230 C 
HETATM   40  C   UNL     1      43.587 -15.118   1.781  1.00  0.00     0.034 C 
ENDBRANCH  35  39
ENDBRANCH  34  35
ENDBRANCH  33  34
ENDBRANCH   1  33
TORSDOF 14
ENDMDL
MODEL 3
REMARK VINA RESULT:      -7.5      2.430      8.634
REMARK  14 active torsions:
REMARK  status: ('A' for Active; 'I' for Inactive)
REMARK    1  A    between atoms: C_2  and  N_3 
REMARK    2  A    between atoms: N_3  and  C_5 
REMARK    3  A    between atoms: N_3  and  C_37 
REMARK    4  A    between atoms: C_5  and  C_6 
REMARK    5  A    between atoms: C_6  and  N_7 
REMARK    6  A    between atoms: C_10  and  O_11 
REMARK    7  A    between atoms: C_12  and  C_13 
REMARK    8  A    between atoms: C_13  and  C_14 
REMARK    9  A    between atoms: C_18  and  O_19 
REMARK   10  A    between atoms: O_19  and  C_20 
REMARK   11  A    between atoms: C_26  and  C_27 
REMARK   12  A    between atoms: C_29  and  O_30 
REMARK   13  A    between atoms: O_30  and  C_31 
REMARK   14  A    between atoms: C_33  and  O_34 
ROOT
HETATM    1  N   UNL     1      41.961 -15.560   3.840  1.00  0.00    -0.332 N 
HETATM    2  C   UNL     1      41.992 -15.607   5.215  1.00  0.00     0.278 C 
HETATM    3  O   UNL     1      41.784 -16.572   5.929  1.00  0.00    -0.265 OA
HETATM    4  C   UNL     1      42.421 -14.282   5.700  1.00  0.00     0.146 C 
HETATM    5  C   UNL     1      42.733 -13.556   4.618  1.00  0.00     0.059 C 
HETATM    6  C   UNL     1      42.361 -14.250   3.341  1.00  0.00     0.161 C 
ENDROOT
BRANCH   5   7
HETATM    7  C   UNL     1      43.431 -12.253   4.539  1.00  0.00     0.193 C 
HETATM    8  O   UNL     1      43.969 -11.913   3.490  1.00  0.00    -0.287 OA
BRANCH   7   9
HETATM    9  C   UNL     1      43.571 -11.396   5.741  1.00  0.00     0.015 A 
HETATM   10  C   UNL     1      44.796 -11.247   6.400  1.00  0.00     0.025 A 
HETATM   11  C   UNL     1      44.894 -10.457   7.556  1.00  0.00    -0.028 A 
HETATM   12  C   UNL     1      46.204 -10.372   8.292  1.00  0.00     0.051 C 
HETATM   13  C   UNL     1      43.757  -9.781   8.032  1.00  0.00     0.075 A 
HETATM   14  C   UNL     1      42.556  -9.866   7.323  1.00  0.00     0.038 A 
HETATM   15  C   UNL     1      42.462 -10.673   6.182  1.00  0.00     0.018 A 
BRANCH  13  16
HETATM   16  O   UNL     1      43.946  -9.067   9.183  1.00  0.00    -0.346 OA
BRANCH  16  17
HETATM   17  C   UNL     1      43.154  -9.353  10.341  1.00  0.00     0.121 C 
HETATM   18  C   UNL     1      43.745 -10.519  11.132  1.00  0.00     0.040 C 
HETATM   19  C   UNL     1      43.183  -8.089  11.198  1.00  0.00     0.040 C 
ENDBRANCH  16  17
ENDBRANCH  13  16
ENDBRANCH   7   9
ENDBRANCH   5   7
BRANCH   4  20
HETATM   20  O   UNL     1      42.572 -13.986   7.018  1.00  0.00    -0.355 OA
HETATM   21  H   UNL     1      42.424 -14.815   7.518  1.00  0.00     0.218 HD
ENDBRANCH   4  20
BRANCH   6  22
HETATM   22  C   UNL     1      41.209 -13.634   2.559  1.00  0.00    -0.028 A 
HETATM   23  C   UNL     1      41.191 -13.721   1.151  1.00  0.00     0.049 A 
HETATM   24  C   UNL     1      40.113 -13.215   0.422  1.00  0.00     0.102 A 
HETATM   25  C   UNL     1      39.052 -12.617   1.109  1.00  0.00     0.099 A 
HETATM   26  C   UNL     1      39.055 -12.499   2.490  1.00  0.00     0.040 A 
HETATM   27  C   UNL     1      40.132 -13.004   3.215  1.00  0.00     0.012 A 
BRANCH  24  28
HETATM   28  O   UNL     1      39.962 -13.257  -0.938  1.00  0.00    -0.349 OA
BRANCH  28  29
HETATM   29  C   UNL     1      39.495 -14.482  -1.505  1.00  0.00     0.171 C 
HETATM   30  C   UNL     1      38.648 -14.138  -2.718  1.00  0.00     0.034 C 
ENDBRANCH  28  29
ENDBRANCH  24  28
BRANCH  25  31
HETATM   31  O   UNL     1      37.975 -12.123   0.425  1.00  0.00    -0.358 OA
HETATM   32  H   UNL     1      37.295 -12.822   0.471  1.00  0.00     0.218 HD
ENDBRANCH  25  31
ENDBRANCH   6  22
BRANCH   1  33
HETATM   33  C   UNL     1      41.943 -16.746   3.002  1.00  0.00     0.155 C 
BRANCH  33  34
HETATM   34  C   UNL     1      43.312 -17.071   2.377  1.00  0.00     0.254 C 
BRANCH  34  35
HETATM   35  N   UNL     1      43.944 -18.350   2.920  1.00  0.00    -0.070 N 
HETATM   36  H   UNL     1      44.798 -18.480   2.360  1.00  0.00     0.279 HD
BRANCH  35  37
HETATM   37  C   UNL     1      43.122 -19.611   2.691  1.00  0.00     0.230 C 
HETATM   38  C   UNL     1      43.701 -20.473   1.585  1.00  0.00     0.034 C 
ENDBRANCH  35  37
BRANCH  35  39
HETATM   39  C   UNL     1      44.409 -18.271   4.364  1.00  0.00     0.230 C 
HETATM   40  C   UNL     1      44.023 -19.514   5.143  1.00  0.00     0.034 C 
ENDBRANCH  35  39
ENDBRANCH  34  35
ENDBRANCH  33  34
ENDBRANCH   1  33
TORSDOF 14
ENDMDL
MODEL 4
REMARK VINA RESULT:      -7.5      1.555      2.178
REMARK  14 active torsions:
REMARK  status: ('A' for Active; 'I' for Inactive)
REMARK    1  A    between atoms: C_2  and  N_3 
REMARK    2  A    between atoms: N_3  and  C_5 
REMARK    3  A    between atoms: N_3  and  C_37 
REMARK    4  A    between atoms: C_5  and  C_6 
REMARK    5  A    between atoms: C_6  and  N_7 
REMARK    6  A    between atoms: C_10  and  O_11 
REMARK    7  A    between atoms: C_12  and  C_13 
REMARK    8  A    between atoms: C_13  and  C_14 
REMARK    9  A    between atoms: C_18  and  O_19 
REMARK   10  A    between atoms: O_19  and  C_20 
REMARK   11  A    between atoms: C_26  and  C_27 
REMARK   12  A    between atoms: C_29  and  O_30 
REMARK   13  A    between atoms: O_30  and  C_31 
REMARK   14  A    between atoms: C_33  and  O_34 
ROOT
HETATM    1  N   UNL     1      40.745 -10.730   4.075  1.00  0.00    -0.332 N 
HETATM    2  C   UNL     1      39.574 -10.484   4.754  1.00  0.00     0.278 C 
HETATM    3  O   UNL     1      38.805  -9.554   4.593  1.00  0.00    -0.265 OA
HETATM    4  C   UNL     1      39.344 -11.613   5.676  1.00  0.00     0.146 C 
HETATM    5  C   UNL     1      40.301 -12.516   5.429  1.00  0.00     0.059 C 
HETATM    6  C   UNL     1      41.343 -11.997   4.482  1.00  0.00     0.161 C 
ENDROOT
BRANCH   5   7
HETATM    7  C   UNL     1      40.404 -13.917   5.897  1.00  0.00     0.193 C 
HETATM    8  O   UNL     1      39.797 -14.269   6.905  1.00  0.00    -0.287 OA
BRANCH   7   9
HETATM    9  C   UNL     1      41.310 -14.875   5.220  1.00  0.00     0.015 A 
HETATM   10  C   UNL     1      41.059 -15.334   3.922  1.00  0.00     0.025 A 
HETATM   11  C   UNL     1      41.913 -16.267   3.316  1.00  0.00    -0.028 A 
HETATM   12  C   UNL     1      41.583 -16.804   1.950  1.00  0.00     0.051 C 
HETATM   13  C   UNL     1      43.052 -16.717   4.008  1.00  0.00     0.075 A 
HETATM   14  C   UNL     1      43.343 -16.193   5.271  1.00  0.00     0.038 A 
HETATM   15  C   UNL     1      42.474 -15.277   5.877  1.00  0.00     0.018 A 
BRANCH  13  16
HETATM   16  O   UNL     1      43.800 -17.652   3.349  1.00  0.00    -0.346 OA
BRANCH  16  17
HETATM   17  C   UNL     1      43.540 -19.046   3.546  1.00  0.00     0.121 C 
HETATM   18  C   UNL     1      43.800 -19.836   2.263  1.00  0.00     0.040 C 
HETATM   19  C   UNL     1      44.506 -19.509   4.635  1.00  0.00     0.040 C 
ENDBRANCH  16  17
ENDBRANCH  13  16
ENDBRANCH   7   9
ENDBRANCH   5   7
BRANCH   4  20
HETATM   20  O   UNL     1      38.260 -11.696   6.493  1.00  0.00    -0.355 OA
HETATM   21  H   UNL     1      38.595 -11.844   7.400  1.00  0.00     0.218 HD
ENDBRANCH   4  20
BRANCH   6  22
HETATM   22  C   UNL     1      42.717 -11.737   5.081  1.00  0.00    -0.028 A 
HETATM   23  C   UNL     1      42.863 -11.616   6.478  1.00  0.00     0.049 A 
HETATM   24  C   UNL     1      44.125 -11.437   7.049  1.00  0.00     0.102 A 
HETATM   25  C   UNL     1      45.244 -11.377   6.212  1.00  0.00     0.099 A 
HETATM   26  C   UNL     1      45.126 -11.470   4.834  1.00  0.00     0.040 A 
HETATM   27  C   UNL     1      43.867 -11.647   4.268  1.00  0.00     0.012 A 
BRANCH  24  28
HETATM   28  O   UNL     1      44.403 -11.330   8.385  1.00  0.00    -0.349 OA
BRANCH  28  29
HETATM   29  C   UNL     1      44.085 -10.092   9.020  1.00  0.00     0.171 C 
HETATM   30  C   UNL     1      45.039  -9.913  10.189  1.00  0.00     0.034 C 
ENDBRANCH  28  29
ENDBRANCH  24  28
BRANCH  25  31
HETATM   31  O   UNL     1      46.495 -11.215   6.741  1.00  0.00    -0.358 OA
HETATM   32  H   UNL     1      46.860 -10.421   6.304  1.00  0.00     0.218 HD
ENDBRANCH  25  31
ENDBRANCH   6  22
BRANCH   1  33
HETATM   33  C   UNL     1      41.112 -10.050   2.846  1.00  0.00     0.155 C 
BRANCH  33  34
HETATM   34  C   UNL     1      41.395 -11.011   1.678  1.00  0.00     0.254 C 
BRANCH  34  35
HETATM   35  N   UNL     1      40.135 -11.500   0.970  1.00  0.00    -0.070 N 
HETATM   36  H   UNL     1      40.389 -11.537  -0.027  1.00  0.00     0.279 HD
BRANCH  35  37
HETATM   37  C   UNL     1      38.953 -10.543   1.044  1.00  0.00     0.230 C 
HETATM   38  C   UNL     1      37.704 -11.223   1.572  1.00  0.00     0.034 C 
ENDBRANCH  35  37
BRANCH  35  39
HETATM   39  C   UNL     1      39.702 -12.910   1.334  1.00  0.00     0.230 C 
HETATM   40  C   UNL     1      40.035 -13.898   0.233  1.00  0.00     0.034 C 
ENDBRANCH  35  39
ENDBRANCH  34  35
ENDBRANCH  33  34
ENDBRANCH   1  33
TORSDOF 14
ENDMDL
MODEL 5
REMARK VINA RESULT:      -7.4      2.204      7.922
REMARK  14 active torsions:
REMARK  status: ('A' for Active; 'I' for Inactive)
REMARK    1  A    between atoms: C_2  and  N_3 
REMARK    2  A    between atoms: N_3  and  C_5 
REMARK    3  A    between atoms: N_3  and  C_37 
REMARK    4  A    between atoms: C_5  and  C_6 
REMARK    5  A    between atoms: C_6  and  N_7 
REMARK    6  A    between atoms: C_10  and  O_11 
REMARK    7  A    between atoms: C_12  and  C_13 
REMARK    8  A    between atoms: C_13  and  C_14 
REMARK    9  A    between atoms: C_18  and  O_19 
REMARK   10  A    between atoms: O_19  and  C_20 
REMARK   11  A    between atoms: C_26  and  C_27 
REMARK   12  A    between atoms: C_29  and  O_30 
REMARK   13  A    between atoms: O_30  and  C_31 
REMARK   14  A    between atoms: C_33  and  O_34 
ROOT
HETATM    1  N   UNL     1      42.520 -12.755   5.113  1.00  0.00    -0.332 N 
HETATM    2  C   UNL     1      41.364 -12.072   5.414  1.00  0.00     0.278 C 
HETATM    3  O   UNL     1      41.231 -11.149   6.197  1.00  0.00    -0.265 OA
HETATM    4  C   UNL     1      40.296 -12.591   4.539  1.00  0.00     0.146 C 
HETATM    5  C   UNL     1      40.872 -13.457   3.695  1.00  0.00     0.059 C 
HETATM    6  C   UNL     1      42.304 -13.732   4.052  1.00  0.00     0.161 C 
ENDROOT
BRANCH   5   7
HETATM    7  C   UNL     1      40.314 -14.082   2.475  1.00  0.00     0.193 C 
HETATM    8  O   UNL     1      39.831 -15.209   2.535  1.00  0.00    -0.287 OA
BRANCH   7   9
HETATM    9  C   UNL     1      40.418 -13.402   1.162  1.00  0.00     0.015 A 
HETATM   10  C   UNL     1      40.072 -14.047  -0.030  1.00  0.00     0.025 A 
HETATM   11  C   UNL     1      40.211 -13.392  -1.263  1.00  0.00    -0.028 A 
HETATM   12  C   UNL     1      39.905 -14.130  -2.539  1.00  0.00     0.051 C 
HETATM   13  C   UNL     1      40.669 -12.063  -1.295  1.00  0.00     0.075 A 
HETATM   14  C   UNL     1      40.935 -11.396  -0.096  1.00  0.00     0.038 A 
HETATM   15  C   UNL     1      40.811 -12.063   1.129  1.00  0.00     0.018 A 
BRANCH  13  16
HETATM   16  O   UNL     1      40.806 -11.526  -2.545  1.00  0.00    -0.346 OA
BRANCH  16  17
HETATM   17  C   UNL     1      40.215 -10.258  -2.849  1.00  0.00     0.121 C 
HETATM   18  C   UNL     1      40.927  -9.593  -4.026  1.00  0.00     0.040 C 
HETATM   19  C   UNL     1      38.764 -10.545  -3.227  1.00  0.00     0.040 C 
ENDBRANCH  16  17
ENDBRANCH  13  16
ENDBRANCH   7   9
ENDBRANCH   5   7
BRANCH   4  20
HETATM   20  O   UNL     1      39.020 -12.122   4.565  1.00  0.00    -0.355 OA
HETATM   21  H   UNL     1      38.797 -11.843   3.654  1.00  0.00     0.218 HD
ENDBRANCH   4  20
BRANCH   6  22
HETATM   22  C   UNL     1      42.603 -15.127   4.582  1.00  0.00    -0.028 A 
HETATM   23  C   UNL     1      43.135 -16.107   3.718  1.00  0.00     0.049 A 
HETATM   24  C   UNL     1      43.471 -17.373   4.201  1.00  0.00     0.102 A 
HETATM   25  C   UNL     1      43.269 -17.657   5.555  1.00  0.00     0.099 A 
HETATM   26  C   UNL     1      42.726 -16.720   6.421  1.00  0.00     0.040 A 
HETATM   27  C   UNL     1      42.391 -15.458   5.937  1.00  0.00     0.012 A 
BRANCH  24  28
HETATM   28  O   UNL     1      44.015 -18.400   3.477  1.00  0.00    -0.349 OA
BRANCH  28  29
HETATM   29  C   UNL     1      43.301 -18.830   2.318  1.00  0.00     0.171 C 
HETATM   30  C   UNL     1      43.589 -20.308   2.119  1.00  0.00     0.034 C 
ENDBRANCH  28  29
ENDBRANCH  24  28
BRANCH  25  31
HETATM   31  O   UNL     1      43.599 -18.884   6.062  1.00  0.00    -0.358 OA
HETATM   32  H   UNL     1      43.852 -18.721   6.991  1.00  0.00     0.218 HD
ENDBRANCH  25  31
ENDBRANCH   6  22
BRANCH   1  33
HETATM   33  C   UNL     1      43.843 -12.290   5.492  1.00  0.00     0.155 C 
BRANCH  33  34
HETATM   34  C   UNL     1      44.089 -12.322   7.011  1.00  0.00     0.254 C 
BRANCH  34  35
HETATM   35  N   UNL     1      44.532 -10.979   7.587  1.00  0.00    -0.070 N 
HETATM   36  H   UNL     1      44.129 -10.275   6.953  1.00  0.00     0.279 HD
BRANCH  35  37
HETATM   37  C   UNL     1      46.035 -10.736   7.549  1.00  0.00     0.230 C 
HETATM   38  C   UNL     1      46.394  -9.329   7.988  1.00  0.00     0.034 C 
ENDBRANCH  35  37
BRANCH  35  39
HETATM   39  C   UNL     1      43.975 -10.657   8.963  1.00  0.00     0.230 C 
HETATM   40  C   UNL     1      42.884  -9.607   8.891  1.00  0.00     0.034 C 
ENDBRANCH  35  39
ENDBRANCH  34  35
ENDBRANCH  33  34
ENDBRANCH   1  33
TORSDOF 14
ENDMDL
MODEL 6
REMARK VINA RESULT:      -7.3      2.241      6.064
REMARK  14 active torsions:
REMARK  status: ('A' for Active; 'I' for Inactive)
REMARK    1  A    between atoms: C_2  and  N_3 
REMARK    2  A    between atoms: N_3  and  C_5 
REMARK    3  A    between atoms: N_3  and  C_37 
REMARK    4  A    between atoms: C_5  and  C_6 
REMARK    5  A    between atoms: C_6  and  N_7 
REMARK    6  A    between atoms: C_10  and  O_11 
REMARK    7  A    between atoms: C_12  and  C_13 
REMARK    8  A    between atoms: C_13  and  C_14 
REMARK    9  A    between atoms: C_18  and  O_19 
REMARK   10  A    between atoms: O_19  and  C_20 
REMARK   11  A    between atoms: C_26  and  C_27 
REMARK   12  A    between atoms: C_29  and  O_30 
REMARK   13  A    between atoms: O_30  and  C_31 
REMARK   14  A    between atoms: C_33  and  O_34 
ROOT
HETATM    1  N   UNL     1      42.346 -10.084   5.803  1.00  0.00    -0.332 N 
HETATM    2  C   UNL     1      41.779  -8.978   5.213  1.00  0.00     0.278 C 
HETATM    3  O   UNL     1      41.605  -7.880   5.711  1.00  0.00    -0.265 OA
HETATM    4  C   UNL     1      41.491  -9.317   3.807  1.00  0.00     0.146 C 
HETATM    5  C   UNL     1      41.993 -10.540   3.592  1.00  0.00     0.059 C 
HETATM    6  C   UNL     1      42.474 -11.188   4.858  1.00  0.00     0.161 C 
ENDROOT
BRANCH   5   7
HETATM    7  C   UNL     1      42.186 -11.257   2.312  1.00  0.00     0.193 C 
HETATM    8  O   UNL     1      42.268 -10.623   1.264  1.00  0.00    -0.287 OA
BRANCH   7   9
HETATM    9  C   UNL     1      42.186 -12.739   2.268  1.00  0.00     0.015 A 
HETATM   10  C   UNL     1      40.998 -13.473   2.189  1.00  0.00     0.025 A 
HETATM   11  C   UNL     1      41.024 -14.876   2.184  1.00  0.00    -0.028 A 
HETATM   12  C   UNL     1      39.731 -15.647   2.175  1.00  0.00     0.051 C 
HETATM   13  C   UNL     1      42.260 -15.547   2.221  1.00  0.00     0.075 A 
HETATM   14  C   UNL     1      43.446 -14.809   2.217  1.00  0.00     0.038 A 
HETATM   15  C   UNL     1      43.411 -13.409   2.242  1.00  0.00     0.018 A 
BRANCH  13  16
HETATM   16  O   UNL     1      42.178 -16.912   2.250  1.00  0.00    -0.346 OA
BRANCH  16  17
HETATM   17  C   UNL     1      43.316 -17.690   2.636  1.00  0.00     0.121 C 
HETATM   18  C   UNL     1      43.477 -17.701   4.156  1.00  0.00     0.040 C 
HETATM   19  C   UNL     1      43.049 -19.110   2.141  1.00  0.00     0.040 C 
ENDBRANCH  16  17
ENDBRANCH  13  16
ENDBRANCH   7   9
ENDBRANCH   5   7
BRANCH   4  20
HETATM   20  O   UNL     1      40.937  -8.439   2.929  1.00  0.00    -0.355 OA
HETATM   21  H   UNL     1      40.660  -8.954   2.144  1.00  0.00     0.218 HD
ENDBRANCH   4  20
BRANCH   6  22
HETATM   22  C   UNL     1      41.657 -12.372   5.352  1.00  0.00    -0.028 A 
HETATM   23  C   UNL     1      42.311 -13.543   5.790  1.00  0.00     0.049 A 
HETATM   24  C   UNL     1      41.580 -14.616   6.303  1.00  0.00     0.102 A 
HETATM   25  C   UNL     1      40.187 -14.515   6.374  1.00  0.00     0.099 A 
HETATM   26  C   UNL     1      39.518 -13.385   5.929  1.00  0.00     0.040 A 
HETATM   27  C   UNL     1      40.249 -12.316   5.417  1.00  0.00     0.012 A 
BRANCH  24  28
HETATM   28  O   UNL     1      42.093 -15.792   6.782  1.00  0.00    -0.349 OA
BRANCH  28  29
HETATM   29  C   UNL     1      43.010 -15.708   7.872  1.00  0.00     0.171 C 
HETATM   30  C   UNL     1      44.136 -16.692   7.608  1.00  0.00     0.034 C 
ENDBRANCH  28  29
ENDBRANCH  24  28
BRANCH  25  31
HETATM   31  O   UNL     1      39.443 -15.544   6.882  1.00  0.00    -0.358 OA
HETATM   32  H   UNL     1      38.817 -15.128   7.505  1.00  0.00     0.218 HD
ENDBRANCH  25  31
ENDBRANCH   6  22
BRANCH   1  33
HETATM   33  C   UNL     1      43.089 -10.030   7.050  1.00  0.00     0.155 C 
BRANCH  33  34
HETATM   34  C   UNL     1      42.190 -10.092   8.298  1.00  0.00     0.254 C 
BRANCH  34  35
HETATM   35  N   UNL     1      42.919  -9.743   9.593  1.00  0.00    -0.070 N 
HETATM   36  H   UNL     1      43.105 -10.651  10.044  1.00  0.00     0.279 HD
BRANCH  35  37
HETATM   37  C   UNL     1      42.086  -8.962  10.600  1.00  0.00     0.230 C 
HETATM   38  C   UNL     1      41.648  -9.826  11.767  1.00  0.00     0.034 C 
ENDBRANCH  35  37
BRANCH  35  39
HETATM   39  C   UNL     1      44.279  -9.093   9.408  1.00  0.00     0.230 C 
HETATM   40  C   UNL     1      45.340  -9.765  10.258  1.00  0.00     0.034 C 
ENDBRANCH  35  39
ENDBRANCH  34  35
ENDBRANCH  33  34
ENDBRANCH   1  33
TORSDOF 14
ENDMDL
MODEL 7
REMARK VINA RESULT:      -7.3      4.109      8.390
REMARK  14 active torsions:
REMARK  status: ('A' for Active; 'I' for Inactive)
REMARK    1  A    between atoms: C_2  and  N_3 
REMARK    2  A    between atoms: N_3  and  C_5 
REMARK    3  A    between atoms: N_3  and  C_37 
REMARK    4  A    between atoms: C_5  and  C_6 
REMARK    5  A    between atoms: C_6  and  N_7 
REMARK    6  A    between atoms: C_10  and  O_11 
REMARK    7  A    between atoms: C_12  and  C_13 
REMARK    8  A    between atoms: C_13  and  C_14 
REMARK    9  A    between atoms: C_18  and  O_19 
REMARK   10  A    between atoms: O_19  and  C_20 
REMARK   11  A    between atoms: C_26  and  C_27 
REMARK   12  A    between atoms: C_29  and  O_30 
REMARK   13  A    between atoms: O_30  and  C_31 
REMARK   14  A    between atoms: C_33  and  O_34 
ROOT
HETATM    1  N   UNL     1      41.117  -8.710  12.049  1.00  0.00    -0.332 N 
HETATM    2  C   UNL     1      40.324  -9.812  12.273  1.00  0.00     0.278 C 
HETATM    3  O   UNL     1      40.139 -10.392  13.328  1.00  0.00    -0.265 OA
HETATM    4  C   UNL     1      39.637 -10.135  11.008  1.00  0.00     0.146 C 
HETATM    5  C   UNL     1      39.952  -9.167  10.138  1.00  0.00     0.059 C 
HETATM    6  C   UNL     1      41.006  -8.242  10.673  1.00  0.00     0.161 C 
ENDROOT
BRANCH   5   7
HETATM    7  C   UNL     1      39.360  -8.875   8.813  1.00  0.00     0.193 C 
HETATM    8  O   UNL     1      38.512  -7.993   8.705  1.00  0.00    -0.287 OA
BRANCH   7   9
HETATM    9  C   UNL     1      39.709  -9.698   7.631  1.00  0.00     0.015 A 
HETATM   10  C   UNL     1      40.815  -9.402   6.827  1.00  0.00     0.025 A 
HETATM   11  C   UNL     1      41.103 -10.178   5.694  1.00  0.00    -0.028 A 
HETATM   12  C   UNL     1      42.253  -9.796   4.802  1.00  0.00     0.051 C 
HETATM   13  C   UNL     1      40.292 -11.284   5.386  1.00  0.00     0.075 A 
HETATM   14  C   UNL     1      39.238 -11.625   6.238  1.00  0.00     0.038 A 
HETATM   15  C   UNL     1      38.945 -10.834   7.356  1.00  0.00     0.018 A 
BRANCH  13  16
HETATM   16  O   UNL     1      40.633 -11.954   4.243  1.00  0.00    -0.346 OA
BRANCH  16  17
HETATM   17  C   UNL     1      40.763 -13.379   4.260  1.00  0.00     0.121 C 
HETATM   18  C   UNL     1      40.122 -13.999   3.018  1.00  0.00     0.040 C 
HETATM   19  C   UNL     1      42.262 -13.670   4.259  1.00  0.00     0.040 C 
ENDBRANCH  16  17
ENDBRANCH  13  16
ENDBRANCH   7   9
ENDBRANCH   5   7
BRANCH   4  20
HETATM   20  O   UNL     1      38.761 -11.167  10.879  1.00  0.00    -0.355 OA
HETATM   21  H   UNL     1      37.998 -10.834  10.366  1.00  0.00     0.218 HD
ENDBRANCH   4  20
BRANCH   6  22
HETATM   22  C   UNL     1      42.369  -8.325  10.001  1.00  0.00    -0.028 A 
HETATM   23  C   UNL     1      42.938  -9.585   9.721  1.00  0.00     0.049 A 
HETATM   24  C   UNL     1      44.160  -9.680   9.051  1.00  0.00     0.102 A 
HETATM   25  C   UNL     1      44.813  -8.506   8.664  1.00  0.00     0.099 A 
HETATM   26  C   UNL     1      44.287  -7.255   8.946  1.00  0.00     0.040 A 
HETATM   27  C   UNL     1      43.069  -7.163   9.615  1.00  0.00     0.012 A 
BRANCH  24  28
HETATM   28  O   UNL     1      44.805 -10.836   8.700  1.00  0.00    -0.349 OA
BRANCH  28  29
HETATM   29  C   UNL     1      44.197 -11.639   7.688  1.00  0.00     0.171 C 
HETATM   30  C   UNL     1      45.099 -11.604   6.466  1.00  0.00     0.034 C 
ENDBRANCH  28  29
ENDBRANCH  24  28
BRANCH  25  31
HETATM   31  O   UNL     1      46.005  -8.566   7.995  1.00  0.00    -0.358 OA
HETATM   32  H   UNL     1      45.949  -7.879   7.303  1.00  0.00     0.218 HD
ENDBRANCH  25  31
ENDBRANCH   6  22
BRANCH   1  33
HETATM   33  C   UNL     1      41.654  -7.885  13.117  1.00  0.00     0.155 C 
BRANCH  33  34
HETATM   34  C   UNL     1      40.882  -6.568  13.316  1.00  0.00     0.254 C 
BRANCH  34  35
HETATM   35  N   UNL     1      39.625  -6.719  14.168  1.00  0.00    -0.070 N 
HETATM   36  H   UNL     1      39.440  -7.732  14.188  1.00  0.00     0.279 HD
BRANCH  35  37
HETATM   37  C   UNL     1      38.371  -6.099  13.566  1.00  0.00     0.230 C 
HETATM   38  C   UNL     1      37.751  -6.987  12.504  1.00  0.00     0.034 C 
ENDBRANCH  35  37
BRANCH  35  39
HETATM   39  C   UNL     1      39.781  -6.303  15.620  1.00  0.00     0.230 C 
HETATM   40  C   UNL     1      38.566  -5.544  16.118  1.00  0.00     0.034 C 
ENDBRANCH  35  39
ENDBRANCH  34  35
ENDBRANCH  33  34
ENDBRANCH   1  33
TORSDOF 14
ENDMDL
MODEL 8
REMARK VINA RESULT:      -7.2      2.466      8.525
REMARK  14 active torsions:
REMARK  status: ('A' for Active; 'I' for Inactive)
REMARK    1  A    between atoms: C_2  and  N_3 
REMARK    2  A    between atoms: N_3  and  C_5 
REMARK    3  A    between atoms: N_3  and  C_37 
REMARK    4  A    between atoms: C_5  and  C_6 
REMARK    5  A    between atoms: C_6  and  N_7 
REMARK    6  A    between atoms: C_10  and  O_11 
REMARK    7  A    between atoms: C_12  and  C_13 
REMARK    8  A    between atoms: C_13  and  C_14 
REMARK    9  A    between atoms: C_18  and  O_19 
REMARK   10  A    between atoms: O_19  and  C_20 
REMARK   11  A    between atoms: C_26  and  C_27 
REMARK   12  A    between atoms: C_29  and  O_30 
REMARK   13  A    between atoms: O_30  and  C_31 
REMARK   14  A    between atoms: C_33  and  O_34 
ROOT
HETATM    1  N   UNL     1      41.561 -15.596   3.626  1.00  0.00    -0.332 N 
HETATM    2  C   UNL     1      40.781 -15.721   4.753  1.00  0.00     0.278 C 
HETATM    3  O   UNL     1      40.539 -16.737   5.379  1.00  0.00    -0.265 OA
HETATM    4  C   UNL     1      40.346 -14.368   5.149  1.00  0.00     0.146 C 
HETATM    5  C   UNL     1      40.965 -13.507   4.332  1.00  0.00     0.059 C 
HETATM    6  C   UNL     1      41.695 -14.202   3.220  1.00  0.00     0.161 C 
ENDROOT
BRANCH   5   7
HETATM    7  C   UNL     1      41.068 -12.034   4.434  1.00  0.00     0.193 C 
HETATM    8  O   UNL     1      40.483 -11.324   3.620  1.00  0.00    -0.287 OA
BRANCH   7   9
HETATM    9  C   UNL     1      41.946 -11.406   5.450  1.00  0.00     0.015 A 
HETATM   10  C   UNL     1      43.325 -11.638   5.475  1.00  0.00     0.025 A 
HETATM   11  C   UNL     1      44.130 -11.058   6.468  1.00  0.00    -0.028 A 
HETATM   12  C   UNL     1      45.599 -11.381   6.521  1.00  0.00     0.051 C 
HETATM   13  C   UNL     1      43.546 -10.207   7.424  1.00  0.00     0.075 A 
HETATM   14  C   UNL     1      42.182  -9.914   7.345  1.00  0.00     0.038 A 
HETATM   15  C   UNL     1      41.383 -10.512   6.363  1.00  0.00     0.018 A 
BRANCH  13  16
HETATM   16  O   UNL     1      44.406  -9.722   8.370  1.00  0.00    -0.346 OA
BRANCH  16  17
HETATM   17  C   UNL     1      43.907  -8.928   9.452  1.00  0.00     0.121 C 
HETATM   18  C   UNL     1      44.598  -9.298  10.764  1.00  0.00     0.040 C 
HETATM   19  C   UNL     1      44.228  -7.478   9.098  1.00  0.00     0.040 C 
ENDBRANCH  16  17
ENDBRANCH  13  16
ENDBRANCH   7   9
ENDBRANCH   5   7
BRANCH   4  20
HETATM   20  O   UNL     1      39.568 -14.127   6.238  1.00  0.00    -0.355 OA
HETATM   21  H   UNL     1      39.229 -13.213   6.152  1.00  0.00     0.218 HD
ENDBRANCH   4  20
BRANCH   6  22
HETATM   22  C   UNL     1      41.113 -14.024   1.826  1.00  0.00    -0.028 A 
HETATM   23  C   UNL     1      41.419 -12.868   1.079  1.00  0.00     0.049 A 
HETATM   24  C   UNL     1      40.942 -12.716  -0.225  1.00  0.00     0.102 A 
HETATM   25  C   UNL     1      40.152 -13.728  -0.778  1.00  0.00     0.099 A 
HETATM   26  C   UNL     1      39.817 -14.864  -0.059  1.00  0.00     0.040 A 
HETATM   27  C   UNL     1      40.293 -15.013   1.242  1.00  0.00     0.012 A 
BRANCH  24  28
HETATM   28  O   UNL     1      41.186 -11.659  -1.060  1.00  0.00    -0.349 OA
BRANCH  28  29
HETATM   29  C   UNL     1      41.261 -10.363  -0.467  1.00  0.00     0.171 C 
HETATM   30  C   UNL     1      42.013  -9.457  -1.426  1.00  0.00     0.034 C 
ENDBRANCH  28  29
ENDBRANCH  24  28
BRANCH  25  31
HETATM   31  O   UNL     1      39.679 -13.615  -2.057  1.00  0.00    -0.358 OA
HETATM   32  H   UNL     1      39.179 -14.437  -2.222  1.00  0.00     0.218 HD
ENDBRANCH  25  31
ENDBRANCH   6  22
BRANCH   1  33
HETATM   33  C   UNL     1      42.457 -16.638   3.158  1.00  0.00     0.155 C 
BRANCH  33  34
HETATM   34  C   UNL     1      43.681 -16.844   4.068  1.00  0.00     0.254 C 
BRANCH  34  35
HETATM   35  N   UNL     1      43.528 -18.008   5.044  1.00  0.00    -0.070 N 
HETATM   36  H   UNL     1      42.541 -18.292   4.963  1.00  0.00     0.279 HD
BRANCH  35  37
HETATM   37  C   UNL     1      43.714 -17.637   6.509  1.00  0.00     0.230 C 
HETATM   38  C   UNL     1      44.013 -16.160   6.688  1.00  0.00     0.034 C 
ENDBRANCH  35  37
BRANCH  35  39
HETATM   39  C   UNL     1      44.340 -19.244   4.700  1.00  0.00     0.230 C 
HETATM   40  C   UNL     1      43.888 -20.450   5.501  1.00  0.00     0.034 C 
ENDBRANCH  35  39
ENDBRANCH  34  35
ENDBRANCH  33  34
ENDBRANCH   1  33
TORSDOF 14
ENDMDL
MODEL 9
REMARK VINA RESULT:      -7.2      2.813      7.391
REMARK  14 active torsions:
REMARK  status: ('A' for Active; 'I' for Inactive)
REMARK    1  A    between atoms: C_2  and  N_3 
REMARK    2  A    between atoms: N_3  and  C_5 
REMARK    3  A    between atoms: N_3  and  C_37 
REMARK    4  A    between atoms: C_5  and  C_6 
REMARK    5  A    between atoms: C_6  and  N_7 
REMARK    6  A    between atoms: C_10  and  O_11 
REMARK    7  A    between atoms: C_12  and  C_13 
REMARK    8  A    between atoms: C_13  and  C_14 
REMARK    9  A    between atoms: C_18  and  O_19 
REMARK   10  A    between atoms: O_19  and  C_20 
REMARK   11  A    between atoms: C_26  and  C_27 
REMARK   12  A    between atoms: C_29  and  O_30 
REMARK   13  A    between atoms: O_30  and  C_31 
REMARK   14  A    between atoms: C_33  and  O_34 
ROOT
HETATM    1  N   UNL     1      40.643 -12.904   5.238  1.00  0.00    -0.332 N 
HETATM    2  C   UNL     1      39.831 -12.575   4.177  1.00  0.00     0.278 C 
HETATM    3  O   UNL     1      39.294 -13.335   3.391  1.00  0.00    -0.265 OA
HETATM    4  C   UNL     1      39.633 -11.114   4.201  1.00  0.00     0.146 C 
HETATM    5  C   UNL     1      40.223 -10.660   5.313  1.00  0.00     0.059 C 
HETATM    6  C   UNL     1      41.017 -11.726   6.012  1.00  0.00     0.161 C 
ENDROOT
BRANCH   5   7
HETATM    7  C   UNL     1      40.129  -9.322   5.940  1.00  0.00     0.193 C 
HETATM    8  O   UNL     1      40.021  -8.324   5.234  1.00  0.00    -0.287 OA
BRANCH   7   9
HETATM    9  C   UNL     1      40.260  -9.165   7.409  1.00  0.00     0.015 A 
HETATM   10  C   UNL     1      41.273  -8.386   7.978  1.00  0.00     0.025 A 
HETATM   11  C   UNL     1      41.395  -8.280   9.372  1.00  0.00    -0.028 A 
HETATM   12  C   UNL     1      42.537  -7.499   9.964  1.00  0.00     0.051 C 
HETATM   13  C   UNL     1      40.467  -8.936  10.201  1.00  0.00     0.075 A 
HETATM   14  C   UNL     1      39.408  -9.644   9.626  1.00  0.00     0.038 A 
HETATM   15  C   UNL     1      39.305  -9.761   8.235  1.00  0.00     0.018 A 
BRANCH  13  16
HETATM   16  O   UNL     1      40.692  -8.802  11.544  1.00  0.00    -0.346 OA
BRANCH  16  17
HETATM   17  C   UNL     1      41.135  -9.927  12.311  1.00  0.00     0.121 C 
HETATM   18  C   UNL     1      42.300  -9.542  13.221  1.00  0.00     0.040 C 
HETATM   19  C   UNL     1      39.942 -10.356  13.163  1.00  0.00     0.040 C 
ENDBRANCH  16  17
ENDBRANCH  13  16
ENDBRANCH   7   9
ENDBRANCH   5   7
BRANCH   4  20
HETATM   20  O   UNL     1      38.865 -10.453   3.293  1.00  0.00    -0.355 OA
HETATM   21  H   UNL     1      39.398  -9.704   2.957  1.00  0.00     0.218 HD
ENDBRANCH   4  20
BRANCH   6  22
HETATM   22  C   UNL     1      42.529 -11.560   5.979  1.00  0.00    -0.028 A 
HETATM   23  C   UNL     1      43.246 -11.417   7.186  1.00  0.00     0.049 A 
HETATM   24  C   UNL     1      44.639 -11.324   7.178  1.00  0.00     0.102 A 
HETATM   25  C   UNL     1      45.314 -11.371   5.955  1.00  0.00     0.099 A 
HETATM   26  C   UNL     1      44.633 -11.489   4.753  1.00  0.00     0.040 A 
HETATM   27  C   UNL     1      43.243 -11.580   4.763  1.00  0.00     0.012 A 
BRANCH  24  28
HETATM   28  O   UNL     1      45.450 -11.208   8.275  1.00  0.00    -0.349 OA
BRANCH  28  29
HETATM   29  C   UNL     1      45.188 -10.125   9.167  1.00  0.00     0.171 C 
HETATM   30  C   UNL     1      45.654  -8.846   8.493  1.00  0.00     0.034 C 
ENDBRANCH  28  29
ENDBRANCH  24  28
BRANCH  25  31
HETATM   31  O   UNL     1      46.679 -11.295   5.914  1.00  0.00    -0.358 OA
HETATM   32  H   UNL     1      46.981 -12.183   5.643  1.00  0.00     0.218 HD
ENDBRANCH  25  31
ENDBRANCH   6  22
BRANCH   1  33
HETATM   33  C   UNL     1      40.766 -14.255   5.759  1.00  0.00     0.155 C 
BRANCH  33  34
HETATM   34  C   UNL     1      41.255 -15.270   4.710  1.00  0.00     0.254 C 
BRANCH  34  35
HETATM   35  N   UNL     1      42.748 -15.166   4.409  1.00  0.00    -0.070 N 
HETATM   36  H   UNL     1      43.074 -14.362   4.963  1.00  0.00     0.279 HD
BRANCH  35  37
HETATM   37  C   UNL     1      43.082 -14.815   2.965  1.00  0.00     0.230 C 
HETATM   38  C   UNL     1      43.227 -16.052   2.099  1.00  0.00     0.034 C 
ENDBRANCH  35  37
BRANCH  35  39
HETATM   39  C   UNL     1      43.580 -16.348   4.875  1.00  0.00     0.230 C 
HETATM   40  C   UNL     1      44.240 -16.074   6.212  1.00  0.00     0.034 C 
ENDBRANCH  35  39
ENDBRANCH  34  35
ENDBRANCH  33  34
ENDBRANCH   1  33
TORSDOF 14
ENDMDL
MODEL 10
REMARK VINA RESULT:      -7.1      2.834      7.039
REMARK  14 active torsions:
REMARK  status: ('A' for Active; 'I' for Inactive)
REMARK    1  A    between atoms: C_2  and  N_3 
REMARK    2  A    between atoms: N_3  and  C_5 
REMARK    3  A    between atoms: N_3  and  C_37 
REMARK    4  A    between atoms: C_5  and  C_6 
REMARK    5  A    between atoms: C_6  and  N_7 
REMARK    6  A    between atoms: C_10  and  O_11 
REMARK    7  A    between atoms: C_12  and  C_13 
REMARK    8  A    between atoms: C_13  and  C_14 
REMARK    9  A    between atoms: C_18  and  O_19 
REMARK   10  A    between atoms: O_19  and  C_20 
REMARK   11  A    between atoms: C_26  and  C_27 
REMARK   12  A    between atoms: C_29  and  O_30 
REMARK   13  A    between atoms: O_30  and  C_31 
REMARK   14  A    between atoms: C_33  and  O_34 
ROOT
HETATM    1  N   UNL     1      42.271  -8.811   8.703  1.00  0.00    -0.332 N 
HETATM    2  C   UNL     1      43.398  -8.066   8.965  1.00  0.00     0.278 C 
HETATM    3  O   UNL     1      43.498  -7.112   9.716  1.00  0.00    -0.265 OA
HETATM    4  C   UNL     1      44.523  -8.685   8.240  1.00  0.00     0.146 C 
HETATM    5  C   UNL     1      44.055  -9.811   7.685  1.00  0.00     0.059 C 
HETATM    6  C   UNL     1      42.566  -9.937   7.825  1.00  0.00     0.161 C 
ENDROOT
BRANCH   5   7
HETATM    7  C   UNL     1      44.804 -10.919   7.052  1.00  0.00     0.193 C 
HETATM    8  O   UNL     1      46.030 -10.879   7.005  1.00  0.00    -0.287 OA
BRANCH   7   9
HETATM    9  C   UNL     1      44.086 -12.033   6.386  1.00  0.00     0.015 A 
HETATM   10  C   UNL     1      43.577 -13.117   7.109  1.00  0.00     0.025 A 
HETATM   11  C   UNL     1      42.931 -14.175   6.452  1.00  0.00    -0.028 A 
HETATM   12  C   UNL     1      42.459 -15.366   7.240  1.00  0.00     0.051 C 
HETATM   13  C   UNL     1      42.763 -14.125   5.056  1.00  0.00     0.075 A 
HETATM   14  C   UNL     1      43.200 -13.001   4.349  1.00  0.00     0.038 A 
HETATM   15  C   UNL     1      43.861 -11.959   5.011  1.00  0.00     0.018 A 
BRANCH  13  16
HETATM   16  O   UNL     1      42.156 -15.219   4.505  1.00  0.00    -0.346 OA
BRANCH  16  17
HETATM   17  C   UNL     1      42.041 -15.334   3.083  1.00  0.00     0.121 C 
HETATM   18  C   UNL     1      43.196 -16.154   2.508  1.00  0.00     0.040 C 
HETATM   19  C   UNL     1      40.722 -16.057   2.819  1.00  0.00     0.040 C 
ENDBRANCH  16  17
ENDBRANCH  13  16
ENDBRANCH   7   9
ENDBRANCH   5   7
BRANCH   4  20
HETATM   20  O   UNL     1      45.795  -8.205   8.292  1.00  0.00    -0.355 OA
HETATM   21  H   UNL     1      45.913  -7.621   7.516  1.00  0.00     0.218 HD
ENDBRANCH   4  20
BRANCH   6  22
HETATM   22  C   UNL     1      41.762  -9.798   6.540  1.00  0.00    -0.028 A 
HETATM   23  C   UNL     1      40.802 -10.776   6.203  1.00  0.00     0.049 A 
HETATM   24  C   UNL     1      40.014 -10.634   5.060  1.00  0.00     0.102 A 
HETATM   25  C   UNL     1      40.193  -9.508   4.250  1.00  0.00     0.099 A 
HETATM   26  C   UNL     1      41.144  -8.544   4.545  1.00  0.00     0.040 A 
HETATM   27  C   UNL     1      41.930  -8.689   5.686  1.00  0.00     0.012 A 
BRANCH  24  28
HETATM   28  O   UNL     1      39.036 -11.493   4.637  1.00  0.00    -0.349 OA
BRANCH  28  29
HETATM   29  C   UNL     1      39.458 -12.749   4.104  1.00  0.00     0.171 C 
HETATM   30  C   UNL     1      39.074 -12.781   2.635  1.00  0.00     0.034 C 
ENDBRANCH  28  29
ENDBRANCH  24  28
BRANCH  25  31
HETATM   31  O   UNL     1      39.428  -9.333   3.129  1.00  0.00    -0.358 OA
HETATM   32  H   UNL     1      38.840 -10.112   3.093  1.00  0.00     0.218 HD
ENDBRANCH  25  31
ENDBRANCH   6  22
BRANCH   1  33
HETATM   33  C   UNL     1      41.064  -8.741   9.508  1.00  0.00     0.155 C 
BRANCH  33  34
HETATM   34  C   UNL     1      41.081  -9.695  10.717  1.00  0.00     0.254 C 
BRANCH  34  35
HETATM   35  N   UNL     1      41.536  -9.030  12.013  1.00  0.00    -0.070 N 
HETATM   36  H   UNL     1      41.593  -8.026  11.789  1.00  0.00     0.279 HD
BRANCH  35  37
HETATM   37  C   UNL     1      42.936  -9.416  12.469  1.00  0.00     0.230 C 
HETATM   38  C   UNL     1      43.510 -10.549  11.639  1.00  0.00     0.034 C 
ENDBRANCH  35  37
BRANCH  35  39
HETATM   39  C   UNL     1      40.552  -9.135  13.166  1.00  0.00     0.230 C 
HETATM   40  C   UNL     1      39.804 -10.454  13.144  1.00  0.00     0.034 C 
ENDBRANCH  35  39
ENDBRANCH  34  35
ENDBRANCH  33  34
ENDBRANCH   1  33
TORSDOF 14
ENDMDL
