MODEL 1
REMARK VINA RESULT:      -8.3      0.000      0.000
REMARK  3 active torsions:
REMARK  status: ('A' for Active; 'I' for Inactive)
REMARK    1  A    between atoms: C_2  and  N_3 
REMARK    2  A    between atoms: C_2  and  C_10 
REMARK    3  A    between atoms: C_13  and  C_14 
ROOT
HETATM    1  C   UNL     1      42.944 -12.867   6.024  1.00  0.00    -0.028 A 
HETATM    2  C   UNL     1      42.628 -13.236   4.707  1.00  0.00     0.010 A 
HETATM    3  C   UNL     1      42.778 -14.561   4.273  1.00  0.00     0.013 A 
HETATM    4  C   UNL     1      43.236 -15.564   5.140  1.00  0.00    -0.024 A 
HETATM    5  C   UNL     1      43.519 -15.195   6.463  1.00  0.00     0.013 A 
HETATM    6  C   UNL     1      43.381 -13.871   6.899  1.00  0.00     0.010 A 
ENDROOT
BRANCH   4   7
HETATM    7  C   UNL     1      43.443 -16.948   4.674  1.00  0.00    -0.006 A 
HETATM    8  C   UNL     1      43.867 -17.955   5.557  1.00  0.00     0.131 A 
HETATM    9  N   UNL     1      44.091 -19.257   5.265  1.00  0.00    -0.239 NA
HETATM   10  C   UNL     1      43.884 -19.578   3.972  1.00  0.00     0.177 A 
HETATM   11  C   UNL     1      43.471 -18.656   3.018  1.00  0.00     0.082 A 
HETATM   12  N   UNL     1      44.045 -20.819   3.427  1.00  0.00    -0.222 NA
HETATM   13  N   UNL     1      43.389 -19.388   1.862  1.00  0.00    -0.348 N 
HETATM   14  C   UNL     1      43.235 -17.317   3.334  1.00  0.00     0.047 A 
HETATM   15  H   UNL     1      43.121 -19.047   0.950  1.00  0.00     0.167 HD
HETATM   16  C   UNL     1      43.744 -20.676   2.158  1.00  0.00     0.210 A 
ENDBRANCH   4   7
BRANCH   1  17
HETATM   17  C   UNL     1      42.794 -11.414   6.450  1.00  0.00     0.217 C 
HETATM   18  C   UNL     1      42.422 -10.450   5.320  1.00  0.00     0.045 C 
BRANCH  17  19
HETATM   19  N   UNL     1      44.012 -10.923   7.236  1.00  0.00    -0.063 N 
HETATM   20  H   UNL     1      44.099 -11.602   8.005  1.00  0.00     0.280 HD
HETATM   21  C   UNL     1      45.328 -10.981   6.491  1.00  0.00     0.235 C 
HETATM   22  C   UNL     1      46.471 -10.687   7.456  1.00  0.00     0.028 C 
HETATM   23  C   UNL     1      46.284  -9.348   8.159  1.00  0.00     0.003 C 
HETATM   24  C   UNL     1      44.926  -9.276   8.849  1.00  0.00     0.028 C 
HETATM   25  C   UNL     1      43.789  -9.573   7.883  1.00  0.00     0.235 C 
ENDBRANCH  17  19
ENDBRANCH   1  17
TORSDOF 3
ENDMDL
MODEL 2
REMARK VINA RESULT:      -8.3      4.735      7.811
REMARK  3 active torsions:
REMARK  status: ('A' for Active; 'I' for Inactive)
REMARK    1  A    between atoms: C_2  and  N_3 
REMARK    2  A    between atoms: C_2  and  C_10 
REMARK    3  A    between atoms: C_13  and  C_14 
ROOT
HETATM    1  C   UNL     1      42.255 -15.936   4.118  1.00  0.00    -0.028 A 
HETATM    2  C   UNL     1      43.007 -15.075   3.303  1.00  0.00     0.010 A 
HETATM    3  C   UNL     1      42.459 -14.529   2.133  1.00  0.00     0.013 A 
HETATM    4  C   UNL     1      41.142 -14.812   1.743  1.00  0.00    -0.024 A 
HETATM    5  C   UNL     1      40.386 -15.647   2.580  1.00  0.00     0.013 A 
HETATM    6  C   UNL     1      40.931 -16.204   3.744  1.00  0.00     0.010 A 
ENDROOT
BRANCH   4   7
HETATM    7  C   UNL     1      40.579 -14.279   0.487  1.00  0.00    -0.006 A 
HETATM    8  C   UNL     1      40.895 -12.984   0.044  1.00  0.00     0.131 A 
HETATM    9  N   UNL     1      40.454 -12.377  -1.083  1.00  0.00    -0.239 NA
HETATM   10  C   UNL     1      39.616 -13.129  -1.825  1.00  0.00     0.177 A 
HETATM   11  C   UNL     1      39.237 -14.417  -1.471  1.00  0.00     0.082 A 
HETATM   12  N   UNL     1      39.034 -12.743  -2.998  1.00  0.00    -0.222 NA
HETATM   13  N   UNL     1      38.393 -14.804  -2.480  1.00  0.00    -0.348 N 
HETATM   14  C   UNL     1      39.704 -15.035  -0.310  1.00  0.00     0.047 A 
HETATM   15  H   UNL     1      37.915 -15.690  -2.559  1.00  0.00     0.167 HD
HETATM   16  C   UNL     1      38.302 -13.767  -3.368  1.00  0.00     0.210 A 
ENDBRANCH   4   7
BRANCH   1  17
HETATM   17  C   UNL     1      42.892 -16.532   5.365  1.00  0.00     0.217 C 
HETATM   18  C   UNL     1      44.138 -15.793   5.862  1.00  0.00     0.045 C 
BRANCH  17  19
HETATM   19  N   UNL     1      43.145 -18.033   5.213  1.00  0.00    -0.063 N 
HETATM   20  H   UNL     1      42.235 -18.407   4.914  1.00  0.00     0.280 HD
HETATM   21  C   UNL     1      44.121 -18.416   4.122  1.00  0.00     0.235 C 
HETATM   22  C   UNL     1      44.101 -19.928   3.931  1.00  0.00     0.028 C 
HETATM   23  C   UNL     1      44.399 -20.664   5.231  1.00  0.00     0.003 C 
HETATM   24  C   UNL     1      43.453 -20.220   6.342  1.00  0.00     0.028 C 
HETATM   25  C   UNL     1      43.474 -18.709   6.526  1.00  0.00     0.235 C 
ENDBRANCH  17  19
ENDBRANCH   1  17
TORSDOF 3
ENDMDL
MODEL 3
REMARK VINA RESULT:      -8.2      7.512     11.633
REMARK  3 active torsions:
REMARK  status: ('A' for Active; 'I' for Inactive)
REMARK    1  A    between atoms: C_2  and  N_3 
REMARK    2  A    between atoms: C_2  and  C_10 
REMARK    3  A    between atoms: C_13  and  C_14 
ROOT
HETATM    1  C   UNL     1      41.624  -7.445  15.589  1.00  0.00    -0.028 A 
HETATM    2  C   UNL     1      42.709  -6.838  14.937  1.00  0.00     0.010 A 
HETATM    3  C   UNL     1      43.252  -7.395  13.769  1.00  0.00     0.013 A 
HETATM    4  C   UNL     1      42.724  -8.566  13.206  1.00  0.00    -0.024 A 
HETATM    5  C   UNL     1      41.619  -9.149  13.845  1.00  0.00     0.013 A 
HETATM    6  C   UNL     1      41.079  -8.603  15.017  1.00  0.00     0.010 A 
ENDROOT
BRANCH   4   7
HETATM    7  C   UNL     1      43.323  -9.182  12.007  1.00  0.00    -0.006 A 
HETATM    8  C   UNL     1      43.432 -10.578  11.887  1.00  0.00     0.131 A 
HETATM    9  N   UNL     1      43.955 -11.270  10.848  1.00  0.00    -0.239 NA
HETATM   10  C   UNL     1      44.418 -10.496   9.845  1.00  0.00     0.177 A 
HETATM   11  C   UNL     1      44.363  -9.108   9.869  1.00  0.00     0.082 A 
HETATM   12  N   UNL     1      44.993 -10.952   8.694  1.00  0.00    -0.222 NA
HETATM   13  N   UNL     1      44.933  -8.733   8.681  1.00  0.00    -0.348 N 
HETATM   14  C   UNL     1      43.815  -8.406  10.944  1.00  0.00     0.047 A 
HETATM   15  H   UNL     1      45.070  -7.788   8.350  1.00  0.00     0.167 HD
HETATM   16  C   UNL     1      45.295  -9.871   8.013  1.00  0.00     0.210 A 
ENDBRANCH   4   7
BRANCH   1  17
HETATM   17  C   UNL     1      41.080  -6.827  16.868  1.00  0.00     0.217 C 
HETATM   18  C   UNL     1      41.672  -5.459  17.221  1.00  0.00     0.045 C 
BRANCH  17  19
HETATM   19  N   UNL     1      41.159  -7.799  18.048  1.00  0.00    -0.063 N 
HETATM   20  H   UNL     1      41.355  -8.707  17.605  1.00  0.00     0.280 HD
HETATM   21  C   UNL     1      42.302  -7.558  19.009  1.00  0.00     0.235 C 
HETATM   22  C   UNL     1      42.395  -8.721  19.989  1.00  0.00     0.028 C 
HETATM   23  C   UNL     1      41.081  -8.943  20.727  1.00  0.00     0.003 C 
HETATM   24  C   UNL     1      39.925  -9.117  19.749  1.00  0.00     0.028 C 
HETATM   25  C   UNL     1      39.838  -7.954  18.770  1.00  0.00     0.235 C 
ENDBRANCH  17  19
ENDBRANCH   1  17
TORSDOF 3
ENDMDL
MODEL 4
REMARK VINA RESULT:      -7.9      5.232      8.035
REMARK  3 active torsions:
REMARK  status: ('A' for Active; 'I' for Inactive)
REMARK    1  A    between atoms: C_2  and  N_3 
REMARK    2  A    between atoms: C_2  and  C_10 
REMARK    3  A    between atoms: C_13  and  C_14 
ROOT
HETATM    1  C   UNL     1      42.599 -16.646   2.315  1.00  0.00    -0.028 A 
HETATM    2  C   UNL     1      41.209 -16.835   2.355  1.00  0.00     0.010 A 
HETATM    3  C   UNL     1      40.343 -15.970   1.670  1.00  0.00     0.013 A 
HETATM    4  C   UNL     1      40.835 -14.895   0.914  1.00  0.00    -0.024 A 
HETATM    5  C   UNL     1      42.227 -14.732   0.852  1.00  0.00     0.013 A 
HETATM    6  C   UNL     1      43.095 -15.587   1.543  1.00  0.00     0.010 A 
ENDROOT
BRANCH   4   7
HETATM    7  C   UNL     1      39.926 -13.953   0.234  1.00  0.00    -0.006 A 
HETATM    8  C   UNL     1      39.505 -12.769   0.863  1.00  0.00     0.131 A 
HETATM    9  N   UNL     1      38.681 -11.823   0.356  1.00  0.00    -0.239 NA
HETATM   10  C   UNL     1      38.231 -12.090  -0.886  1.00  0.00     0.177 A 
HETATM   11  C   UNL     1      38.581 -13.234  -1.592  1.00  0.00     0.082 A 
HETATM   12  N   UNL     1      37.387 -11.297  -1.611  1.00  0.00    -0.222 NA
HETATM   13  N   UNL     1      37.911 -13.109  -2.781  1.00  0.00    -0.348 N 
HETATM   14  C   UNL     1      39.437 -14.200  -1.060  1.00  0.00     0.047 A 
HETATM   15  H   UNL     1      37.923 -13.763  -3.551  1.00  0.00     0.167 HD
HETATM   16  C   UNL     1      37.210 -11.935  -2.744  1.00  0.00     0.210 A 
ENDBRANCH   4   7
BRANCH   1  17
HETATM   17  C   UNL     1      43.504 -17.589   3.094  1.00  0.00     0.217 C 
HETATM   18  C   UNL     1      43.501 -19.037   2.595  1.00  0.00     0.045 C 
BRANCH  17  19
HETATM   19  N   UNL     1      43.250 -17.508   4.601  1.00  0.00    -0.063 N 
HETATM   20  H   UNL     1      42.232 -17.637   4.685  1.00  0.00     0.280 HD
HETATM   21  C   UNL     1      43.871 -18.617   5.421  1.00  0.00     0.235 C 
HETATM   22  C   UNL     1      43.350 -18.543   6.852  1.00  0.00     0.028 C 
HETATM   23  C   UNL     1      43.606 -17.175   7.474  1.00  0.00     0.003 C 
HETATM   24  C   UNL     1      43.035 -16.061   6.604  1.00  0.00     0.028 C 
HETATM   25  C   UNL     1      43.555 -16.142   5.175  1.00  0.00     0.235 C 
ENDBRANCH  17  19
ENDBRANCH   1  17
TORSDOF 3
ENDMDL
MODEL 5
REMARK VINA RESULT:      -7.5      5.580     11.570
REMARK  3 active torsions:
REMARK  status: ('A' for Active; 'I' for Inactive)
REMARK    1  A    between atoms: C_2  and  N_3 
REMARK    2  A    between atoms: C_2  and  C_10 
REMARK    3  A    between atoms: C_13  and  C_14 
ROOT
HETATM    1  C   UNL     1      44.176  -9.961  10.044  1.00  0.00    -0.028 A 
HETATM    2  C   UNL     1      43.755 -10.827  11.066  1.00  0.00     0.010 A 
HETATM    3  C   UNL     1      43.154 -10.328  12.231  1.00  0.00     0.013 A 
HETATM    4  C   UNL     1      42.942  -8.954  12.412  1.00  0.00    -0.024 A 
HETATM    5  C   UNL     1      43.336  -8.098  11.373  1.00  0.00     0.013 A 
HETATM    6  C   UNL     1      43.946  -8.589  10.211  1.00  0.00     0.010 A 
ENDROOT
BRANCH   4   7
HETATM    7  C   UNL     1      42.357  -8.422  13.657  1.00  0.00    -0.006 A 
HETATM    8  C   UNL     1      41.196  -8.986  14.212  1.00  0.00     0.131 A 
HETATM    9  N   UNL     1      40.560  -8.601  15.342  1.00  0.00    -0.239 NA
HETATM   10  C   UNL     1      41.131  -7.551  15.968  1.00  0.00     0.177 A 
HETATM   11  C   UNL     1      42.275  -6.918  15.499  1.00  0.00     0.082 A 
HETATM   12  N   UNL     1      40.679  -6.974  17.120  1.00  0.00    -0.222 NA
HETATM   13  N   UNL     1      42.504  -5.924  16.414  1.00  0.00    -0.348 N 
HETATM   14  C   UNL     1      42.926  -7.330  14.335  1.00  0.00     0.047 A 
HETATM   15  H   UNL     1      43.256  -5.251  16.397  1.00  0.00     0.167 HD
HETATM   16  C   UNL     1      41.521  -5.997  17.364  1.00  0.00     0.210 A 
ENDBRANCH   4   7
BRANCH   1  17
HETATM   17  C   UNL     1      44.848 -10.537   8.807  1.00  0.00     0.217 C 
HETATM   18  C   UNL     1      45.756  -9.557   8.057  1.00  0.00     0.045 C 
BRANCH  17  19
HETATM   19  N   UNL     1      43.840 -11.206   7.870  1.00  0.00    -0.063 N 
HETATM   20  H   UNL     1      43.196 -11.692   8.509  1.00  0.00     0.280 HD
HETATM   21  C   UNL     1      42.979 -10.259   7.065  1.00  0.00     0.235 C 
HETATM   22  C   UNL     1      41.879 -11.046   6.361  1.00  0.00     0.028 C 
HETATM   23  C   UNL     1      42.451 -12.159   5.492  1.00  0.00     0.003 C 
HETATM   24  C   UNL     1      43.372 -13.067   6.299  1.00  0.00     0.028 C 
HETATM   25  C   UNL     1      44.466 -12.276   7.002  1.00  0.00     0.235 C 
ENDBRANCH  17  19
ENDBRANCH   1  17
TORSDOF 3
ENDMDL
MODEL 6
REMARK VINA RESULT:      -7.4      4.380      8.593
REMARK  3 active torsions:
REMARK  status: ('A' for Active; 'I' for Inactive)
REMARK    1  A    between atoms: C_2  and  N_3 
REMARK    2  A    between atoms: C_2  and  C_10 
REMARK    3  A    between atoms: C_13  and  C_14 
ROOT
HETATM    1  C   UNL     1      42.409 -16.176   4.129  1.00  0.00    -0.028 A 
HETATM    2  C   UNL     1      41.025 -16.309   3.929  1.00  0.00     0.010 A 
HETATM    3  C   UNL     1      40.309 -15.357   3.189  1.00  0.00     0.013 A 
HETATM    4  C   UNL     1      40.948 -14.249   2.614  1.00  0.00    -0.024 A 
HETATM    5  C   UNL     1      42.336 -14.139   2.791  1.00  0.00     0.013 A 
HETATM    6  C   UNL     1      43.055 -15.081   3.537  1.00  0.00     0.010 A 
ENDROOT
BRANCH   4   7
HETATM    7  C   UNL     1      40.190 -13.219   1.878  1.00  0.00    -0.006 A 
HETATM    8  C   UNL     1      40.601 -12.787   0.606  1.00  0.00     0.131 A 
HETATM    9  N   UNL     1      40.001 -11.858  -0.175  1.00  0.00    -0.239 NA
HETATM   10  C   UNL     1      38.898 -11.306   0.370  1.00  0.00     0.177 A 
HETATM   11  C   UNL     1      38.413 -11.659   1.623  1.00  0.00     0.082 A 
HETATM   12  N   UNL     1      38.121 -10.347  -0.213  1.00  0.00    -0.222 NA
HETATM   13  N   UNL     1      37.303 -10.870   1.783  1.00  0.00    -0.348 N 
HETATM   14  C   UNL     1      39.037 -12.624   2.415  1.00  0.00     0.047 A 
HETATM   15  H   UNL     1      36.689 -10.849   2.585  1.00  0.00     0.167 HD
HETATM   16  C   UNL     1      37.171 -10.101   0.658  1.00  0.00     0.210 A 
ENDBRANCH   4   7
BRANCH   1  17
HETATM   17  C   UNL     1      43.147 -17.214   4.960  1.00  0.00     0.217 C 
HETATM   18  C   UNL     1      44.522 -16.769   5.467  1.00  0.00     0.045 C 
BRANCH  17  19
HETATM   19  N   UNL     1      43.215 -18.568   4.251  1.00  0.00    -0.063 N 
HETATM   20  H   UNL     1      42.253 -18.928   4.315  1.00  0.00     0.280 HD
HETATM   21  C   UNL     1      43.530 -18.507   2.772  1.00  0.00     0.235 C 
HETATM   22  C   UNL     1      43.338 -19.888   2.156  1.00  0.00     0.028 C 
HETATM   23  C   UNL     1      44.180 -20.943   2.864  1.00  0.00     0.003 C 
HETATM   24  C   UNL     1      43.904 -20.948   4.364  1.00  0.00     0.028 C 
HETATM   25  C   UNL     1      44.093 -19.566   4.974  1.00  0.00     0.235 C 
ENDBRANCH  17  19
ENDBRANCH   1  17
TORSDOF 3
ENDMDL
MODEL 7
REMARK VINA RESULT:      -7.3      2.564      3.996
REMARK  3 active torsions:
REMARK  status: ('A' for Active; 'I' for Inactive)
REMARK    1  A    between atoms: C_2  and  N_3 
REMARK    2  A    between atoms: C_2  and  C_10 
REMARK    3  A    between atoms: C_13  and  C_14 
ROOT
HETATM    1  C   UNL     1      43.289 -10.549   7.516  1.00  0.00    -0.028 A 
HETATM    2  C   UNL     1      42.188 -10.680   6.654  1.00  0.00     0.010 A 
HETATM    3  C   UNL     1      42.144 -11.696   5.689  1.00  0.00     0.013 A 
HETATM    4  C   UNL     1      43.189 -12.623   5.558  1.00  0.00    -0.024 A 
HETATM    5  C   UNL     1      44.271 -12.506   6.443  1.00  0.00     0.013 A 
HETATM    6  C   UNL     1      44.325 -11.486   7.402  1.00  0.00     0.010 A 
ENDROOT
BRANCH   4   7
HETATM    7  C   UNL     1      43.170 -13.662   4.511  1.00  0.00    -0.006 A 
HETATM    8  C   UNL     1      43.236 -13.321   3.149  1.00  0.00     0.131 A 
HETATM    9  N   UNL     1      43.230 -14.167   2.094  1.00  0.00    -0.239 NA
HETATM   10  C   UNL     1      43.140 -15.470   2.430  1.00  0.00     0.177 A 
HETATM   11  C   UNL     1      43.063 -15.911   3.745  1.00  0.00     0.082 A 
HETATM   12  N   UNL     1      43.111 -16.515   1.551  1.00  0.00    -0.222 NA
HETATM   13  N   UNL     1      42.983 -17.275   3.633  1.00  0.00    -0.348 N 
HETATM   14  C   UNL     1      43.078 -15.028   4.825  1.00  0.00     0.047 A 
HETATM   15  H   UNL     1      42.909 -17.938   4.391  1.00  0.00     0.167 HD
HETATM   16  C   UNL     1      43.014 -17.588   2.301  1.00  0.00     0.210 A 
ENDBRANCH   4   7
BRANCH   1  17
HETATM   17  C   UNL     1      43.313  -9.417   8.531  1.00  0.00     0.217 C 
HETATM   18  C   UNL     1      44.641  -8.658   8.613  1.00  0.00     0.045 C 
BRANCH  17  19
HETATM   19  N   UNL     1      42.839  -9.880   9.911  1.00  0.00    -0.063 N 
HETATM   20  H   UNL     1      42.419 -10.802   9.730  1.00  0.00     0.280 HD
HETATM   21  C   UNL     1      43.937 -10.124  10.923  1.00  0.00     0.235 C 
HETATM   22  C   UNL     1      43.348 -10.794  12.159  1.00  0.00     0.028 C 
HETATM   23  C   UNL     1      42.209  -9.975  12.755  1.00  0.00     0.003 C 
HETATM   24  C   UNL     1      41.141  -9.678  11.708  1.00  0.00     0.028 C 
HETATM   25  C   UNL     1      41.735  -9.012  10.474  1.00  0.00     0.235 C 
ENDBRANCH  17  19
ENDBRANCH   1  17
TORSDOF 3
ENDMDL
MODEL 8
REMARK VINA RESULT:      -7.3      7.167     11.439
REMARK  3 active torsions:
REMARK  status: ('A' for Active; 'I' for Inactive)
REMARK    1  A    between atoms: C_2  and  N_3 
REMARK    2  A    between atoms: C_2  and  C_10 
REMARK    3  A    between atoms: C_13  and  C_14 
ROOT
HETATM    1  C   UNL     1      41.660  -7.455  15.690  1.00  0.00    -0.028 A 
HETATM    2  C   UNL     1      42.747  -6.856  15.032  1.00  0.00     0.010 A 
HETATM    3  C   UNL     1      43.258  -7.397  13.844  1.00  0.00     0.013 A 
HETATM    4  C   UNL     1      42.698  -8.545  13.266  1.00  0.00    -0.024 A 
HETATM    5  C   UNL     1      41.592  -9.120  13.911  1.00  0.00     0.013 A 
HETATM    6  C   UNL     1      41.083  -8.590  15.103  1.00  0.00     0.010 A 
ENDROOT
BRANCH   4   7
HETATM    7  C   UNL     1      43.265  -9.147  12.044  1.00  0.00    -0.006 A 
HETATM    8  C   UNL     1      43.407 -10.539  11.920  1.00  0.00     0.131 A 
HETATM    9  N   UNL     1      43.905 -11.219  10.861  1.00  0.00    -0.239 NA
HETATM   10  C   UNL     1      44.307 -10.435   9.840  1.00  0.00     0.177 A 
HETATM   11  C   UNL     1      44.216  -9.049   9.866  1.00  0.00     0.082 A 
HETATM   12  N   UNL     1      44.847 -10.877   8.667  1.00  0.00    -0.222 NA
HETATM   13  N   UNL     1      44.727  -8.660   8.655  1.00  0.00    -0.348 N 
HETATM   14  C   UNL     1      43.693  -8.360  10.962  1.00  0.00     0.047 A 
HETATM   15  H   UNL     1      44.826  -7.713   8.319  1.00  0.00     0.167 HD
HETATM   16  C   UNL     1      45.093  -9.789   7.974  1.00  0.00     0.210 A 
ENDBRANCH   4   7
BRANCH   1  17
HETATM   17  C   UNL     1      41.151  -6.854  16.991  1.00  0.00     0.217 C 
HETATM   18  C   UNL     1      40.545  -7.865  17.970  1.00  0.00     0.045 C 
BRANCH  17  19
HETATM   19  N   UNL     1      40.210  -5.673  16.743  1.00  0.00    -0.063 N 
HETATM   20  H   UNL     1      39.717  -5.559  17.639  1.00  0.00     0.280 HD
HETATM   21  C   UNL     1      40.892  -4.348  16.482  1.00  0.00     0.235 C 
HETATM   22  C   UNL     1      39.853  -3.233  16.483  1.00  0.00     0.028 C 
HETATM   23  C   UNL     1      38.740  -3.498  15.476  1.00  0.00     0.003 C 
HETATM   24  C   UNL     1      38.106  -4.865  15.707  1.00  0.00     0.028 C 
HETATM   25  C   UNL     1      39.148  -5.975  15.708  1.00  0.00     0.235 C 
ENDBRANCH  17  19
ENDBRANCH   1  17
TORSDOF 3
ENDMDL
MODEL 9
REMARK VINA RESULT:      -7.2     15.598     17.721
REMARK  3 active torsions:
REMARK  status: ('A' for Active; 'I' for Inactive)
REMARK    1  A    between atoms: C_2  and  N_3 
REMARK    2  A    between atoms: C_2  and  C_10 
REMARK    3  A    between atoms: C_13  and  C_14 
ROOT
HETATM    1  C   UNL     1      44.160 -30.101   0.790  1.00  0.00    -0.028 A 
HETATM    2  C   UNL     1      44.202 -31.393   1.340  1.00  0.00     0.010 A 
HETATM    3  C   UNL     1      43.149 -31.876   2.130  1.00  0.00     0.013 A 
HETATM    4  C   UNL     1      42.014 -31.093   2.389  1.00  0.00    -0.024 A 
HETATM    5  C   UNL     1      41.964 -29.816   1.811  1.00  0.00     0.013 A 
HETATM    6  C   UNL     1      43.017 -29.325   1.029  1.00  0.00     0.010 A 
ENDROOT
BRANCH   4   7
HETATM    7  C   UNL     1      40.927 -31.578   3.262  1.00  0.00    -0.006 A 
HETATM    8  C   UNL     1      40.754 -31.064   4.558  1.00  0.00     0.131 A 
HETATM    9  N   UNL     1      39.804 -31.415   5.455  1.00  0.00    -0.239 NA
HETATM   10  C   UNL     1      38.959 -32.372   5.021  1.00  0.00     0.177 A 
HETATM   11  C   UNL     1      39.049 -32.950   3.761  1.00  0.00     0.082 A 
HETATM   12  N   UNL     1      37.923 -32.899   5.738  1.00  0.00    -0.222 NA
HETATM   13  N   UNL     1      38.022 -33.857   3.737  1.00  0.00    -0.348 N 
HETATM   14  C   UNL     1      40.030 -32.573   2.841  1.00  0.00     0.047 A 
HETATM   15  H   UNL     1      37.779 -34.472   2.974  1.00  0.00     0.167 HD
HETATM   16  C   UNL     1      37.378 -33.790   4.943  1.00  0.00     0.210 A 
ENDBRANCH   4   7
BRANCH   1  17
HETATM   17  C   UNL     1      45.333 -29.603  -0.039  1.00  0.00     0.217 C 
HETATM   18  C   UNL     1      46.155 -28.489   0.618  1.00  0.00     0.045 C 
BRANCH  17  19
HETATM   19  N   UNL     1      44.908 -29.230  -1.461  1.00  0.00    -0.063 N 
HETATM   20  H   UNL     1      44.014 -28.738  -1.329  1.00  0.00     0.280 HD
HETATM   21  C   UNL     1      45.814 -28.246  -2.169  1.00  0.00     0.235 C 
HETATM   22  C   UNL     1      45.155 -27.793  -3.466  1.00  0.00     0.028 C 
HETATM   23  C   UNL     1      44.802 -28.974  -4.362  1.00  0.00     0.003 C 
HETATM   24  C   UNL     1      43.946 -29.991  -3.616  1.00  0.00     0.028 C 
HETATM   25  C   UNL     1      44.606 -30.438  -2.320  1.00  0.00     0.235 C 
ENDBRANCH  17  19
ENDBRANCH   1  17
TORSDOF 3
ENDMDL
MODEL 10
REMARK VINA RESULT:      -7.2     15.398     18.485
REMARK  3 active torsions:
REMARK  status: ('A' for Active; 'I' for Inactive)
REMARK    1  A    between atoms: C_2  and  N_3 
REMARK    2  A    between atoms: C_2  and  C_10 
REMARK    3  A    between atoms: C_13  and  C_14 
ROOT
HETATM    1  C   UNL     1      45.855 -28.837  -2.080  1.00  0.00    -0.028 A 
HETATM    2  C   UNL     1      45.120 -28.299  -3.149  1.00  0.00     0.010 A 
HETATM    3  C   UNL     1      44.944 -29.020  -4.338  1.00  0.00     0.013 A 
HETATM    4  C   UNL     1      45.483 -30.305  -4.498  1.00  0.00    -0.024 A 
HETATM    5  C   UNL     1      46.189 -30.849  -3.415  1.00  0.00     0.013 A 
HETATM    6  C   UNL     1      46.377 -30.129  -2.228  1.00  0.00     0.010 A 
ENDROOT
BRANCH   4   7
HETATM    7  C   UNL     1      45.343 -31.046  -5.766  1.00  0.00    -0.006 A 
HETATM    8  C   UNL     1      46.347 -31.925  -6.207  1.00  0.00     0.131 A 
HETATM    9  N   UNL     1      46.345 -32.664  -7.341  1.00  0.00    -0.239 NA
HETATM   10  C   UNL     1      45.246 -32.502  -8.105  1.00  0.00     0.177 A 
HETATM   11  C   UNL     1      44.202 -31.653  -7.763  1.00  0.00     0.082 A 
HETATM   12  N   UNL     1      45.009 -33.130  -9.295  1.00  0.00    -0.222 NA
HETATM   13  N   UNL     1      43.312 -31.787  -8.797  1.00  0.00    -0.348 N 
HETATM   14  C   UNL     1      44.212 -30.902  -6.587  1.00  0.00     0.047 A 
HETATM   15  H   UNL     1      42.426 -31.313  -8.896  1.00  0.00     0.167 HD
HETATM   16  C   UNL     1      43.841 -32.680  -9.690  1.00  0.00     0.210 A 
ENDBRANCH   4   7
BRANCH   1  17
HETATM   17  C   UNL     1      46.048 -28.013  -0.816  1.00  0.00     0.217 C 
HETATM   18  C   UNL     1      47.492 -27.949  -0.307  1.00  0.00     0.045 C 
BRANCH  17  19
HETATM   19  N   UNL     1      45.076 -28.430   0.290  1.00  0.00    -0.063 N 
HETATM   20  H   UNL     1      44.804 -27.540   0.727  1.00  0.00     0.280 HD
HETATM   21  C   UNL     1      43.787 -29.061  -0.189  1.00  0.00     0.235 C 
HETATM   22  C   UNL     1      42.829 -29.212   0.987  1.00  0.00     0.028 C 
HETATM   23  C   UNL     1      43.454 -30.010   2.125  1.00  0.00     0.003 C 
HETATM   24  C   UNL     1      44.786 -29.404   2.553  1.00  0.00     0.028 C 
HETATM   25  C   UNL     1      45.738 -29.252   1.374  1.00  0.00     0.235 C 
ENDBRANCH  17  19
ENDBRANCH   1  17
TORSDOF 3
ENDMDL
