MODEL 1
REMARK VINA RESULT:      -8.9      0.000      0.000
REMARK  4 active torsions:
REMARK  status: ('A' for Active; 'I' for Inactive)
REMARK    1  A    between atoms: C_4  and  C_5 
REMARK    2  A    between atoms: C_5  and  N_6 
REMARK    3  A    between atoms: C_10  and  C_11 
REMARK    4  A    between atoms: C_15  and  N_16 
ROOT
HETATM    1  N   UNL     1      43.219 -11.316   5.853  1.00  0.00    -0.064 N 
HETATM    2  H   UNL     1      44.243 -11.363   5.899  1.00  0.00     0.280 HD
HETATM    3  C   UNL     1      42.717 -12.636   6.383  1.00  0.00     0.263 C 
HETATM    4  C   UNL     1      42.779 -13.747   5.388  1.00  0.00     0.008 C 
HETATM    5  C   UNL     1      43.085 -13.589   4.089  1.00  0.00    -0.046 C 
HETATM    6  C   UNL     1      43.410 -12.223   3.535  1.00  0.00     0.067 C 
HETATM    7  C   UNL     1      42.835 -11.107   4.408  1.00  0.00     0.240 C 
ENDROOT
BRANCH   5   8
HETATM    8  C   UNL     1      43.074 -14.657   3.137  1.00  0.00    -0.002 A 
HETATM    9  C   UNL     1      43.309 -16.052   3.359  1.00  0.00     0.003 A 
HETATM   10  C   UNL     1      43.130 -16.697   2.132  1.00  0.00     0.045 A 
HETATM   11  C   UNL     1      43.657 -16.835   4.483  1.00  0.00     0.017 A 
HETATM   12  C   UNL     1      43.265 -18.082   1.966  1.00  0.00     0.066 A 
HETATM   13  N   UNL     1      42.810 -15.732   1.204  1.00  0.00    -0.364 N 
HETATM   14  C   UNL     1      43.600 -18.834   3.102  1.00  0.00     0.105 A 
HETATM   15  C   UNL     1      43.799 -18.225   4.347  1.00  0.00     0.037 A 
HETATM   16  H   UNL     1      42.621 -15.916   0.226  1.00  0.00     0.165 HD
HETATM   17  C   UNL     1      42.766 -14.499   1.801  1.00  0.00     0.101 A 
BRANCH  14  18
HETATM   18  N   UNL     1      43.744 -20.292   2.978  1.00  0.00    -0.116 N 
HETATM   19  O   UNL     1      43.662 -20.783   1.844  1.00  0.00    -0.532 OA
HETATM   20  O   UNL     1      43.936 -20.941   4.016  1.00  0.00    -0.532 OA
ENDBRANCH  14  18
ENDBRANCH   5   8
BRANCH   1  21
HETATM   21  C   UNL     1      42.795 -10.145   6.707  1.00  0.00     0.273 C 
BRANCH  21  22
HETATM   22  C   UNL     1      43.626  -9.971   7.948  1.00  0.00    -0.033 A 
HETATM   23  C   UNL     1      45.020 -10.121   7.894  1.00  0.00     0.009 A 
HETATM   24  C   UNL     1      45.791  -9.959   9.045  1.00  0.00     0.001 A 
HETATM   25  C   UNL     1      45.180  -9.653  10.259  1.00  0.00     0.000 A 
HETATM   26  C   UNL     1      43.797  -9.507  10.326  1.00  0.00     0.001 A 
HETATM   27  C   UNL     1      43.021  -9.664   9.176  1.00  0.00     0.009 A 
ENDBRANCH  21  22
ENDBRANCH   1  21
TORSDOF 4
ENDMDL
MODEL 2
REMARK VINA RESULT:      -8.8      4.169      8.948
REMARK  4 active torsions:
REMARK  status: ('A' for Active; 'I' for Inactive)
REMARK    1  A    between atoms: C_4  and  C_5 
REMARK    2  A    between atoms: C_5  and  N_6 
REMARK    3  A    between atoms: C_10  and  C_11 
REMARK    4  A    between atoms: C_15  and  N_16 
ROOT
HETATM    1  N   UNL     1      43.206 -15.935   3.046  1.00  0.00    -0.064 N 
HETATM    2  H   UNL     1      44.102 -16.072   3.526  1.00  0.00     0.280 HD
HETATM    3  C   UNL     1      43.319 -14.619   2.317  1.00  0.00     0.263 C 
HETATM    4  C   UNL     1      43.111 -13.427   3.190  1.00  0.00     0.008 C 
HETATM    5  C   UNL     1      42.693 -13.483   4.467  1.00  0.00    -0.046 C 
HETATM    6  C   UNL     1      42.408 -14.810   5.127  1.00  0.00     0.067 C 
HETATM    7  C   UNL     1      42.123 -15.904   4.098  1.00  0.00     0.240 C 
ENDROOT
BRANCH   5   8
HETATM    8  C   UNL     1      42.435 -12.325   5.267  1.00  0.00    -0.002 A 
HETATM    9  C   UNL     1      43.324 -11.639   6.156  1.00  0.00     0.003 A 
HETATM   10  C   UNL     1      42.627 -10.537   6.660  1.00  0.00     0.045 A 
HETATM   11  C   UNL     1      44.654 -11.843   6.586  1.00  0.00     0.017 A 
HETATM   12  C   UNL     1      43.189  -9.619   7.558  1.00  0.00     0.066 A 
HETATM   13  N   UNL     1      41.367 -10.560   6.107  1.00  0.00    -0.364 N 
HETATM   14  C   UNL     1      44.515  -9.842   7.957  1.00  0.00     0.105 A 
HETATM   15  C   UNL     1      45.243 -10.941   7.485  1.00  0.00     0.037 A 
HETATM   16  H   UNL     1      40.646  -9.874   6.292  1.00  0.00     0.165 HD
HETATM   17  C   UNL     1      41.243 -11.630   5.260  1.00  0.00     0.101 A 
BRANCH  14  18
HETATM   18  N   UNL     1      45.149  -8.900   8.891  1.00  0.00    -0.116 N 
HETATM   19  O   UNL     1      45.356  -7.746   8.492  1.00  0.00    -0.532 OA
HETATM   20  O   UNL     1      45.440  -9.320  10.021  1.00  0.00    -0.532 OA
ENDBRANCH  14  18
ENDBRANCH   5   8
BRANCH   1  21
HETATM   21  C   UNL     1      43.026 -17.107   2.110  1.00  0.00     0.273 C 
BRANCH  21  22
HETATM   22  C   UNL     1      43.395 -18.429   2.723  1.00  0.00    -0.033 A 
HETATM   23  C   UNL     1      43.901 -18.488   4.031  1.00  0.00     0.009 A 
HETATM   24  C   UNL     1      44.242 -19.716   4.600  1.00  0.00     0.001 A 
HETATM   25  C   UNL     1      44.089 -20.892   3.869  1.00  0.00     0.000 A 
HETATM   26  C   UNL     1      43.593 -20.846   2.569  1.00  0.00     0.001 A 
HETATM   27  C   UNL     1      43.246 -19.621   1.996  1.00  0.00     0.009 A 
ENDBRANCH  21  22
ENDBRANCH   1  21
TORSDOF 4
ENDMDL
MODEL 3
REMARK VINA RESULT:      -8.2      4.969      9.570
REMARK  4 active torsions:
REMARK  status: ('A' for Active; 'I' for Inactive)
REMARK    1  A    between atoms: C_4  and  C_5 
REMARK    2  A    between atoms: C_5  and  N_6 
REMARK    3  A    between atoms: C_10  and  C_11 
REMARK    4  A    between atoms: C_15  and  N_16 
ROOT
HETATM    1  N   UNL     1      43.071 -14.487   4.694  1.00  0.00    -0.064 N 
HETATM    2  H   UNL     1      44.015 -14.856   4.540  1.00  0.00     0.280 HD
HETATM    3  C   UNL     1      43.034 -13.138   4.018  1.00  0.00     0.263 C 
HETATM    4  C   UNL     1      43.666 -12.047   4.817  1.00  0.00     0.008 C 
HETATM    5  C   UNL     1      44.084 -12.179   6.089  1.00  0.00    -0.046 C 
HETATM    6  C   UNL     1      43.944 -13.495   6.812  1.00  0.00     0.067 C 
HETATM    7  C   UNL     1      42.862 -14.374   6.185  1.00  0.00     0.240 C 
ENDROOT
BRANCH   5   8
HETATM    8  C   UNL     1      44.626 -11.102   6.859  1.00  0.00    -0.002 A 
HETATM    9  C   UNL     1      43.927 -10.117   7.628  1.00  0.00     0.003 A 
HETATM   10  C   UNL     1      44.894  -9.318   8.244  1.00  0.00     0.045 A 
HETATM   11  C   UNL     1      42.565  -9.822   7.866  1.00  0.00     0.017 A 
HETATM   12  C   UNL     1      44.580  -8.249   9.094  1.00  0.00     0.066 A 
HETATM   13  N   UNL     1      46.126  -9.792   7.855  1.00  0.00    -0.364 N 
HETATM   14  C   UNL     1      43.219  -7.988   9.319  1.00  0.00     0.105 A 
HETATM   15  C   UNL     1      42.220  -8.758   8.713  1.00  0.00     0.037 A 
HETATM   16  H   UNL     1      47.012  -9.404   8.155  1.00  0.00     0.165 HD
HETATM   17  C   UNL     1      45.976 -10.873   7.027  1.00  0.00     0.101 A 
BRANCH  14  18
HETATM   18  N   UNL     1      42.841  -6.881  10.211  1.00  0.00    -0.116 N 
HETATM   19  O   UNL     1      42.965  -5.727   9.779  1.00  0.00    -0.532 OA
HETATM   20  O   UNL     1      42.425  -7.172  11.341  1.00  0.00    -0.532 OA
ENDBRANCH  14  18
ENDBRANCH   5   8
BRANCH   1  21
HETATM   21  C   UNL     1      42.107 -15.474   4.079  1.00  0.00     0.273 C 
BRANCH  21  22
HETATM   22  C   UNL     1      42.746 -16.779   3.693  1.00  0.00    -0.033 A 
HETATM   23  C   UNL     1      43.732 -17.354   4.509  1.00  0.00     0.009 A 
HETATM   24  C   UNL     1      44.325 -18.566   4.151  1.00  0.00     0.001 A 
HETATM   25  C   UNL     1      43.943 -19.210   2.977  1.00  0.00     0.000 A 
HETATM   26  C   UNL     1      42.969 -18.647   2.157  1.00  0.00     0.001 A 
HETATM   27  C   UNL     1      42.370 -17.437   2.512  1.00  0.00     0.009 A 
ENDBRANCH  21  22
ENDBRANCH   1  21
TORSDOF 4
ENDMDL
MODEL 4
REMARK VINA RESULT:      -8.2      5.625      8.595
REMARK  4 active torsions:
REMARK  status: ('A' for Active; 'I' for Inactive)
REMARK    1  A    between atoms: C_4  and  C_5 
REMARK    2  A    between atoms: C_5  and  N_6 
REMARK    3  A    between atoms: C_10  and  C_11 
REMARK    4  A    between atoms: C_15  and  N_16 
ROOT
HETATM    1  N   UNL     1      42.857 -16.088   3.614  1.00  0.00    -0.064 N 
HETATM    2  H   UNL     1      43.011 -16.420   2.656  1.00  0.00     0.280 HD
HETATM    3  C   UNL     1      41.402 -16.353   3.918  1.00  0.00     0.263 C 
HETATM    4  C   UNL     1      40.473 -15.336   3.344  1.00  0.00     0.008 C 
HETATM    5  C   UNL     1      40.866 -14.193   2.755  1.00  0.00    -0.046 C 
HETATM    6  C   UNL     1      42.331 -13.859   2.622  1.00  0.00     0.067 C 
HETATM    7  C   UNL     1      43.179 -14.614   3.646  1.00  0.00     0.240 C 
ENDROOT
BRANCH   5   8
HETATM    8  C   UNL     1      39.957 -13.199   2.271  1.00  0.00    -0.002 A 
HETATM    9  C   UNL     1      39.517 -12.972   0.928  1.00  0.00     0.003 A 
HETATM   10  C   UNL     1      38.589 -11.928   0.973  1.00  0.00     0.045 A 
HETATM   11  C   UNL     1      39.812 -13.551  -0.327  1.00  0.00     0.017 A 
HETATM   12  C   UNL     1      37.929 -11.437  -0.162  1.00  0.00     0.066 A 
HETATM   13  N   UNL     1      38.480 -11.532   2.287  1.00  0.00    -0.364 N 
HETATM   14  C   UNL     1      38.236 -12.039  -1.392  1.00  0.00     0.105 A 
HETATM   15  C   UNL     1      39.168 -13.080  -1.481  1.00  0.00     0.037 A 
HETATM   16  H   UNL     1      37.872 -10.792   2.615  1.00  0.00     0.165 HD
HETATM   17  C   UNL     1      39.295 -12.297   3.079  1.00  0.00     0.101 A 
BRANCH  14  18
HETATM   18  N   UNL     1      37.562 -11.563  -2.609  1.00  0.00    -0.116 N 
HETATM   19  O   UNL     1      36.566 -12.189  -2.997  1.00  0.00    -0.532 OA
HETATM   20  O   UNL     1      38.033 -10.566  -3.174  1.00  0.00    -0.532 OA
ENDBRANCH  14  18
ENDBRANCH   5   8
BRANCH   1  21
HETATM   21  C   UNL     1      43.791 -16.873   4.505  1.00  0.00     0.273 C 
BRANCH  21  22
HETATM   22  C   UNL     1      43.834 -18.342   4.189  1.00  0.00    -0.033 A 
HETATM   23  C   UNL     1      43.694 -18.786   2.866  1.00  0.00     0.009 A 
HETATM   24  C   UNL     1      43.735 -20.150   2.572  1.00  0.00     0.001 A 
HETATM   25  C   UNL     1      43.909 -21.080   3.594  1.00  0.00     0.000 A 
HETATM   26  C   UNL     1      44.044 -20.651   4.912  1.00  0.00     0.001 A 
HETATM   27  C   UNL     1      44.008 -19.288   5.211  1.00  0.00     0.009 A 
ENDBRANCH  21  22
ENDBRANCH   1  21
TORSDOF 4
ENDMDL
MODEL 5
REMARK VINA RESULT:      -8.1      1.492      2.373
REMARK  4 active torsions:
REMARK  status: ('A' for Active; 'I' for Inactive)
REMARK    1  A    between atoms: C_4  and  C_5 
REMARK    2  A    between atoms: C_5  and  N_6 
REMARK    3  A    between atoms: C_10  and  C_11 
REMARK    4  A    between atoms: C_15  and  N_16 
ROOT
HETATM    1  N   UNL     1      43.467 -10.668   7.843  1.00  0.00    -0.064 N 
HETATM    2  H   UNL     1      43.158 -11.300   8.590  1.00  0.00     0.280 HD
HETATM    3  C   UNL     1      42.306 -10.555   6.885  1.00  0.00     0.263 C 
HETATM    4  C   UNL     1      42.184 -11.711   5.949  1.00  0.00     0.008 C 
HETATM    5  C   UNL     1      43.098 -12.691   5.827  1.00  0.00    -0.046 C 
HETATM    6  C   UNL     1      44.348 -12.688   6.671  1.00  0.00     0.067 C 
HETATM    7  C   UNL     1      44.678 -11.288   7.189  1.00  0.00     0.240 C 
ENDROOT
BRANCH   5   8
HETATM    8  C   UNL     1      42.995 -13.754   4.875  1.00  0.00    -0.002 A 
HETATM    9  C   UNL     1      43.353 -15.131   5.035  1.00  0.00     0.003 A 
HETATM   10  C   UNL     1      43.012 -15.782   3.846  1.00  0.00     0.045 A 
HETATM   11  C   UNL     1      43.933 -15.894   6.073  1.00  0.00     0.017 A 
HETATM   12  C   UNL     1      43.205 -17.155   3.640  1.00  0.00     0.066 A 
HETATM   13  N   UNL     1      42.480 -14.837   2.998  1.00  0.00    -0.364 N 
HETATM   14  C   UNL     1      43.774 -17.888   4.693  1.00  0.00     0.105 A 
HETATM   15  C   UNL     1      44.139 -17.271   5.896  1.00  0.00     0.037 A 
HETATM   16  H   UNL     1      42.141 -15.030   2.064  1.00  0.00     0.165 HD
HETATM   17  C   UNL     1      42.458 -13.613   3.612  1.00  0.00     0.101 A 
BRANCH  14  18
HETATM   18  N   UNL     1      43.987 -19.333   4.526  1.00  0.00    -0.116 N 
HETATM   19  O   UNL     1      44.058 -19.773   3.371  1.00  0.00    -0.532 OA
HETATM   20  O   UNL     1      44.081 -20.022   5.552  1.00  0.00    -0.532 OA
ENDBRANCH  14  18
ENDBRANCH   5   8
BRANCH   1  21
HETATM   21  C   UNL     1      43.812  -9.351   8.499  1.00  0.00     0.273 C 
BRANCH  21  22
HETATM   22  C   UNL     1      43.518  -9.316   9.973  1.00  0.00    -0.033 A 
HETATM   23  C   UNL     1      43.503 -10.503  10.721  1.00  0.00     0.009 A 
HETATM   24  C   UNL     1      43.231 -10.471  12.089  1.00  0.00     0.001 A 
HETATM   25  C   UNL     1      42.965  -9.258  12.720  1.00  0.00     0.000 A 
HETATM   26  C   UNL     1      42.972  -8.074  11.987  1.00  0.00     0.001 A 
HETATM   27  C   UNL     1      43.248  -8.101  10.619  1.00  0.00     0.009 A 
ENDBRANCH  21  22
ENDBRANCH   1  21
TORSDOF 4
ENDMDL
MODEL 6
REMARK VINA RESULT:      -8.0      3.740      5.711
REMARK  4 active torsions:
REMARK  status: ('A' for Active; 'I' for Inactive)
REMARK    1  A    between atoms: C_4  and  C_5 
REMARK    2  A    between atoms: C_5  and  N_6 
REMARK    3  A    between atoms: C_10  and  C_11 
REMARK    4  A    between atoms: C_15  and  N_16 
ROOT
HETATM    1  N   UNL     1      41.213 -11.487   3.092  1.00  0.00    -0.064 N 
HETATM    2  H   UNL     1      41.554 -11.009   3.933  1.00  0.00     0.280 HD
HETATM    3  C   UNL     1      40.251 -12.545   3.574  1.00  0.00     0.263 C 
HETATM    4  C   UNL     1      40.919 -13.777   4.087  1.00  0.00     0.008 C 
HETATM    5  C   UNL     1      42.237 -14.026   3.987  1.00  0.00    -0.046 C 
HETATM    6  C   UNL     1      43.162 -13.029   3.333  1.00  0.00     0.067 C 
HETATM    7  C   UNL     1      42.407 -12.090   2.392  1.00  0.00     0.240 C 
ENDROOT
BRANCH   5   8
HETATM    8  C   UNL     1      42.848 -15.244   4.424  1.00  0.00    -0.002 A 
HETATM    9  C   UNL     1      42.927 -16.498   3.738  1.00  0.00     0.003 A 
HETATM   10  C   UNL     1      43.671 -17.361   4.548  1.00  0.00     0.045 A 
HETATM   11  C   UNL     1      42.441 -16.990   2.505  1.00  0.00     0.017 A 
HETATM   12  C   UNL     1      43.968 -18.683   4.192  1.00  0.00     0.066 A 
HETATM   13  N   UNL     1      44.018 -16.661   5.681  1.00  0.00    -0.364 N 
HETATM   14  C   UNL     1      43.481 -19.139   2.957  1.00  0.00     0.105 A 
HETATM   15  C   UNL     1      42.723 -18.310   2.122  1.00  0.00     0.037 A 
HETATM   16  H   UNL     1      44.567 -17.040   6.444  1.00  0.00     0.165 HD
HETATM   17  C   UNL     1      43.534 -15.381   5.613  1.00  0.00     0.101 A 
BRANCH  14  18
HETATM   18  N   UNL     1      43.776 -20.517   2.537  1.00  0.00    -0.116 N 
HETATM   19  O   UNL     1      43.756 -20.765   1.324  1.00  0.00    -0.532 OA
HETATM   20  O   UNL     1      44.023 -21.347   3.424  1.00  0.00    -0.532 OA
ENDBRANCH  14  18
ENDBRANCH   5   8
BRANCH   1  21
HETATM   21  C   UNL     1      40.545 -10.440   2.232  1.00  0.00     0.273 C 
BRANCH  21  22
HETATM   22  C   UNL     1      40.613 -10.735   0.760  1.00  0.00    -0.033 A 
HETATM   23  C   UNL     1      41.511 -10.038  -0.063  1.00  0.00     0.009 A 
HETATM   24  C   UNL     1      41.575 -10.313  -1.429  1.00  0.00     0.001 A 
HETATM   25  C   UNL     1      40.741 -11.279  -1.987  1.00  0.00     0.000 A 
HETATM   26  C   UNL     1      39.843 -11.975  -1.182  1.00  0.00     0.001 A 
HETATM   27  C   UNL     1      39.778 -11.706   0.186  1.00  0.00     0.009 A 
ENDBRANCH  21  22
ENDBRANCH   1  21
TORSDOF 4
ENDMDL
MODEL 7
REMARK VINA RESULT:      -7.9      6.320      8.964
REMARK  4 active torsions:
REMARK  status: ('A' for Active; 'I' for Inactive)
REMARK    1  A    between atoms: C_4  and  C_5 
REMARK    2  A    between atoms: C_5  and  N_6 
REMARK    3  A    between atoms: C_10  and  C_11 
REMARK    4  A    between atoms: C_15  and  N_16 
ROOT
HETATM    1  N   UNL     1      42.698 -16.190   2.809  1.00  0.00    -0.064 N 
HETATM    2  H   UNL     1      42.988 -16.702   1.969  1.00  0.00     0.280 HD
HETATM    3  C   UNL     1      41.232 -16.494   2.997  1.00  0.00     0.263 C 
HETATM    4  C   UNL     1      40.333 -15.693   2.115  1.00  0.00     0.008 C 
HETATM    5  C   UNL     1      40.740 -14.672   1.340  1.00  0.00    -0.046 C 
HETATM    6  C   UNL     1      42.191 -14.264   1.304  1.00  0.00     0.067 C 
HETATM    7  C   UNL     1      42.940 -14.721   2.556  1.00  0.00     0.240 C 
ENDROOT
BRANCH   5   8
HETATM    8  C   UNL     1      39.851 -13.873   0.553  1.00  0.00    -0.002 A 
HETATM    9  C   UNL     1      39.164 -12.674   0.926  1.00  0.00     0.003 A 
HETATM   10  C   UNL     1      38.464 -12.237  -0.202  1.00  0.00     0.045 A 
HETATM   11  C   UNL     1      39.065 -11.911   2.112  1.00  0.00     0.017 A 
HETATM   12  C   UNL     1      37.681 -11.073  -0.217  1.00  0.00     0.066 A 
HETATM   13  N   UNL     1      38.708 -13.139  -1.212  1.00  0.00    -0.364 N 
HETATM   14  C   UNL     1      37.612 -10.332   0.973  1.00  0.00     0.105 A 
HETATM   15  C   UNL     1      38.289 -10.742   2.127  1.00  0.00     0.037 A 
HETATM   16  H   UNL     1      38.330 -13.069  -2.149  1.00  0.00     0.165 HD
HETATM   17  C   UNL     1      39.550 -14.125  -0.770  1.00  0.00     0.101 A 
BRANCH  14  18
HETATM   18  N   UNL     1      36.810  -9.100   1.001  1.00  0.00    -0.116 N 
HETATM   19  O   UNL     1      37.416  -8.022   1.074  1.00  0.00    -0.532 OA
HETATM   20  O   UNL     1      35.577  -9.216   0.954  1.00  0.00    -0.532 OA
ENDBRANCH  14  18
ENDBRANCH   5   8
BRANCH   1  21
HETATM   21  C   UNL     1      43.550 -16.697   3.948  1.00  0.00     0.273 C 
BRANCH  21  22
HETATM   22  C   UNL     1      43.693 -18.193   3.974  1.00  0.00    -0.033 A 
HETATM   23  C   UNL     1      43.628 -18.932   2.783  1.00  0.00     0.009 A 
HETATM   24  C   UNL     1      43.762 -20.321   2.807  1.00  0.00     0.001 A 
HETATM   25  C   UNL     1      43.955 -20.984   4.016  1.00  0.00     0.000 A 
HETATM   26  C   UNL     1      44.016 -20.262   5.206  1.00  0.00     0.001 A 
HETATM   27  C   UNL     1      43.887 -18.872   5.187  1.00  0.00     0.009 A 
ENDBRANCH  21  22
ENDBRANCH   1  21
TORSDOF 4
ENDMDL
MODEL 8
REMARK VINA RESULT:      -7.8      2.188      3.920
REMARK  4 active torsions:
REMARK  status: ('A' for Active; 'I' for Inactive)
REMARK    1  A    between atoms: C_4  and  C_5 
REMARK    2  A    between atoms: C_5  and  N_6 
REMARK    3  A    between atoms: C_10  and  C_11 
REMARK    4  A    between atoms: C_15  and  N_16 
ROOT
HETATM    1  N   UNL     1      43.930  -9.986   9.275  1.00  0.00    -0.064 N 
HETATM    2  H   UNL     1      43.536 -10.805   9.750  1.00  0.00     0.280 HD
HETATM    3  C   UNL     1      42.824  -9.434   8.409  1.00  0.00     0.263 C 
HETATM    4  C   UNL     1      42.637 -10.174   7.127  1.00  0.00     0.008 C 
HETATM    5  C   UNL     1      43.463 -11.134   6.675  1.00  0.00    -0.046 C 
HETATM    6  C   UNL     1      44.673 -11.548   7.475  1.00  0.00     0.067 C 
HETATM    7  C   UNL     1      45.106 -10.456   8.453  1.00  0.00     0.240 C 
ENDROOT
BRANCH   5   8
HETATM    8  C   UNL     1      43.303 -11.784   5.410  1.00  0.00    -0.002 A 
HETATM    9  C   UNL     1      43.231 -13.187   5.132  1.00  0.00     0.003 A 
HETATM   10  C   UNL     1      43.015 -13.320   3.758  1.00  0.00     0.045 A 
HETATM   11  C   UNL     1      43.328 -14.362   5.911  1.00  0.00     0.017 A 
HETATM   12  C   UNL     1      42.876 -14.560   3.119  1.00  0.00     0.066 A 
HETATM   13  N   UNL     1      42.969 -12.052   3.225  1.00  0.00    -0.364 N 
HETATM   14  C   UNL     1      42.966 -15.708   3.921  1.00  0.00     0.105 A 
HETATM   15  C   UNL     1      43.192 -15.618   5.299  1.00  0.00     0.037 A 
HETATM   16  H   UNL     1      42.818 -11.846   2.245  1.00  0.00     0.165 HD
HETATM   17  C   UNL     1      43.134 -11.118   4.214  1.00  0.00     0.101 A 
BRANCH  14  18
HETATM   18  N   UNL     1      42.817 -17.031   3.296  1.00  0.00    -0.116 N 
HETATM   19  O   UNL     1      42.104 -17.112   2.286  1.00  0.00    -0.532 OA
HETATM   20  O   UNL     1      43.412 -17.983   3.819  1.00  0.00    -0.532 OA
ENDBRANCH  14  18
ENDBRANCH   5   8
BRANCH   1  21
HETATM   21  C   UNL     1      44.366  -9.021  10.352  1.00  0.00     0.273 C 
BRANCH  21  22
HETATM   22  C   UNL     1      43.499  -9.057  11.580  1.00  0.00    -0.033 A 
HETATM   23  C   UNL     1      43.548  -8.010  12.513  1.00  0.00     0.009 A 
HETATM   24  C   UNL     1      42.742  -8.042  13.652  1.00  0.00     0.001 A 
HETATM   25  C   UNL     1      41.887  -9.119  13.872  1.00  0.00     0.000 A 
HETATM   26  C   UNL     1      41.833 -10.167  12.956  1.00  0.00     0.001 A 
HETATM   27  C   UNL     1      42.634 -10.137  11.813  1.00  0.00     0.009 A 
ENDBRANCH  21  22
ENDBRANCH   1  21
TORSDOF 4
ENDMDL
MODEL 9
REMARK VINA RESULT:      -7.7      1.164      2.284
REMARK  4 active torsions:
REMARK  status: ('A' for Active; 'I' for Inactive)
REMARK    1  A    between atoms: C_4  and  C_5 
REMARK    2  A    between atoms: C_5  and  N_6 
REMARK    3  A    between atoms: C_10  and  C_11 
REMARK    4  A    between atoms: C_15  and  N_16 
ROOT
HETATM    1  N   UNL     1      42.946 -11.628   6.023  1.00  0.00    -0.064 N 
HETATM    2  H   UNL     1      41.941 -11.471   5.888  1.00  0.00     0.280 HD
HETATM    3  C   UNL     1      43.595 -11.349   4.690  1.00  0.00     0.263 C 
HETATM    4  C   UNL     1      43.481 -12.476   3.717  1.00  0.00     0.008 C 
HETATM    5  C   UNL     1      43.004 -13.697   4.020  1.00  0.00    -0.046 C 
HETATM    6  C   UNL     1      42.525 -14.013   5.415  1.00  0.00     0.067 C 
HETATM    7  C   UNL     1      43.131 -13.065   6.450  1.00  0.00     0.240 C 
ENDROOT
BRANCH   5   8
HETATM    8  C   UNL     1      42.965 -14.783   3.090  1.00  0.00    -0.002 A 
HETATM    9  C   UNL     1      43.258 -16.166   3.322  1.00  0.00     0.003 A 
HETATM   10  C   UNL     1      43.022 -16.840   2.121  1.00  0.00     0.045 A 
HETATM   11  C   UNL     1      43.701 -16.916   4.435  1.00  0.00     0.017 A 
HETATM   12  C   UNL     1      43.189 -18.224   1.971  1.00  0.00     0.066 A 
HETATM   13  N   UNL     1      42.613 -15.905   1.198  1.00  0.00    -0.364 N 
HETATM   14  C   UNL     1      43.620 -18.943   3.097  1.00  0.00     0.105 A 
HETATM   15  C   UNL     1      43.878 -18.303   4.315  1.00  0.00     0.037 A 
HETATM   16  H   UNL     1      42.368 -16.114   0.238  1.00  0.00     0.165 HD
HETATM   17  C   UNL     1      42.568 -14.662   1.774  1.00  0.00     0.101 A 
BRANCH  14  18
HETATM   18  N   UNL     1      43.801 -20.398   2.990  1.00  0.00    -0.116 N 
HETATM   19  O   UNL     1      43.928 -21.040   4.042  1.00  0.00    -0.532 OA
HETATM   20  O   UNL     1      43.818 -20.892   1.854  1.00  0.00    -0.532 OA
ENDBRANCH  14  18
ENDBRANCH   5   8
BRANCH   1  21
HETATM   21  C   UNL     1      43.397 -10.673   7.103  1.00  0.00     0.273 C 
BRANCH  21  22
HETATM   22  C   UNL     1      42.321  -9.729   7.561  1.00  0.00    -0.033 A 
HETATM   23  C   UNL     1      42.566  -8.829   8.609  1.00  0.00     0.009 A 
HETATM   24  C   UNL     1      41.568  -7.951   9.034  1.00  0.00     0.001 A 
HETATM   25  C   UNL     1      40.317  -7.968   8.422  1.00  0.00     0.000 A 
HETATM   26  C   UNL     1      40.060  -8.860   7.383  1.00  0.00     0.001 A 
HETATM   27  C   UNL     1      41.057  -9.737   6.952  1.00  0.00     0.009 A 
ENDBRANCH  21  22
ENDBRANCH   1  21
TORSDOF 4
ENDMDL
MODEL 10
REMARK VINA RESULT:      -7.6      6.495      9.251
REMARK  4 active torsions:
REMARK  status: ('A' for Active; 'I' for Inactive)
REMARK    1  A    between atoms: C_4  and  C_5 
REMARK    2  A    between atoms: C_5  and  N_6 
REMARK    3  A    between atoms: C_10  and  C_11 
REMARK    4  A    between atoms: C_15  and  N_16 
ROOT
HETATM    1  N   UNL     1      41.643 -15.216   2.272  1.00  0.00    -0.064 N 
HETATM    2  H   UNL     1      42.403 -15.544   1.665  1.00  0.00     0.280 HD
HETATM    3  C   UNL     1      40.401 -15.939   1.815  1.00  0.00     0.263 C 
HETATM    4  C   UNL     1      39.774 -15.348   0.596  1.00  0.00     0.008 C 
HETATM    5  C   UNL     1      40.151 -14.186   0.034  1.00  0.00    -0.046 C 
HETATM    6  C   UNL     1      41.286 -13.381   0.617  1.00  0.00     0.067 C 
HETATM    7  C   UNL     1      41.524 -13.722   2.088  1.00  0.00     0.240 C 
ENDROOT
BRANCH   5   8
HETATM    8  C   UNL     1      39.493 -13.603  -1.095  1.00  0.00    -0.002 A 
HETATM    9  C   UNL     1      38.569 -12.509  -1.121  1.00  0.00     0.003 A 
HETATM   10  C   UNL     1      38.251 -12.275  -2.462  1.00  0.00     0.045 A 
HETATM   11  C   UNL     1      37.968 -11.690  -0.138  1.00  0.00     0.017 A 
HETATM   12  C   UNL     1      37.378 -11.261  -2.878  1.00  0.00     0.066 A 
HETATM   13  N   UNL     1      38.945 -13.195  -3.215  1.00  0.00    -0.364 N 
HETATM   14  C   UNL     1      36.806 -10.458  -1.879  1.00  0.00     0.105 A 
HETATM   15  C   UNL     1      37.090 -10.667  -0.525  1.00  0.00     0.037 A 
HETATM   16  H   UNL     1      38.908 -13.255  -4.225  1.00  0.00     0.165 HD
HETATM   17  C   UNL     1      39.703 -13.995  -2.401  1.00  0.00     0.101 A 
BRANCH  14  18
HETATM   18  N   UNL     1      35.890  -9.375  -2.269  1.00  0.00    -0.116 N 
HETATM   19  O   UNL     1      35.847  -9.062  -3.466  1.00  0.00    -0.532 OA
HETATM   20  O   UNL     1      35.219  -8.841  -1.375  1.00  0.00    -0.532 OA
ENDBRANCH  14  18
ENDBRANCH   5   8
BRANCH   1  21
HETATM   21  C   UNL     1      42.034 -15.564   3.689  1.00  0.00     0.273 C 
BRANCH  21  22
HETATM   22  C   UNL     1      42.824 -16.838   3.801  1.00  0.00    -0.033 A 
HETATM   23  C   UNL     1      43.174 -17.558   2.649  1.00  0.00     0.009 A 
HETATM   24  C   UNL     1      43.909 -18.740   2.752  1.00  0.00     0.001 A 
HETATM   25  C   UNL     1      44.293 -19.216   4.004  1.00  0.00     0.000 A 
HETATM   26  C   UNL     1      43.946 -18.513   5.155  1.00  0.00     0.001 A 
HETATM   27  C   UNL     1      43.216 -17.328   5.056  1.00  0.00     0.009 A 
ENDBRANCH  21  22
ENDBRANCH   1  21
TORSDOF 4
ENDMDL
