MODEL 1
REMARK VINA RESULT:      -8.6      0.000      0.000
REMARK  6 active torsions:
REMARK  status: ('A' for Active; 'I' for Inactive)
REMARK    1  A    between atoms: O_2  and  C_3 
REMARK    2  A    between atoms: C_5  and  O_6 
REMARK    3  A    between atoms: C_9  and  C_10 
REMARK       I    between atoms: C_10  and  N_11 
REMARK    4  A    between atoms: N_11  and  C_12 
REMARK    5  A    between atoms: N_15  and  C_16 
REMARK    6  A    between atoms: C_20  and  C_21 
ROOT
HETATM    1  C   UNL     1      43.994 -10.108   6.783  1.00  0.00     0.087 C 
HETATM    2  C   UNL     1      44.761 -11.415   7.052  1.00  0.00     0.045 C 
HETATM    3  C   UNL     1      43.828 -12.521   7.540  1.00  0.00     0.126 C 
HETATM    4  N   UNL     1      42.752 -12.723   6.556  1.00  0.00    -0.366 N 
HETATM    5  C   UNL     1      41.935 -11.522   6.346  1.00  0.00     0.126 C 
HETATM    6  C   UNL     1      42.814 -10.379   5.833  1.00  0.00     0.045 C 
ENDROOT
BRANCH   1   7
HETATM    7  N   UNL     1      43.519  -9.452   8.007  1.00  0.00    -0.352 N 
HETATM    8  C   UNL     1      44.234  -8.449   8.633  1.00  0.00     0.252 C 
HETATM    9  O   UNL     1      45.334  -8.065   8.255  1.00  0.00    -0.268 OA
HETATM   10  H   UNL     1      42.519  -9.442   8.157  1.00  0.00     0.163 HD
BRANCH   8  11
HETATM   11  C   UNL     1      43.584  -7.813   9.816  1.00  0.00     0.037 A 
HETATM   12  C   UNL     1      43.051  -6.516   9.763  1.00  0.00     0.054 A 
HETATM   13  C   UNL     1      42.447  -5.967  10.895  1.00  0.00     0.071 A 
HETATM   14  C   UNL     1      42.360  -6.721  12.072  1.00  0.00     0.073 A 
HETATM   15  C   UNL     1      42.857  -8.023  12.123  1.00  0.00     0.071 A 
HETATM   16  C   UNL     1      43.475  -8.561  10.994  1.00  0.00     0.054 A 
BRANCH  13  17
HETATM   17  O   UNL     1      41.903  -4.714  10.986  1.00  0.00    -0.356 OA
HETATM   18  C   UNL     1      42.295  -3.911  12.093  1.00  0.00     0.210 C 
ENDBRANCH  13  17
BRANCH  15  19
HETATM   19  O   UNL     1      42.809  -8.859  13.204  1.00  0.00    -0.356 OA
HETATM   20  C   UNL     1      42.032  -8.424  14.315  1.00  0.00     0.210 C 
ENDBRANCH  15  19
ENDBRANCH   8  11
ENDBRANCH   1   7
BRANCH   4  21
HETATM   21  C   UNL     1      42.853 -13.658   5.560  1.00  0.00     0.121 A 
HETATM   22  N   UNL     1      42.806 -13.349   4.224  1.00  0.00    -0.262 N 
HETATM   23  H   UNL     1      42.707 -12.435   3.805  1.00  0.00     0.191 HD
HETATM   24  N   UNL     1      42.924 -14.404   3.403  1.00  0.00    -0.173 NA
HETATM   25  C   UNL     1      43.105 -15.450   4.224  1.00  0.00     0.090 A 
HETATM   26  C   UNL     1      43.062 -15.021   5.580  1.00  0.00     0.084 A 
BRANCH  25  27
HETATM   27  C   UNL     1      43.310 -16.808   3.707  1.00  0.00    -0.005 A 
HETATM   28  C   UNL     1      42.704 -17.230   2.512  1.00  0.00     0.015 A 
HETATM   29  C   UNL     1      42.905 -18.527   2.028  1.00  0.00     0.024 A 
HETATM   30  C   UNL     1      43.712 -19.415   2.736  1.00  0.00     0.034 A 
HETATM   31 CL   UNL     1      43.957 -21.009   2.139  1.00  0.00    -0.084 Cl
HETATM   32  C   UNL     1      44.318 -19.018   3.924  1.00  0.00     0.024 A 
HETATM   33  C   UNL     1      44.116 -17.721   4.407  1.00  0.00     0.015 A 
ENDBRANCH  25  27
ENDBRANCH   4  21
TORSDOF 6
ENDMDL
MODEL 2
REMARK VINA RESULT:      -8.5      0.367      2.270
REMARK  6 active torsions:
REMARK  status: ('A' for Active; 'I' for Inactive)
REMARK    1  A    between atoms: O_2  and  C_3 
REMARK    2  A    between atoms: C_5  and  O_6 
REMARK    3  A    between atoms: C_9  and  C_10 
REMARK       I    between atoms: C_10  and  N_11 
REMARK    4  A    between atoms: N_11  and  C_12 
REMARK    5  A    between atoms: N_15  and  C_16 
REMARK    6  A    between atoms: C_20  and  C_21 
ROOT
HETATM    1  C   UNL     1      44.053 -10.196   6.858  1.00  0.00     0.087 C 
HETATM    2  C   UNL     1      44.754 -11.537   7.144  1.00  0.00     0.045 C 
HETATM    3  C   UNL     1      43.760 -12.602   7.600  1.00  0.00     0.126 C 
HETATM    4  N   UNL     1      42.706 -12.754   6.585  1.00  0.00    -0.366 N 
HETATM    5  C   UNL     1      41.948 -11.518   6.356  1.00  0.00     0.126 C 
HETATM    6  C   UNL     1      42.891 -10.413   5.874  1.00  0.00     0.045 C 
ENDROOT
BRANCH   1   7
HETATM    7  N   UNL     1      43.572  -9.524   8.070  1.00  0.00    -0.352 N 
HETATM    8  C   UNL     1      44.283  -8.512   8.687  1.00  0.00     0.252 C 
HETATM    9  O   UNL     1      45.385  -8.133   8.309  1.00  0.00    -0.268 OA
HETATM   10  H   UNL     1      42.571  -9.512   8.216  1.00  0.00     0.163 HD
BRANCH   8  11
HETATM   11  C   UNL     1      43.627  -7.860   9.857  1.00  0.00     0.037 A 
HETATM   12  C   UNL     1      43.579  -8.471  11.119  1.00  0.00     0.054 A 
HETATM   13  C   UNL     1      42.958  -7.817  12.184  1.00  0.00     0.071 A 
HETATM   14  C   UNL     1      42.403  -6.546  11.991  1.00  0.00     0.073 A 
HETATM   15  C   UNL     1      42.475  -5.917  10.749  1.00  0.00     0.071 A 
HETATM   16  C   UNL     1      43.082  -6.582   9.683  1.00  0.00     0.054 A 
BRANCH  13  17
HETATM   17  O   UNL     1      42.827  -8.303  13.457  1.00  0.00    -0.356 OA
HETATM   18  C   UNL     1      41.691  -9.113  13.733  1.00  0.00     0.210 C 
ENDBRANCH  13  17
BRANCH  15  19
HETATM   19  O   UNL     1      41.990  -4.674  10.449  1.00  0.00    -0.356 OA
HETATM   20  C   UNL     1      42.838  -3.569  10.740  1.00  0.00     0.210 C 
ENDBRANCH  15  19
ENDBRANCH   8  11
ENDBRANCH   1   7
BRANCH   4  21
HETATM   21  C   UNL     1      42.795 -13.690   5.588  1.00  0.00     0.121 A 
HETATM   22  N   UNL     1      42.664 -13.391   4.255  1.00  0.00    -0.262 N 
HETATM   23  H   UNL     1      42.504 -12.484   3.838  1.00  0.00     0.191 HD
HETATM   24  N   UNL     1      42.785 -14.445   3.432  1.00  0.00    -0.173 NA
HETATM   25  C   UNL     1      43.054 -15.477   4.247  1.00  0.00     0.090 A 
HETATM   26  C   UNL     1      43.064 -15.042   5.602  1.00  0.00     0.084 A 
BRANCH  25  27
HETATM   27  C   UNL     1      43.290 -16.828   3.725  1.00  0.00    -0.005 A 
HETATM   28  C   UNL     1      44.115 -17.736   4.408  1.00  0.00     0.015 A 
HETATM   29  C   UNL     1      44.336 -19.022   3.901  1.00  0.00     0.024 A 
HETATM   30  C   UNL     1      43.733 -19.410   2.706  1.00  0.00     0.034 A 
HETATM   31 CL   UNL     1      44.005 -20.990   2.086  1.00  0.00    -0.084 Cl
HETATM   32  C   UNL     1      42.914 -18.523   2.012  1.00  0.00     0.024 A 
HETATM   33  C   UNL     1      42.696 -17.239   2.520  1.00  0.00     0.015 A 
ENDBRANCH  25  27
ENDBRANCH   4  21
TORSDOF 6
ENDMDL
MODEL 3
REMARK VINA RESULT:      -8.2      6.168     11.315
REMARK  6 active torsions:
REMARK  status: ('A' for Active; 'I' for Inactive)
REMARK    1  A    between atoms: O_2  and  C_3 
REMARK    2  A    between atoms: C_5  and  O_6 
REMARK    3  A    between atoms: C_9  and  C_10 
REMARK       I    between atoms: C_10  and  N_11 
REMARK    4  A    between atoms: N_11  and  C_12 
REMARK    5  A    between atoms: N_15  and  C_16 
REMARK    6  A    between atoms: C_20  and  C_21 
ROOT
HETATM    1  C   UNL     1      41.342 -13.371   3.769  1.00  0.00     0.087 C 
HETATM    2  C   UNL     1      42.759 -13.683   4.286  1.00  0.00     0.045 C 
HETATM    3  C   UNL     1      43.662 -12.455   4.218  1.00  0.00     0.126 C 
HETATM    4  N   UNL     1      43.047 -11.351   4.972  1.00  0.00    -0.366 N 
HETATM    5  C   UNL     1      41.734 -10.959   4.446  1.00  0.00     0.126 C 
HETATM    6  C   UNL     1      40.773 -12.148   4.509  1.00  0.00     0.045 C 
ENDROOT
BRANCH   1   7
HETATM    7  N   UNL     1      41.290 -13.157   2.319  1.00  0.00    -0.352 N 
HETATM    8  C   UNL     1      40.476 -13.906   1.489  1.00  0.00     0.252 C 
HETATM    9  O   UNL     1      39.781 -14.834   1.883  1.00  0.00    -0.268 OA
HETATM   10  H   UNL     1      41.524 -12.230   1.988  1.00  0.00     0.163 HD
BRANCH   8  11
HETATM   11  C   UNL     1      40.458 -13.513   0.050  1.00  0.00     0.037 A 
HETATM   12  C   UNL     1      39.906 -14.340  -0.939  1.00  0.00     0.054 A 
HETATM   13  C   UNL     1      39.908 -13.926  -2.272  1.00  0.00     0.071 A 
HETATM   14  C   UNL     1      40.444 -12.677  -2.611  1.00  0.00     0.073 A 
HETATM   15  C   UNL     1      40.966 -11.835  -1.629  1.00  0.00     0.071 A 
HETATM   16  C   UNL     1      40.977 -12.261  -0.301  1.00  0.00     0.054 A 
BRANCH  13  17
HETATM   17  O   UNL     1      39.418 -14.636  -3.334  1.00  0.00    -0.356 OA
HETATM   18  C   UNL     1      38.018 -14.562  -3.579  1.00  0.00     0.210 C 
ENDBRANCH  13  17
BRANCH  15  19
HETATM   19  O   UNL     1      41.494 -10.591  -1.838  1.00  0.00    -0.356 OA
HETATM   20  C   UNL     1      41.713  -9.787  -0.684  1.00  0.00     0.210 C 
ENDBRANCH  15  19
ENDBRANCH   8  11
ENDBRANCH   1   7
BRANCH   4  21
HETATM   21  C   UNL     1      43.343 -11.126   6.291  1.00  0.00     0.121 A 
HETATM   22  N   UNL     1      44.304 -11.822   6.981  1.00  0.00    -0.262 N 
HETATM   23  H   UNL     1      44.907 -12.553   6.631  1.00  0.00     0.191 HD
HETATM   24  N   UNL     1      44.447 -11.454   8.264  1.00  0.00    -0.173 NA
HETATM   25  C   UNL     1      43.580 -10.441   8.420  1.00  0.00     0.090 A 
HETATM   26  C   UNL     1      42.870 -10.212   7.208  1.00  0.00     0.084 A 
BRANCH  25  27
HETATM   27  C   UNL     1      43.451  -9.730   9.697  1.00  0.00    -0.005 A 
HETATM   28  C   UNL     1      43.301  -8.334   9.739  1.00  0.00     0.015 A 
HETATM   29  C   UNL     1      43.180  -7.664  10.962  1.00  0.00     0.024 A 
HETATM   30  C   UNL     1      43.208  -8.385  12.154  1.00  0.00     0.034 A 
HETATM   31 CL   UNL     1      43.059  -7.560  13.655  1.00  0.00    -0.084 Cl
HETATM   32  C   UNL     1      43.360  -9.769  12.134  1.00  0.00     0.024 A 
HETATM   33  C   UNL     1      43.482 -10.436  10.911  1.00  0.00     0.015 A 
ENDBRANCH  25  27
ENDBRANCH   4  21
TORSDOF 6
ENDMDL
MODEL 4
REMARK VINA RESULT:      -8.1      8.708     11.189
REMARK  6 active torsions:
REMARK  status: ('A' for Active; 'I' for Inactive)
REMARK    1  A    between atoms: O_2  and  C_3 
REMARK    2  A    between atoms: C_5  and  O_6 
REMARK    3  A    between atoms: C_9  and  C_10 
REMARK       I    between atoms: C_10  and  N_11 
REMARK    4  A    between atoms: N_11  and  C_12 
REMARK    5  A    between atoms: N_15  and  C_16 
REMARK    6  A    between atoms: C_20  and  C_21 
ROOT
HETATM    1  C   UNL     1      39.925 -11.881  -1.050  1.00  0.00     0.087 C 
HETATM    2  C   UNL     1      40.310 -11.805   0.439  1.00  0.00     0.045 C 
HETATM    3  C   UNL     1      39.602 -12.883   1.255  1.00  0.00     0.126 C 
HETATM    4  N   UNL     1      39.908 -14.207   0.689  1.00  0.00    -0.366 N 
HETATM    5  C   UNL     1      39.465 -14.350  -0.703  1.00  0.00     0.126 C 
HETATM    6  C   UNL     1      40.160 -13.306  -1.579  1.00  0.00     0.045 C 
ENDROOT
BRANCH   1   7
HETATM    7  N   UNL     1      38.543 -11.464  -1.312  1.00  0.00    -0.352 N 
HETATM    8  C   UNL     1      38.168 -10.843  -2.489  1.00  0.00     0.252 C 
HETATM    9  O   UNL     1      38.957 -10.544  -3.377  1.00  0.00    -0.268 OA
HETATM   10  H   UNL     1      37.816 -11.978  -0.833  1.00  0.00     0.163 HD
BRANCH   8  11
HETATM   11  C   UNL     1      36.713 -10.561  -2.654  1.00  0.00     0.037 A 
HETATM   12  C   UNL     1      35.912 -11.282  -3.552  1.00  0.00     0.054 A 
HETATM   13  C   UNL     1      34.553 -10.984  -3.666  1.00  0.00     0.071 A 
HETATM   14  C   UNL     1      33.993  -9.979  -2.868  1.00  0.00     0.073 A 
HETATM   15  C   UNL     1      34.775  -9.280  -1.948  1.00  0.00     0.071 A 
HETATM   16  C   UNL     1      36.136  -9.570  -1.851  1.00  0.00     0.054 A 
BRANCH  13  17
HETATM   17  O   UNL     1      33.665 -11.596  -4.509  1.00  0.00    -0.356 OA
HETATM   18  C   UNL     1      33.889 -11.454  -5.907  1.00  0.00     0.210 C 
ENDBRANCH  13  17
BRANCH  15  19
HETATM   19  O   UNL     1      34.335  -8.298  -1.104  1.00  0.00    -0.356 OA
HETATM   20  C   UNL     1      33.064  -8.497  -0.497  1.00  0.00     0.210 C 
ENDBRANCH  15  19
ENDBRANCH   8  11
ENDBRANCH   1   7
BRANCH   4  21
HETATM   21  C   UNL     1      40.952 -14.964   1.150  1.00  0.00     0.121 A 
HETATM   22  N   UNL     1      42.269 -14.671   0.899  1.00  0.00    -0.262 N 
HETATM   23  H   UNL     1      42.639 -13.890   0.376  1.00  0.00     0.191 HD
HETATM   24  N   UNL     1      43.145 -15.533   1.439  1.00  0.00    -0.173 NA
HETATM   25  C   UNL     1      42.383 -16.406   2.116  1.00  0.00     0.090 A 
HETATM   26  C   UNL     1      41.007 -16.083   1.954  1.00  0.00     0.084 A 
BRANCH  25  27
HETATM   27  C   UNL     1      42.973 -17.507   2.886  1.00  0.00    -0.005 A 
HETATM   28  C   UNL     1      43.362 -17.331   4.224  1.00  0.00     0.015 A 
HETATM   29  C   UNL     1      43.925 -18.387   4.950  1.00  0.00     0.024 A 
HETATM   30  C   UNL     1      44.105 -19.628   4.343  1.00  0.00     0.034 A 
HETATM   31 CL   UNL     1      44.798 -20.923   5.237  1.00  0.00    -0.084 Cl
HETATM   32  C   UNL     1      43.730 -19.822   3.017  1.00  0.00     0.024 A 
HETATM   33  C   UNL     1      43.168 -18.765   2.293  1.00  0.00     0.015 A 
ENDBRANCH  25  27
ENDBRANCH   4  21
TORSDOF 6
ENDMDL
MODEL 5
REMARK VINA RESULT:      -8.0      6.328     11.296
REMARK  6 active torsions:
REMARK  status: ('A' for Active; 'I' for Inactive)
REMARK    1  A    between atoms: O_2  and  C_3 
REMARK    2  A    between atoms: C_5  and  O_6 
REMARK    3  A    between atoms: C_9  and  C_10 
REMARK       I    between atoms: C_10  and  N_11 
REMARK    4  A    between atoms: N_11  and  C_12 
REMARK    5  A    between atoms: N_15  and  C_16 
REMARK    6  A    between atoms: C_20  and  C_21 
ROOT
HETATM    1  C   UNL     1      40.996 -12.837   3.565  1.00  0.00     0.087 C 
HETATM    2  C   UNL     1      42.340 -13.375   4.091  1.00  0.00     0.045 C 
HETATM    3  C   UNL     1      43.424 -12.302   4.055  1.00  0.00     0.126 C 
HETATM    4  N   UNL     1      42.978 -11.128   4.823  1.00  0.00    -0.366 N 
HETATM    5  C   UNL     1      41.750 -10.527   4.290  1.00  0.00     0.126 C 
HETATM    6  C   UNL     1      40.615 -11.553   4.320  1.00  0.00     0.045 C 
ENDROOT
BRANCH   1   7
HETATM    7  N   UNL     1      40.997 -12.593   2.118  1.00  0.00    -0.352 N 
HETATM    8  C   UNL     1      40.521 -13.521   1.211  1.00  0.00     0.252 C 
HETATM    9  O   UNL     1      40.114 -14.631   1.530  1.00  0.00    -0.268 OA
HETATM   10  H   UNL     1      40.962 -11.627   1.821  1.00  0.00     0.163 HD
BRANCH   8  11
HETATM   11  C   UNL     1      40.500 -13.098  -0.219  1.00  0.00     0.037 A 
HETATM   12  C   UNL     1      40.969 -11.841  -0.630  1.00  0.00     0.054 A 
HETATM   13  C   UNL     1      40.933 -11.493  -1.981  1.00  0.00     0.071 A 
HETATM   14  C   UNL     1      40.447 -12.410  -2.922  1.00  0.00     0.073 A 
HETATM   15  C   UNL     1      40.009 -13.674  -2.527  1.00  0.00     0.071 A 
HETATM   16  C   UNL     1      40.031 -14.010  -1.173  1.00  0.00     0.054 A 
BRANCH  13  17
HETATM   17  O   UNL     1      41.342 -10.301  -2.514  1.00  0.00    -0.356 OA
HETATM   18  C   UNL     1      41.266  -9.152  -1.679  1.00  0.00     0.210 C 
ENDBRANCH  13  17
BRANCH  15  19
HETATM   19  O   UNL     1      39.537 -14.654  -3.355  1.00  0.00    -0.356 OA
HETATM   20  C   UNL     1      38.126 -14.724  -3.524  1.00  0.00     0.210 C 
ENDBRANCH  15  19
ENDBRANCH   8  11
ENDBRANCH   1   7
BRANCH   4  21
HETATM   21  C   UNL     1      43.288 -10.975   6.149  1.00  0.00     0.121 A 
HETATM   22  N   UNL     1      44.223 -11.737   6.802  1.00  0.00    -0.262 N 
HETATM   23  H   UNL     1      44.796 -12.475   6.416  1.00  0.00     0.191 HD
HETATM   24  N   UNL     1      44.385 -11.433   8.099  1.00  0.00    -0.173 NA
HETATM   25  C   UNL     1      43.560 -10.395   8.305  1.00  0.00     0.090 A 
HETATM   26  C   UNL     1      42.855 -10.084   7.109  1.00  0.00     0.084 A 
BRANCH  25  27
HETATM   27  C   UNL     1      43.463  -9.737   9.614  1.00  0.00    -0.005 A 
HETATM   28  C   UNL     1      43.532 -10.476  10.805  1.00  0.00     0.015 A 
HETATM   29  C   UNL     1      43.438  -9.839  12.048  1.00  0.00     0.024 A 
HETATM   30  C   UNL     1      43.273  -8.457  12.109  1.00  0.00     0.034 A 
HETATM   31 CL   UNL     1      43.158  -7.677  13.637  1.00  0.00    -0.084 Cl
HETATM   32  C   UNL     1      43.199  -7.707  10.939  1.00  0.00     0.024 A 
HETATM   33  C   UNL     1      43.293  -8.345   9.698  1.00  0.00     0.015 A 
ENDBRANCH  25  27
ENDBRANCH   4  21
TORSDOF 6
ENDMDL
MODEL 6
REMARK VINA RESULT:      -7.9      3.656      4.754
REMARK  6 active torsions:
REMARK  status: ('A' for Active; 'I' for Inactive)
REMARK    1  A    between atoms: O_2  and  C_3 
REMARK    2  A    between atoms: C_5  and  O_6 
REMARK    3  A    between atoms: C_9  and  C_10 
REMARK       I    between atoms: C_10  and  N_11 
REMARK    4  A    between atoms: N_11  and  C_12 
REMARK    5  A    between atoms: N_15  and  C_16 
REMARK    6  A    between atoms: C_20  and  C_21 
ROOT
HETATM    1  C   UNL     1      43.757 -12.119   6.574  1.00  0.00     0.087 C 
HETATM    2  C   UNL     1      42.793 -13.295   6.327  1.00  0.00     0.045 C 
HETATM    3  C   UNL     1      41.433 -12.809   5.835  1.00  0.00     0.126 C 
HETATM    4  N   UNL     1      41.612 -11.999   4.620  1.00  0.00    -0.366 N 
HETATM    5  C   UNL     1      42.446 -10.811   4.841  1.00  0.00     0.126 C 
HETATM    6  C   UNL     1      43.837 -11.236   5.317  1.00  0.00     0.045 C 
ENDROOT
BRANCH   1   7
HETATM    7  N   UNL     1      43.392 -11.307   7.741  1.00  0.00    -0.352 N 
HETATM    8  C   UNL     1      44.336 -10.809   8.620  1.00  0.00     0.252 C 
HETATM    9  O   UNL     1      45.534 -11.044   8.529  1.00  0.00    -0.268 OA
HETATM   10  H   UNL     1      42.527 -10.786   7.679  1.00  0.00     0.163 HD
BRANCH   8  11
HETATM   11  C   UNL     1      43.825  -9.925   9.707  1.00  0.00     0.037 A 
HETATM   12  C   UNL     1      43.535 -10.414  10.989  1.00  0.00     0.054 A 
HETATM   13  C   UNL     1      43.065  -9.545  11.975  1.00  0.00     0.071 A 
HETATM   14  C   UNL     1      42.904  -8.185  11.683  1.00  0.00     0.073 A 
HETATM   15  C   UNL     1      43.221  -7.684  10.421  1.00  0.00     0.071 A 
HETATM   16  C   UNL     1      43.674  -8.560   9.434  1.00  0.00     0.054 A 
BRANCH  13  17
HETATM   17  O   UNL     1      42.731  -9.890  13.256  1.00  0.00    -0.356 OA
HETATM   18  C   UNL     1      42.093  -8.899  14.054  1.00  0.00     0.210 C 
ENDBRANCH  13  17
BRANCH  15  19
HETATM   19  O   UNL     1      43.125  -6.377  10.029  1.00  0.00    -0.356 OA
HETATM   20  C   UNL     1      42.349  -6.113   8.866  1.00  0.00     0.210 C 
ENDBRANCH  15  19
ENDBRANCH   8  11
ENDBRANCH   1   7
BRANCH   4  21
HETATM   21  C   UNL     1      41.535 -12.550   3.368  1.00  0.00     0.121 A 
HETATM   22  N   UNL     1      42.531 -13.313   2.814  1.00  0.00    -0.262 N 
HETATM   23  H   UNL     1      43.413 -13.575   3.232  1.00  0.00     0.191 HD
HETATM   24  N   UNL     1      42.267 -13.764   1.578  1.00  0.00    -0.173 NA
HETATM   25  C   UNL     1      41.026 -13.324   1.318  1.00  0.00     0.090 A 
HETATM   26  C   UNL     1      40.539 -12.557   2.414  1.00  0.00     0.084 A 
BRANCH  25  27
HETATM   27  C   UNL     1      40.347 -13.637   0.055  1.00  0.00    -0.005 A 
HETATM   28  C   UNL     1      39.865 -14.929  -0.209  1.00  0.00     0.015 A 
HETATM   29  C   UNL     1      39.219 -15.218  -1.416  1.00  0.00     0.024 A 
HETATM   30  C   UNL     1      39.052 -14.217  -2.371  1.00  0.00     0.034 A 
HETATM   31 CL   UNL     1      38.258 -14.575  -3.854  1.00  0.00    -0.084 Cl
HETATM   32  C   UNL     1      39.526 -12.931  -2.130  1.00  0.00     0.024 A 
HETATM   33  C   UNL     1      40.171 -12.644  -0.923  1.00  0.00     0.015 A 
ENDBRANCH  25  27
ENDBRANCH   4  21
TORSDOF 6
ENDMDL
MODEL 7
REMARK VINA RESULT:      -7.9      5.475     12.027
REMARK  6 active torsions:
REMARK  status: ('A' for Active; 'I' for Inactive)
REMARK    1  A    between atoms: O_2  and  C_3 
REMARK    2  A    between atoms: C_5  and  O_6 
REMARK    3  A    between atoms: C_9  and  C_10 
REMARK       I    between atoms: C_10  and  N_11 
REMARK    4  A    between atoms: N_11  and  C_12 
REMARK    5  A    between atoms: N_15  and  C_16 
REMARK    6  A    between atoms: C_20  and  C_21 
ROOT
HETATM    1  C   UNL     1      44.066  -9.905   9.536  1.00  0.00     0.087 C 
HETATM    2  C   UNL     1      43.009  -8.797   9.705  1.00  0.00     0.045 C 
HETATM    3  C   UNL     1      41.832  -9.271  10.553  1.00  0.00     0.126 C 
HETATM    4  N   UNL     1      42.327  -9.744  11.856  1.00  0.00    -0.366 N 
HETATM    5  C   UNL     1      43.263 -10.869  11.739  1.00  0.00     0.126 C 
HETATM    6  C   UNL     1      44.480 -10.446  10.914  1.00  0.00     0.045 C 
ENDROOT
BRANCH   1   7
HETATM    7  N   UNL     1      43.618 -11.004   8.672  1.00  0.00    -0.352 N 
HETATM    8  C   UNL     1      44.255 -11.318   7.486  1.00  0.00     0.252 C 
HETATM    9  O   UNL     1      45.199 -10.681   7.036  1.00  0.00    -0.268 OA
HETATM   10  H   UNL     1      43.124 -11.762   9.123  1.00  0.00     0.163 HD
BRANCH   8  11
HETATM   11  C   UNL     1      43.746 -12.518   6.761  1.00  0.00     0.037 A 
HETATM   12  C   UNL     1      43.400 -13.701   7.430  1.00  0.00     0.054 A 
HETATM   13  C   UNL     1      42.923 -14.795   6.707  1.00  0.00     0.071 A 
HETATM   14  C   UNL     1      42.773 -14.698   5.318  1.00  0.00     0.073 A 
HETATM   15  C   UNL     1      43.083 -13.515   4.648  1.00  0.00     0.071 A 
HETATM   16  C   UNL     1      43.576 -12.430   5.374  1.00  0.00     0.054 A 
BRANCH  13  17
HETATM   17  O   UNL     1      42.565 -16.008   7.230  1.00  0.00    -0.356 OA
HETATM   18  C   UNL     1      43.496 -17.076   7.098  1.00  0.00     0.210 C 
ENDBRANCH  13  17
BRANCH  15  19
HETATM   19  O   UNL     1      42.958 -13.298   3.304  1.00  0.00    -0.356 OA
HETATM   20  C   UNL     1      43.256 -14.394   2.447  1.00  0.00     0.210 C 
ENDBRANCH  15  19
ENDBRANCH   8  11
ENDBRANCH   1   7
BRANCH   4  21
HETATM   21  C   UNL     1      42.393  -8.916  12.946  1.00  0.00     0.121 A 
HETATM   22  N   UNL     1      43.274  -7.871  13.050  1.00  0.00    -0.262 N 
HETATM   23  H   UNL     1      43.957  -7.569  12.368  1.00  0.00     0.191 HD
HETATM   24  N   UNL     1      43.184  -7.175  14.194  1.00  0.00    -0.173 NA
HETATM   25  C   UNL     1      42.169  -7.752  14.857  1.00  0.00     0.090 A 
HETATM   26  C   UNL     1      41.654  -8.847  14.108  1.00  0.00     0.084 A 
BRANCH  25  27
HETATM   27  C   UNL     1      41.724  -7.256  16.165  1.00  0.00    -0.005 A 
HETATM   28  C   UNL     1      42.042  -5.958  16.596  1.00  0.00     0.015 A 
HETATM   29  C   UNL     1      41.614  -5.495  17.845  1.00  0.00     0.024 A 
HETATM   30  C   UNL     1      40.864  -6.327  18.674  1.00  0.00     0.034 A 
HETATM   31 CL   UNL     1      40.339  -5.756  20.209  1.00  0.00    -0.084 Cl
HETATM   32  C   UNL     1      40.542  -7.619  18.267  1.00  0.00     0.024 A 
HETATM   33  C   UNL     1      40.972  -8.080  17.018  1.00  0.00     0.015 A 
ENDBRANCH  25  27
ENDBRANCH   4  21
TORSDOF 6
ENDMDL
MODEL 8
REMARK VINA RESULT:      -7.9      8.755     11.195
REMARK  6 active torsions:
REMARK  status: ('A' for Active; 'I' for Inactive)
REMARK    1  A    between atoms: O_2  and  C_3 
REMARK    2  A    between atoms: C_5  and  O_6 
REMARK    3  A    between atoms: C_9  and  C_10 
REMARK       I    between atoms: C_10  and  N_11 
REMARK    4  A    between atoms: N_11  and  C_12 
REMARK    5  A    between atoms: N_15  and  C_16 
REMARK    6  A    between atoms: C_20  and  C_21 
ROOT
HETATM    1  C   UNL     1      39.925 -11.965  -1.297  1.00  0.00     0.087 C 
HETATM    2  C   UNL     1      40.339 -11.779   0.175  1.00  0.00     0.045 C 
HETATM    3  C   UNL     1      39.638 -12.783   1.085  1.00  0.00     0.126 C 
HETATM    4  N   UNL     1      39.920 -14.150   0.617  1.00  0.00    -0.366 N 
HETATM    5  C   UNL     1      39.449 -14.395  -0.751  1.00  0.00     0.126 C 
HETATM    6  C   UNL     1      40.137 -13.429  -1.718  1.00  0.00     0.045 C 
ENDROOT
BRANCH   1   7
HETATM    7  N   UNL     1      38.542 -11.556  -1.565  1.00  0.00    -0.352 N 
HETATM    8  C   UNL     1      38.225 -10.591  -2.503  1.00  0.00     0.252 C 
HETATM    9  O   UNL     1      39.063  -9.968  -3.142  1.00  0.00    -0.268 OA
HETATM   10  H   UNL     1      37.821 -12.238  -1.372  1.00  0.00     0.163 HD
BRANCH   8  11
HETATM   11  C   UNL     1      36.772 -10.345  -2.733  1.00  0.00     0.037 A 
HETATM   12  C   UNL     1      36.165  -9.121  -2.413  1.00  0.00     0.054 A 
HETATM   13  C   UNL     1      34.802  -8.937  -2.652  1.00  0.00     0.071 A 
HETATM   14  C   UNL     1      34.053  -9.970  -3.229  1.00  0.00     0.073 A 
HETATM   15  C   UNL     1      34.654 -11.177  -3.582  1.00  0.00     0.071 A 
HETATM   16  C   UNL     1      36.013 -11.362  -3.325  1.00  0.00     0.054 A 
BRANCH  13  17
HETATM   17  O   UNL     1      34.084  -7.806  -2.375  1.00  0.00    -0.356 OA
HETATM   18  C   UNL     1      34.745  -6.775  -1.651  1.00  0.00     0.210 C 
ENDBRANCH  13  17
BRANCH  15  19
HETATM   19  O   UNL     1      34.031 -12.244  -4.169  1.00  0.00    -0.356 OA
HETATM   20  C   UNL     1      34.425 -12.564  -5.498  1.00  0.00     0.210 C 
ENDBRANCH  15  19
ENDBRANCH   8  11
ENDBRANCH   1   7
BRANCH   4  21
HETATM   21  C   UNL     1      40.967 -14.880   1.116  1.00  0.00     0.121 A 
HETATM   22  N   UNL     1      42.280 -14.508   0.985  1.00  0.00    -0.262 N 
HETATM   23  H   UNL     1      42.646 -13.680   0.535  1.00  0.00     0.191 HD
HETATM   24  N   UNL     1      43.159 -15.356   1.543  1.00  0.00    -0.173 NA
HETATM   25  C   UNL     1      42.397 -16.304   2.110  1.00  0.00     0.090 A 
HETATM   26  C   UNL     1      41.021 -16.040   1.859  1.00  0.00     0.084 A 
BRANCH  25  27
HETATM   27  C   UNL     1      42.986 -17.417   2.862  1.00  0.00    -0.005 A 
HETATM   28  C   UNL     1      43.438 -17.245   4.181  1.00  0.00     0.015 A 
HETATM   29  C   UNL     1      44.000 -18.313   4.889  1.00  0.00     0.024 A 
HETATM   30  C   UNL     1      44.115 -19.563   4.285  1.00  0.00     0.034 A 
HETATM   31 CL   UNL     1      44.806 -20.873   5.158  1.00  0.00    -0.084 Cl
HETATM   32  C   UNL     1      43.677 -19.754   2.978  1.00  0.00     0.024 A 
HETATM   33  C   UNL     1      43.116 -18.685   2.271  1.00  0.00     0.015 A 
ENDBRANCH  25  27
ENDBRANCH   4  21
TORSDOF 6
ENDMDL
MODEL 9
REMARK VINA RESULT:      -7.8      5.408     11.819
REMARK  6 active torsions:
REMARK  status: ('A' for Active; 'I' for Inactive)
REMARK    1  A    between atoms: O_2  and  C_3 
REMARK    2  A    between atoms: C_5  and  O_6 
REMARK    3  A    between atoms: C_9  and  C_10 
REMARK       I    between atoms: C_10  and  N_11 
REMARK    4  A    between atoms: N_11  and  C_12 
REMARK    5  A    between atoms: N_15  and  C_16 
REMARK    6  A    between atoms: C_20  and  C_21 
ROOT
HETATM    1  C   UNL     1      43.727  -9.648   8.976  1.00  0.00     0.087 C 
HETATM    2  C   UNL     1      42.543  -8.732   9.340  1.00  0.00     0.045 C 
HETATM    3  C   UNL     1      41.613  -9.395  10.351  1.00  0.00     0.126 C 
HETATM    4  N   UNL     1      42.381  -9.778  11.547  1.00  0.00    -0.366 N 
HETATM    5  C   UNL     1      43.459 -10.730  11.254  1.00  0.00     0.126 C 
HETATM    6  C   UNL     1      44.442 -10.112  10.257  1.00  0.00     0.045 C 
ENDROOT
BRANCH   1   7
HETATM    7  N   UNL     1      43.334 -10.807   8.167  1.00  0.00    -0.352 N 
HETATM    8  C   UNL     1      44.155 -11.339   7.190  1.00  0.00     0.252 C 
HETATM    9  O   UNL     1      45.241 -10.861   6.886  1.00  0.00    -0.268 OA
HETATM   10  H   UNL     1      42.670 -11.446   8.582  1.00  0.00     0.163 HD
BRANCH   8  11
HETATM   11  C   UNL     1      43.662 -12.573   6.512  1.00  0.00     0.037 A 
HETATM   12  C   UNL     1      43.363 -12.599   5.142  1.00  0.00     0.054 A 
HETATM   13  C   UNL     1      42.910 -13.780   4.552  1.00  0.00     0.071 A 
HETATM   14  C   UNL     1      42.775 -14.937   5.328  1.00  0.00     0.073 A 
HETATM   15  C   UNL     1      43.102 -14.929   6.684  1.00  0.00     0.071 A 
HETATM   16  C   UNL     1      43.538 -13.741   7.272  1.00  0.00     0.054 A 
BRANCH  13  17
HETATM   17  O   UNL     1      42.569 -13.941   3.236  1.00  0.00    -0.356 OA
HETATM   18  C   UNL     1      42.357 -15.270   2.775  1.00  0.00     0.210 C 
ENDBRANCH  13  17
BRANCH  15  19
HETATM   19  O   UNL     1      43.031 -15.999   7.533  1.00  0.00    -0.356 OA
HETATM   20  C   UNL     1      43.206 -17.287   6.956  1.00  0.00     0.210 C 
ENDBRANCH  15  19
ENDBRANCH   8  11
ENDBRANCH   1   7
BRANCH   4  21
HETATM   21  C   UNL     1      42.484  -8.950  12.633  1.00  0.00     0.121 A 
HETATM   22  N   UNL     1      43.507  -8.053  12.807  1.00  0.00    -0.262 N 
HETATM   23  H   UNL     1      44.284  -7.874  12.186  1.00  0.00     0.191 HD
HETATM   24  N   UNL     1      43.430  -7.330  13.935  1.00  0.00    -0.173 NA
HETATM   25  C   UNL     1      42.286  -7.729  14.512  1.00  0.00     0.090 A 
HETATM   26  C   UNL     1      41.670  -8.744  13.727  1.00  0.00     0.084 A 
BRANCH  25  27
HETATM   27  C   UNL     1      41.815  -7.145  15.773  1.00  0.00    -0.005 A 
HETATM   28  C   UNL     1      41.382  -7.958  16.833  1.00  0.00     0.015 A 
HETATM   29  C   UNL     1      40.933  -7.391  18.031  1.00  0.00     0.024 A 
HETATM   30  C   UNL     1      40.912  -6.006  18.179  1.00  0.00     0.034 A 
HETATM   31 CL   UNL     1      40.361  -5.313  19.653  1.00  0.00    -0.084 Cl
HETATM   32  C   UNL     1      41.333  -5.183  17.139  1.00  0.00     0.024 A 
HETATM   33  C   UNL     1      41.781  -5.751  15.942  1.00  0.00     0.015 A 
ENDBRANCH  25  27
ENDBRANCH   4  21
TORSDOF 6
ENDMDL
MODEL 10
REMARK VINA RESULT:      -7.6      5.787     11.053
REMARK  6 active torsions:
REMARK  status: ('A' for Active; 'I' for Inactive)
REMARK    1  A    between atoms: O_2  and  C_3 
REMARK    2  A    between atoms: C_5  and  O_6 
REMARK    3  A    between atoms: C_9  and  C_10 
REMARK       I    between atoms: C_10  and  N_11 
REMARK    4  A    between atoms: N_11  and  C_12 
REMARK    5  A    between atoms: N_15  and  C_16 
REMARK    6  A    between atoms: C_20  and  C_21 
ROOT
HETATM    1  C   UNL     1      41.310 -12.321   5.436  1.00  0.00     0.087 C 
HETATM    2  C   UNL     1      42.684 -12.683   6.031  1.00  0.00     0.045 C 
HETATM    3  C   UNL     1      43.605 -11.467   6.092  1.00  0.00     0.126 C 
HETATM    4  N   UNL     1      42.952 -10.396   6.862  1.00  0.00    -0.366 N 
HETATM    5  C   UNL     1      41.684  -9.955   6.268  1.00  0.00     0.126 C 
HETATM    6  C   UNL     1      40.707 -11.130   6.200  1.00  0.00     0.045 C 
ENDROOT
BRANCH   1   7
HETATM    7  N   UNL     1      41.361 -12.029   3.999  1.00  0.00    -0.352 N 
HETATM    8  C   UNL     1      40.927 -12.930   3.046  1.00  0.00     0.252 C 
HETATM    9  O   UNL     1      40.519 -14.054   3.313  1.00  0.00    -0.268 OA
HETATM   10  H   UNL     1      41.328 -11.054   3.734  1.00  0.00     0.163 HD
BRANCH   8  11
HETATM   11  C   UNL     1      40.953 -12.459   1.630  1.00  0.00     0.037 A 
HETATM   12  C   UNL     1      40.445 -13.236   0.578  1.00  0.00     0.054 A 
HETATM   13  C   UNL     1      40.488 -12.748  -0.729  1.00  0.00     0.071 A 
HETATM   14  C   UNL     1      41.019 -11.477  -0.980  1.00  0.00     0.073 A 
HETATM   15  C   UNL     1      41.495 -10.684   0.064  1.00  0.00     0.071 A 
HETATM   16  C   UNL     1      41.466 -11.183   1.367  1.00  0.00     0.054 A 
BRANCH  13  17
HETATM   17  O   UNL     1      40.044 -13.404  -1.845  1.00  0.00    -0.356 OA
HETATM   18  C   UNL     1      38.636 -13.519  -2.018  1.00  0.00     0.210 C 
ENDBRANCH  13  17
BRANCH  15  19
HETATM   19  O   UNL     1      42.014  -9.424  -0.057  1.00  0.00    -0.356 OA
HETATM   20  C   UNL     1      42.370  -9.003  -1.368  1.00  0.00     0.210 C 
ENDBRANCH  15  19
ENDBRANCH   8  11
ENDBRANCH   1   7
BRANCH   4  21
HETATM   21  C   UNL     1      43.159 -10.247   8.208  1.00  0.00     0.121 A 
HETATM   22  N   UNL     1      44.268 -10.722   8.861  1.00  0.00    -0.262 N 
HETATM   23  H   UNL     1      45.056 -11.214   8.462  1.00  0.00     0.191 HD
HETATM   24  N   UNL     1      44.288 -10.475  10.180  1.00  0.00    -0.173 NA
HETATM   25  C   UNL     1      43.171  -9.765  10.405  1.00  0.00     0.090 A 
HETATM   26  C   UNL     1      42.440  -9.607   9.195  1.00  0.00     0.084 A 
BRANCH  25  27
HETATM   27  C   UNL     1      42.834  -9.264  11.743  1.00  0.00    -0.005 A 
HETATM   28  C   UNL     1      43.548  -8.203  12.322  1.00  0.00     0.015 A 
HETATM   29  C   UNL     1      43.219  -7.733  13.598  1.00  0.00     0.024 A 
HETATM   30  C   UNL     1      42.175  -8.322  14.308  1.00  0.00     0.034 A 
HETATM   31 CL   UNL     1      41.773  -7.743  15.876  1.00  0.00    -0.084 Cl
HETATM   32  C   UNL     1      41.457  -9.378  13.753  1.00  0.00     0.024 A 
HETATM   33  C   UNL     1      41.788  -9.847  12.477  1.00  0.00     0.015 A 
ENDBRANCH  25  27
ENDBRANCH   4  21
TORSDOF 6
ENDMDL
