MODEL 1
REMARK VINA RESULT:      -9.1      0.000      0.000
REMARK  5 active torsions:
REMARK  status: ('A' for Active; 'I' for Inactive)
REMARK    1  A    between atoms: C_2  and  C_3 
REMARK    2  A    between atoms: C_2  and  C_9 
REMARK    3  A    between atoms: C_9  and  C_10 
REMARK       I    between atoms: C_10  and  N_11 
REMARK    4  A    between atoms: N_11  and  C_12 
REMARK    5  A    between atoms: C_19  and  C_20 
REMARK       I    between atoms: C_20  and  N_21 
ROOT
HETATM    1  C   UNL     1      40.819 -14.374   0.783  1.00  0.00     0.035 A 
HETATM    2  C   UNL     1      40.096 -14.746  -0.358  1.00  0.00     0.046 A 
HETATM    3  C   UNL     1      39.814 -13.780  -1.351  1.00  0.00     0.030 A 
HETATM    4  C   UNL     1      40.263 -12.479  -1.167  1.00  0.00     0.063 A 
HETATM    5  N   UNL     1      39.842 -11.791  -2.271  1.00  0.00    -0.277 N 
HETATM    6  H   UNL     1      39.990 -10.809  -2.475  1.00  0.00     0.189 HD
HETATM    7  N   UNL     1      39.159 -12.528  -3.160  1.00  0.00    -0.168 NA
HETATM    8  C   UNL     1      39.134 -13.763  -2.607  1.00  0.00     0.156 A 
HETATM    9  C   UNL     1      40.989 -12.074  -0.046  1.00  0.00     0.034 A 
HETATM   10  C   UNL     1      41.257 -13.050   0.923  1.00  0.00     0.032 A 
ENDROOT
BRANCH   1  11
HETATM   11  N   UNL     1      41.149 -15.265   1.829  1.00  0.00    -0.327 N 
HETATM   12  C   UNL     1      40.866 -15.128   3.179  1.00  0.00     0.222 C 
HETATM   13  O   UNL     1      40.291 -14.184   3.708  1.00  0.00    -0.273 OA
HETATM   14  H   UNL     1      41.673 -16.089   1.561  1.00  0.00     0.169 HD
BRANCH  12  15
HETATM   15  C   UNL     1      41.388 -16.311   3.980  1.00  0.00     0.112 C 
BRANCH  15  16
HETATM   16  C   UNL     1      42.915 -16.481   3.886  1.00  0.00     0.023 C 
HETATM   17  C   UNL     1      43.625 -15.979   5.151  1.00  0.00     0.015 C 
BRANCH  16  18
HETATM   18  C   UNL     1      43.268 -17.935   3.604  1.00  0.00    -0.054 A 
HETATM   19  C   UNL     1      43.886 -18.749   4.566  1.00  0.00     0.007 A 
HETATM   20  C   UNL     1      44.194 -20.081   4.280  1.00  0.00     0.001 A 
HETATM   21  C   UNL     1      43.886 -20.617   3.032  1.00  0.00     0.000 A 
HETATM   22  C   UNL     1      43.269 -19.823   2.069  1.00  0.00     0.001 A 
HETATM   23  C   UNL     1      42.961 -18.491   2.352  1.00  0.00     0.007 A 
ENDBRANCH  16  18
ENDBRANCH  15  16
ENDBRANCH  12  15
ENDBRANCH   1  11
BRANCH   8  24
HETATM   24  C   UNL     1      38.468 -14.886  -3.282  1.00  0.00     0.270 C 
HETATM   25  N   UNL     1      38.306 -15.993  -2.494  1.00  0.00    -0.365 N 
HETATM   26  H   UNL     1      38.640 -15.962  -1.539  1.00  0.00     0.159 HD
HETATM   27  H   UNL     1      37.856 -16.812  -2.873  1.00  0.00     0.159 HD
HETATM   28  O   UNL     1      38.076 -14.872  -4.444  1.00  0.00    -0.266 OA
ENDBRANCH   8  24
TORSDOF 5
ENDMDL
MODEL 2
REMARK VINA RESULT:      -8.9      1.510      2.036
REMARK  5 active torsions:
REMARK  status: ('A' for Active; 'I' for Inactive)
REMARK    1  A    between atoms: C_2  and  C_3 
REMARK    2  A    between atoms: C_2  and  C_9 
REMARK    3  A    between atoms: C_9  and  C_10 
REMARK       I    between atoms: C_10  and  N_11 
REMARK    4  A    between atoms: N_11  and  C_12 
REMARK    5  A    between atoms: C_19  and  C_20 
REMARK       I    between atoms: C_20  and  N_21 
ROOT
HETATM    1  C   UNL     1      40.032 -14.060   1.973  1.00  0.00     0.035 A 
HETATM    2  C   UNL     1      40.173 -14.060   0.579  1.00  0.00     0.046 A 
HETATM    3  C   UNL     1      39.585 -13.025  -0.182  1.00  0.00     0.030 A 
HETATM    4  C   UNL     1      38.877 -12.027   0.476  1.00  0.00     0.063 A 
HETATM    5  N   UNL     1      38.434 -11.188  -0.508  1.00  0.00    -0.277 N 
HETATM    6  H   UNL     1      37.879 -10.348  -0.394  1.00  0.00     0.189 HD
HETATM    7  N   UNL     1      38.791 -11.549  -1.751  1.00  0.00    -0.168 NA
HETATM    8  C   UNL     1      39.506 -12.683  -1.567  1.00  0.00     0.156 A 
HETATM    9  C   UNL     1      38.720 -11.993   1.862  1.00  0.00     0.034 A 
HETATM   10  C   UNL     1      39.313 -13.029   2.594  1.00  0.00     0.032 A 
ENDROOT
BRANCH   1  11
HETATM   11  N   UNL     1      40.581 -15.049   2.819  1.00  0.00    -0.327 N 
HETATM   12  C   UNL     1      41.848 -15.073   3.383  1.00  0.00     0.222 C 
HETATM   13  O   UNL     1      42.729 -14.238   3.223  1.00  0.00    -0.273 OA
HETATM   14  H   UNL     1      39.985 -15.842   3.019  1.00  0.00     0.169 HD
BRANCH  12  15
HETATM   15  C   UNL     1      42.051 -16.313   4.241  1.00  0.00     0.112 C 
BRANCH  15  16
HETATM   16  C   UNL     1      43.522 -16.755   4.331  1.00  0.00     0.023 C 
HETATM   17  C   UNL     1      44.133 -16.434   5.701  1.00  0.00     0.015 C 
BRANCH  16  18
HETATM   18  C   UNL     1      43.648 -18.238   4.013  1.00  0.00    -0.054 A 
HETATM   19  C   UNL     1      43.440 -18.740   2.718  1.00  0.00     0.007 A 
HETATM   20  C   UNL     1      43.567 -20.106   2.455  1.00  0.00     0.001 A 
HETATM   21  C   UNL     1      43.907 -20.986   3.479  1.00  0.00     0.000 A 
HETATM   22  C   UNL     1      44.120 -20.503   4.767  1.00  0.00     0.001 A 
HETATM   23  C   UNL     1      43.993 -19.138   5.033  1.00  0.00     0.007 A 
ENDBRANCH  16  18
ENDBRANCH  15  16
ENDBRANCH  12  15
ENDBRANCH   1  11
BRANCH   8  24
HETATM   24  C   UNL     1      40.091 -13.407  -2.704  1.00  0.00     0.270 C 
HETATM   25  N   UNL     1      41.374 -13.034  -3.003  1.00  0.00    -0.365 N 
HETATM   26  H   UNL     1      41.814 -12.316  -2.440  1.00  0.00     0.159 HD
HETATM   27  H   UNL     1      41.856 -13.479  -3.767  1.00  0.00     0.159 HD
HETATM   28  O   UNL     1      39.517 -14.274  -3.353  1.00  0.00    -0.266 OA
ENDBRANCH   8  24
TORSDOF 5
ENDMDL
MODEL 3
REMARK VINA RESULT:      -8.8      1.395      2.042
REMARK  5 active torsions:
REMARK  status: ('A' for Active; 'I' for Inactive)
REMARK    1  A    between atoms: C_2  and  C_3 
REMARK    2  A    between atoms: C_2  and  C_9 
REMARK    3  A    between atoms: C_9  and  C_10 
REMARK       I    between atoms: C_10  and  N_11 
REMARK    4  A    between atoms: N_11  and  C_12 
REMARK    5  A    between atoms: C_19  and  C_20 
REMARK       I    between atoms: C_20  and  N_21 
ROOT
HETATM    1  C   UNL     1      41.871 -13.896   2.400  1.00  0.00     0.035 A 
HETATM    2  C   UNL     1      41.270 -14.087   1.149  1.00  0.00     0.046 A 
HETATM    3  C   UNL     1      41.007 -12.970   0.324  1.00  0.00     0.030 A 
HETATM    4  C   UNL     1      41.351 -11.704   0.779  1.00  0.00     0.063 A 
HETATM    5  N   UNL     1      40.977 -10.846  -0.217  1.00  0.00    -0.277 N 
HETATM    6  H   UNL     1      41.075  -9.838  -0.228  1.00  0.00     0.189 HD
HETATM    7  N   UNL     1      40.420 -11.441  -1.284  1.00  0.00    -0.168 NA
HETATM    8  C   UNL     1      40.432 -12.756  -0.966  1.00  0.00     0.156 A 
HETATM    9  C   UNL     1      41.954 -11.477   2.017  1.00  0.00     0.034 A 
HETATM   10  C   UNL     1      42.206 -12.601   2.815  1.00  0.00     0.032 A 
ENDROOT
BRANCH   1  11
HETATM   11  N   UNL     1      42.173 -14.947   3.295  1.00  0.00    -0.327 N 
HETATM   12  C   UNL     1      41.506 -15.281   4.464  1.00  0.00     0.222 C 
HETATM   13  O   UNL     1      40.539 -14.700   4.940  1.00  0.00    -0.273 OA
HETATM   14  H   UNL     1      42.984 -15.506   3.065  1.00  0.00     0.169 HD
BRANCH  12  15
HETATM   15  C   UNL     1      42.143 -16.486   5.142  1.00  0.00     0.112 C 
BRANCH  15  16
HETATM   16  C   UNL     1      43.566 -16.785   4.637  1.00  0.00     0.023 C 
HETATM   17  C   UNL     1      44.613 -16.616   5.745  1.00  0.00     0.015 C 
BRANCH  16  18
HETATM   18  C   UNL     1      43.630 -18.182   4.035  1.00  0.00    -0.054 A 
HETATM   19  C   UNL     1      43.322 -18.424   2.688  1.00  0.00     0.007 A 
HETATM   20  C   UNL     1      43.394 -19.716   2.162  1.00  0.00     0.001 A 
HETATM   21  C   UNL     1      43.778 -20.781   2.974  1.00  0.00     0.000 A 
HETATM   22  C   UNL     1      44.092 -20.555   4.312  1.00  0.00     0.001 A 
HETATM   23  C   UNL     1      44.020 -19.264   4.840  1.00  0.00     0.007 A 
ENDBRANCH  16  18
ENDBRANCH  15  16
ENDBRANCH  12  15
ENDBRANCH   1  11
BRANCH   8  24
HETATM   24  C   UNL     1      39.901 -13.767  -1.891  1.00  0.00     0.270 C 
HETATM   25  N   UNL     1      38.734 -14.347  -1.473  1.00  0.00    -0.365 N 
HETATM   26  H   UNL     1      38.333 -14.050  -0.592  1.00  0.00     0.159 HD
HETATM   27  H   UNL     1      38.295 -15.051  -2.045  1.00  0.00     0.159 HD
HETATM   28  O   UNL     1      40.424 -14.090  -2.952  1.00  0.00    -0.266 OA
ENDBRANCH   8  24
TORSDOF 5
ENDMDL
MODEL 4
REMARK VINA RESULT:      -8.7      2.159      3.243
REMARK  5 active torsions:
REMARK  status: ('A' for Active; 'I' for Inactive)
REMARK    1  A    between atoms: C_2  and  C_3 
REMARK    2  A    between atoms: C_2  and  C_9 
REMARK    3  A    between atoms: C_9  and  C_10 
REMARK       I    between atoms: C_10  and  N_11 
REMARK    4  A    between atoms: N_11  and  C_12 
REMARK    5  A    between atoms: C_19  and  C_20 
REMARK       I    between atoms: C_20  and  N_21 
ROOT
HETATM    1  C   UNL     1      40.681 -14.063   0.556  1.00  0.00     0.035 A 
HETATM    2  C   UNL     1      41.152 -12.749   0.439  1.00  0.00     0.046 A 
HETATM    3  C   UNL     1      40.814 -11.986  -0.702  1.00  0.00     0.030 A 
HETATM    4  C   UNL     1      40.020 -12.562  -1.684  1.00  0.00     0.063 A 
HETATM    5  N   UNL     1      39.872 -11.599  -2.643  1.00  0.00    -0.277 N 
HETATM    6  H   UNL     1      39.353 -11.672  -3.510  1.00  0.00     0.189 HD
HETATM    7  N   UNL     1      40.498 -10.443  -2.372  1.00  0.00    -0.168 NA
HETATM    8  C   UNL     1      41.085 -10.665  -1.173  1.00  0.00     0.156 A 
HETATM    9  C   UNL     1      39.530 -13.866  -1.600  1.00  0.00     0.034 A 
HETATM   10  C   UNL     1      39.877 -14.602  -0.459  1.00  0.00     0.032 A 
ENDROOT
BRANCH   1  11
HETATM   11  N   UNL     1      40.963 -14.905   1.655  1.00  0.00    -0.327 N 
HETATM   12  C   UNL     1      42.106 -15.660   1.871  1.00  0.00     0.222 C 
HETATM   13  O   UNL     1      43.072 -15.746   1.122  1.00  0.00    -0.273 OA
HETATM   14  H   UNL     1      40.236 -14.980   2.355  1.00  0.00     0.169 HD
BRANCH  12  15
HETATM   15  C   UNL     1      42.024 -16.428   3.181  1.00  0.00     0.112 C 
BRANCH  15  16
HETATM   16  C   UNL     1      43.403 -16.786   3.763  1.00  0.00     0.023 C 
HETATM   17  C   UNL     1      43.587 -16.233   5.182  1.00  0.00     0.015 C 
BRANCH  16  18
HETATM   18  C   UNL     1      43.613 -18.294   3.735  1.00  0.00    -0.054 A 
HETATM   19  C   UNL     1      44.008 -19.010   4.875  1.00  0.00     0.007 A 
HETATM   20  C   UNL     1      44.189 -20.393   4.821  1.00  0.00     0.001 A 
HETATM   21  C   UNL     1      43.973 -21.080   3.628  1.00  0.00     0.000 A 
HETATM   22  C   UNL     1      43.576 -20.384   2.489  1.00  0.00     0.001 A 
HETATM   23  C   UNL     1      43.396 -19.001   2.541  1.00  0.00     0.007 A 
ENDBRANCH  16  18
ENDBRANCH  15  16
ENDBRANCH  12  15
ENDBRANCH   1  11
BRANCH   8  24
HETATM   24  C   UNL     1      41.882  -9.622  -0.512  1.00  0.00     0.270 C 
HETATM   25  N   UNL     1      41.451  -9.305   0.748  1.00  0.00    -0.365 N 
HETATM   26  H   UNL     1      40.646  -9.792   1.122  1.00  0.00     0.159 HD
HETATM   27  H   UNL     1      41.940  -8.601   1.278  1.00  0.00     0.159 HD
HETATM   28  O   UNL     1      42.854  -9.063  -1.008  1.00  0.00    -0.266 OA
ENDBRANCH   8  24
TORSDOF 5
ENDMDL
MODEL 5
REMARK VINA RESULT:      -8.5      5.852      8.791
REMARK  5 active torsions:
REMARK  status: ('A' for Active; 'I' for Inactive)
REMARK    1  A    between atoms: C_2  and  C_3 
REMARK    2  A    between atoms: C_2  and  C_9 
REMARK    3  A    between atoms: C_9  and  C_10 
REMARK       I    between atoms: C_10  and  N_11 
REMARK    4  A    between atoms: N_11  and  C_12 
REMARK    5  A    between atoms: C_19  and  C_20 
REMARK       I    between atoms: C_20  and  N_21 
ROOT
HETATM    1  C   UNL     1      43.412 -11.931   6.757  1.00  0.00     0.035 A 
HETATM    2  C   UNL     1      43.229 -10.705   7.410  1.00  0.00     0.046 A 
HETATM    3  C   UNL     1      44.350  -9.892   7.695  1.00  0.00     0.030 A 
HETATM    4  C   UNL     1      45.611 -10.333   7.317  1.00  0.00     0.063 A 
HETATM    5  N   UNL     1      46.474  -9.353   7.722  1.00  0.00    -0.277 N 
HETATM    6  H   UNL     1      47.481  -9.339   7.612  1.00  0.00     0.189 HD
HETATM    7  N   UNL     1      45.887  -8.310   8.329  1.00  0.00    -0.168 NA
HETATM    8  C   UNL     1      44.571  -8.627   8.319  1.00  0.00     0.156 A 
HETATM    9  C   UNL     1      45.830 -11.545   6.662  1.00  0.00     0.034 A 
HETATM   10  C   UNL     1      44.703 -12.332   6.389  1.00  0.00     0.032 A 
ENDROOT
BRANCH   1  11
HETATM   11  N   UNL     1      42.357 -12.812   6.430  1.00  0.00    -0.327 N 
HETATM   12  C   UNL     1      41.444 -12.692   5.393  1.00  0.00     0.222 C 
HETATM   13  O   UNL     1      41.380 -11.774   4.584  1.00  0.00    -0.273 OA
HETATM   14  H   UNL     1      42.244 -13.614   7.038  1.00  0.00     0.169 HD
BRANCH  12  15
HETATM   15  C   UNL     1      40.466 -13.857   5.377  1.00  0.00     0.112 C 
BRANCH  15  16
HETATM   16  C   UNL     1      41.093 -15.183   5.842  1.00  0.00     0.023 C 
HETATM   17  C   UNL     1      40.087 -16.056   6.604  1.00  0.00     0.015 C 
BRANCH  16  18
HETATM   18  C   UNL     1      41.677 -15.936   4.654  1.00  0.00    -0.054 A 
HETATM   19  C   UNL     1      42.907 -16.607   4.732  1.00  0.00     0.007 A 
HETATM   20  C   UNL     1      43.415 -17.294   3.627  1.00  0.00     0.001 A 
HETATM   21  C   UNL     1      42.700 -17.322   2.433  1.00  0.00     0.000 A 
HETATM   22  C   UNL     1      41.476 -16.665   2.341  1.00  0.00     0.001 A 
HETATM   23  C   UNL     1      40.966 -15.978   3.444  1.00  0.00     0.007 A 
ENDBRANCH  16  18
ENDBRANCH  15  16
ENDBRANCH  12  15
ENDBRANCH   1  11
BRANCH   8  24
HETATM   24  C   UNL     1      43.567  -7.725   8.899  1.00  0.00     0.270 C 
HETATM   25  N   UNL     1      43.124  -8.105  10.137  1.00  0.00    -0.365 N 
HETATM   26  H   UNL     1      43.504  -8.948  10.551  1.00  0.00     0.159 HD
HETATM   27  H   UNL     1      42.435  -7.545  10.614  1.00  0.00     0.159 HD
HETATM   28  O   UNL     1      43.140  -6.710   8.359  1.00  0.00    -0.266 OA
ENDBRANCH   8  24
TORSDOF 5
ENDMDL
MODEL 6
REMARK VINA RESULT:      -8.4      4.252      6.403
REMARK  5 active torsions:
REMARK  status: ('A' for Active; 'I' for Inactive)
REMARK    1  A    between atoms: C_2  and  C_3 
REMARK    2  A    between atoms: C_2  and  C_9 
REMARK    3  A    between atoms: C_9  and  C_10 
REMARK       I    between atoms: C_10  and  N_11 
REMARK    4  A    between atoms: N_11  and  C_12 
REMARK    5  A    between atoms: C_19  and  C_20 
REMARK       I    between atoms: C_20  and  N_21 
ROOT
HETATM    1  C   UNL     1      39.891 -13.086   4.363  1.00  0.00     0.035 A 
HETATM    2  C   UNL     1      39.786 -12.441   5.603  1.00  0.00     0.046 A 
HETATM    3  C   UNL     1      39.242 -11.139   5.668  1.00  0.00     0.030 A 
HETATM    4  C   UNL     1      38.823 -10.527   4.494  1.00  0.00     0.063 A 
HETATM    5  N   UNL     1      38.357  -9.299   4.871  1.00  0.00    -0.277 N 
HETATM    6  H   UNL     1      37.973  -8.577   4.272  1.00  0.00     0.189 HD
HETATM    7  N   UNL     1      38.432  -9.055   6.189  1.00  0.00    -0.168 NA
HETATM    8  C   UNL     1      38.976 -10.185   6.697  1.00  0.00     0.156 A 
HETATM    9  C   UNL     1      38.909 -11.140   3.243  1.00  0.00     0.034 A 
HETATM   10  C   UNL     1      39.450 -12.431   3.205  1.00  0.00     0.032 A 
ENDROOT
BRANCH   1  11
HETATM   11  N   UNL     1      40.420 -14.385   4.194  1.00  0.00    -0.327 N 
HETATM   12  C   UNL     1      41.644 -14.735   3.644  1.00  0.00     0.222 C 
HETATM   13  O   UNL     1      42.479 -13.968   3.182  1.00  0.00    -0.273 OA
HETATM   14  H   UNL     1      39.826 -15.148   4.492  1.00  0.00     0.169 HD
BRANCH  12  15
HETATM   15  C   UNL     1      41.843 -16.244   3.649  1.00  0.00     0.112 C 
BRANCH  15  16
HETATM   16  C   UNL     1      43.299 -16.663   3.916  1.00  0.00     0.023 C 
HETATM   17  C   UNL     1      43.737 -16.330   5.349  1.00  0.00     0.015 C 
BRANCH  16  18
HETATM   18  C   UNL     1      43.485 -18.145   3.620  1.00  0.00    -0.054 A 
HETATM   19  C   UNL     1      43.190 -18.693   2.363  1.00  0.00     0.007 A 
HETATM   20  C   UNL     1      43.375 -20.056   2.119  1.00  0.00     0.001 A 
HETATM   21  C   UNL     1      43.859 -20.887   3.126  1.00  0.00     0.000 A 
HETATM   22  C   UNL     1      44.161 -20.357   4.378  1.00  0.00     0.001 A 
HETATM   23  C   UNL     1      43.976 -18.994   4.624  1.00  0.00     0.007 A 
ENDBRANCH  16  18
ENDBRANCH  15  16
ENDBRANCH  12  15
ENDBRANCH   1  11
BRANCH   8  24
HETATM   24  C   UNL     1      39.228 -10.326   8.138  1.00  0.00     0.270 C 
HETATM   25  N   UNL     1      40.405  -9.768   8.557  1.00  0.00    -0.365 N 
HETATM   26  H   UNL     1      40.997  -9.314   7.872  1.00  0.00     0.159 HD
HETATM   27  H   UNL     1      40.660  -9.815   9.531  1.00  0.00     0.159 HD
HETATM   28  O   UNL     1      38.476 -10.884   8.930  1.00  0.00    -0.266 OA
ENDBRANCH   8  24
TORSDOF 5
ENDMDL
MODEL 7
REMARK VINA RESULT:      -8.4      5.813      8.930
REMARK  5 active torsions:
REMARK  status: ('A' for Active; 'I' for Inactive)
REMARK    1  A    between atoms: C_2  and  C_3 
REMARK    2  A    between atoms: C_2  and  C_9 
REMARK    3  A    between atoms: C_9  and  C_10 
REMARK       I    between atoms: C_10  and  N_11 
REMARK    4  A    between atoms: N_11  and  C_12 
REMARK    5  A    between atoms: C_19  and  C_20 
REMARK       I    between atoms: C_20  and  N_21 
ROOT
HETATM    1  C   UNL     1      44.146 -11.740   6.340  1.00  0.00     0.035 A 
HETATM    2  C   UNL     1      43.340 -11.154   7.325  1.00  0.00     0.046 A 
HETATM    3  C   UNL     1      43.935 -10.363   8.334  1.00  0.00     0.030 A 
HETATM    4  C   UNL     1      45.312 -10.187   8.324  1.00  0.00     0.063 A 
HETATM    5  N   UNL     1      45.585  -9.394   9.402  1.00  0.00    -0.277 N 
HETATM    6  H   UNL     1      46.493  -9.063   9.707  1.00  0.00     0.189 HD
HETATM    7  N   UNL     1      44.506  -9.034  10.116  1.00  0.00    -0.168 NA
HETATM    8  C   UNL     1      43.476  -9.624   9.467  1.00  0.00     0.156 A 
HETATM    9  C   UNL     1      46.145 -10.753   7.357  1.00  0.00     0.034 A 
HETATM   10  C   UNL     1      45.531 -11.531   6.367  1.00  0.00     0.032 A 
ENDROOT
BRANCH   1  11
HETATM   11  N   UNL     1      43.646 -12.546   5.293  1.00  0.00    -0.327 N 
HETATM   12  C   UNL     1      43.564 -12.229   3.946  1.00  0.00     0.222 C 
HETATM   13  O   UNL     1      43.895 -11.169   3.428  1.00  0.00    -0.273 OA
HETATM   14  H   UNL     1      43.288 -13.453   5.564  1.00  0.00     0.169 HD
BRANCH  12  15
HETATM   15  C   UNL     1      42.970 -13.374   3.140  1.00  0.00     0.112 C 
BRANCH  15  16
HETATM   16  C   UNL     1      42.252 -14.421   4.011  1.00  0.00     0.023 C 
HETATM   17  C   UNL     1      40.731 -14.382   3.815  1.00  0.00     0.015 C 
BRANCH  16  18
HETATM   18  C   UNL     1      42.803 -15.811   3.726  1.00  0.00    -0.054 A 
HETATM   19  C   UNL     1      42.605 -16.450   2.492  1.00  0.00     0.007 A 
HETATM   20  C   UNL     1      43.126 -17.724   2.258  1.00  0.00     0.001 A 
HETATM   21  C   UNL     1      43.855 -18.375   3.251  1.00  0.00     0.000 A 
HETATM   22  C   UNL     1      44.064 -17.752   4.479  1.00  0.00     0.001 A 
HETATM   23  C   UNL     1      43.543 -16.478   4.715  1.00  0.00     0.007 A 
ENDBRANCH  16  18
ENDBRANCH  15  16
ENDBRANCH  12  15
ENDBRANCH   1  11
BRANCH   8  24
HETATM   24  C   UNL     1      42.092  -9.471   9.938  1.00  0.00     0.270 C 
HETATM   25  N   UNL     1      41.829 -10.116  11.116  1.00  0.00    -0.365 N 
HETATM   26  H   UNL     1      42.577 -10.632  11.564  1.00  0.00     0.159 HD
HETATM   27  H   UNL     1      40.906 -10.064  11.517  1.00  0.00     0.159 HD
HETATM   28  O   UNL     1      41.221  -8.830   9.360  1.00  0.00    -0.266 OA
ENDBRANCH   8  24
TORSDOF 5
ENDMDL
MODEL 8
REMARK VINA RESULT:      -8.3      2.819      7.852
REMARK  5 active torsions:
REMARK  status: ('A' for Active; 'I' for Inactive)
REMARK    1  A    between atoms: C_2  and  C_3 
REMARK    2  A    between atoms: C_2  and  C_9 
REMARK    3  A    between atoms: C_9  and  C_10 
REMARK       I    between atoms: C_10  and  N_11 
REMARK    4  A    between atoms: N_11  and  C_12 
REMARK    5  A    between atoms: C_19  and  C_20 
REMARK       I    between atoms: C_20  and  N_21 
ROOT
HETATM    1  C   UNL     1      42.828 -15.605   2.477  1.00  0.00     0.035 A 
HETATM    2  C   UNL     1      42.962 -16.966   2.169  1.00  0.00     0.046 A 
HETATM    3  C   UNL     1      43.409 -17.865   3.163  1.00  0.00     0.030 A 
HETATM    4  C   UNL     1      43.707 -17.375   4.427  1.00  0.00     0.063 A 
HETATM    5  N   UNL     1      44.108 -18.461   5.153  1.00  0.00    -0.277 N 
HETATM    6  H   UNL     1      44.404 -18.477   6.122  1.00  0.00     0.189 HD
HETATM    7  N   UNL     1      44.097 -19.620   4.474  1.00  0.00    -0.168 NA
HETATM    8  C   UNL     1      43.665 -19.268   3.241  1.00  0.00     0.156 A 
HETATM    9  C   UNL     1      43.581 -16.028   4.771  1.00  0.00     0.034 A 
HETATM   10  C   UNL     1      43.135 -15.156   3.769  1.00  0.00     0.032 A 
ENDROOT
BRANCH   1  11
HETATM   11  N   UNL     1      42.391 -14.629   1.554  1.00  0.00    -0.327 N 
HETATM   12  C   UNL     1      41.120 -14.088   1.433  1.00  0.00     0.222 C 
HETATM   13  O   UNL     1      40.137 -14.385   2.103  1.00  0.00    -0.273 OA
HETATM   14  H   UNL     1      43.082 -14.304   0.891  1.00  0.00     0.169 HD
BRANCH  12  15
HETATM   15  C   UNL     1      41.059 -13.058   0.315  1.00  0.00     0.112 C 
BRANCH  15  16
HETATM   16  C   UNL     1      39.644 -12.501   0.079  1.00  0.00     0.023 C 
HETATM   17  C   UNL     1      39.648 -10.975  -0.077  1.00  0.00     0.015 C 
BRANCH  16  18
HETATM   18  C   UNL     1      39.008 -13.171  -1.132  1.00  0.00    -0.054 A 
HETATM   19  C   UNL     1      39.571 -14.309  -1.731  1.00  0.00     0.007 A 
HETATM   20  C   UNL     1      38.963 -14.904  -2.838  1.00  0.00     0.001 A 
HETATM   21  C   UNL     1      37.785 -14.374  -3.359  1.00  0.00     0.000 A 
HETATM   22  C   UNL     1      37.213 -13.248  -2.772  1.00  0.00     0.001 A 
HETATM   23  C   UNL     1      37.819 -12.651  -1.665  1.00  0.00     0.007 A 
ENDBRANCH  16  18
ENDBRANCH  15  16
ENDBRANCH  12  15
ENDBRANCH   1  11
BRANCH   8  24
HETATM   24  C   UNL     1      43.509 -20.269   2.176  1.00  0.00     0.270 C 
HETATM   25  N   UNL     1      42.231 -20.382   1.699  1.00  0.00    -0.365 N 
HETATM   26  H   UNL     1      41.511 -19.789   2.096  1.00  0.00     0.159 HD
HETATM   27  H   UNL     1      42.029 -21.042   0.965  1.00  0.00     0.159 HD
HETATM   28  O   UNL     1      44.415 -20.961   1.725  1.00  0.00    -0.266 OA
ENDBRANCH   8  24
TORSDOF 5
ENDMDL
MODEL 9
REMARK VINA RESULT:      -8.2      4.171      6.480
REMARK  5 active torsions:
REMARK  status: ('A' for Active; 'I' for Inactive)
REMARK    1  A    between atoms: C_2  and  C_3 
REMARK    2  A    between atoms: C_2  and  C_9 
REMARK    3  A    between atoms: C_9  and  C_10 
REMARK       I    between atoms: C_10  and  N_11 
REMARK    4  A    between atoms: N_11  and  C_12 
REMARK    5  A    between atoms: C_19  and  C_20 
REMARK       I    between atoms: C_20  and  N_21 
ROOT
HETATM    1  C   UNL     1      41.973 -13.317   4.778  1.00  0.00     0.035 A 
HETATM    2  C   UNL     1      40.979 -12.637   5.495  1.00  0.00     0.046 A 
HETATM    3  C   UNL     1      41.274 -11.386   6.082  1.00  0.00     0.030 A 
HETATM    4  C   UNL     1      42.550 -10.859   5.932  1.00  0.00     0.063 A 
HETATM    5  N   UNL     1      42.531  -9.666   6.599  1.00  0.00    -0.277 N 
HETATM    6  H   UNL     1      43.295  -9.008   6.701  1.00  0.00     0.189 HD
HETATM    7  N   UNL     1      41.354  -9.366   7.170  1.00  0.00    -0.168 NA
HETATM    8  C   UNL     1      40.564 -10.420   6.858  1.00  0.00     0.156 A 
HETATM    9  C   UNL     1      43.563 -11.505   5.221  1.00  0.00     0.034 A 
HETATM   10  C   UNL     1      43.245 -12.743   4.648  1.00  0.00     0.032 A 
ENDROOT
BRANCH   1  11
HETATM   11  N   UNL     1      41.776 -14.570   4.157  1.00  0.00    -0.327 N 
HETATM   12  C   UNL     1      41.222 -14.820   2.910  1.00  0.00     0.222 C 
HETATM   13  O   UNL     1      40.782 -13.983   2.131  1.00  0.00    -0.273 OA
HETATM   14  H   UNL     1      42.053 -15.381   4.696  1.00  0.00     0.169 HD
BRANCH  12  15
HETATM   15  C   UNL     1      41.193 -16.310   2.604  1.00  0.00     0.112 C 
BRANCH  15  16
HETATM   16  C   UNL     1      42.481 -16.818   1.932  1.00  0.00     0.023 C 
HETATM   17  C   UNL     1      43.499 -15.690   1.722  1.00  0.00     0.015 C 
BRANCH  16  18
HETATM   18  C   UNL     1      43.087 -17.954   2.745  1.00  0.00    -0.054 A 
HETATM   19  C   UNL     1      43.574 -17.758   4.046  1.00  0.00     0.007 A 
HETATM   20  C   UNL     1      44.120 -18.821   4.769  1.00  0.00     0.001 A 
HETATM   21  C   UNL     1      44.183 -20.093   4.204  1.00  0.00     0.000 A 
HETATM   22  C   UNL     1      43.699 -20.303   2.915  1.00  0.00     0.001 A 
HETATM   23  C   UNL     1      43.153 -19.242   2.190  1.00  0.00     0.007 A 
ENDBRANCH  16  18
ENDBRANCH  15  16
ENDBRANCH  12  15
ENDBRANCH   1  11
BRANCH   8  24
HETATM   24  C   UNL     1      39.165 -10.480   7.304  1.00  0.00     0.270 C 
HETATM   25  N   UNL     1      39.016 -10.682   8.649  1.00  0.00    -0.365 N 
HETATM   26  H   UNL     1      39.847 -10.770   9.221  1.00  0.00     0.159 HD
HETATM   27  H   UNL     1      38.091 -10.734   9.046  1.00  0.00     0.159 HD
HETATM   28  O   UNL     1      38.190 -10.363   6.570  1.00  0.00    -0.266 OA
ENDBRANCH   8  24
TORSDOF 5
ENDMDL
MODEL 10
REMARK VINA RESULT:      -8.2      1.636      2.761
REMARK  5 active torsions:
REMARK  status: ('A' for Active; 'I' for Inactive)
REMARK    1  A    between atoms: C_2  and  C_3 
REMARK    2  A    between atoms: C_2  and  C_9 
REMARK    3  A    between atoms: C_9  and  C_10 
REMARK       I    between atoms: C_10  and  N_11 
REMARK    4  A    between atoms: N_11  and  C_12 
REMARK    5  A    between atoms: C_19  and  C_20 
REMARK       I    between atoms: C_20  and  N_21 
ROOT
HETATM    1  C   UNL     1      41.278 -13.444   0.799  1.00  0.00     0.035 A 
HETATM    2  C   UNL     1      40.510 -13.608  -0.362  1.00  0.00     0.046 A 
HETATM    3  C   UNL     1      39.610 -12.590  -0.752  1.00  0.00     0.030 A 
HETATM    4  C   UNL     1      39.509 -11.447   0.030  1.00  0.00     0.063 A 
HETATM    5  N   UNL     1      38.575 -10.665  -0.589  1.00  0.00    -0.277 N 
HETATM    6  H   UNL     1      38.245  -9.754  -0.294  1.00  0.00     0.189 HD
HETATM    7  N   UNL     1      38.058 -11.195  -1.709  1.00  0.00    -0.168 NA
HETATM    8  C   UNL     1      38.690 -12.386  -1.825  1.00  0.00     0.156 A 
HETATM    9  C   UNL     1      40.260 -11.249   1.190  1.00  0.00     0.034 A 
HETATM   10  C   UNL     1      41.146 -12.271   1.555  1.00  0.00     0.032 A 
ENDROOT
BRANCH   1  11
HETATM   11  N   UNL     1      42.202 -14.403   1.272  1.00  0.00    -0.327 N 
HETATM   12  C   UNL     1      41.930 -15.670   1.765  1.00  0.00     0.222 C 
HETATM   13  O   UNL     1      40.821 -16.175   1.898  1.00  0.00    -0.273 OA
HETATM   14  H   UNL     1      43.174 -14.121   1.268  1.00  0.00     0.169 HD
BRANCH  12  15
HETATM   15  C   UNL     1      43.205 -16.395   2.167  1.00  0.00     0.112 C 
BRANCH  15  16
HETATM   16  C   UNL     1      42.961 -17.554   3.150  1.00  0.00     0.023 C 
HETATM   17  C   UNL     1      43.894 -18.741   2.878  1.00  0.00     0.015 C 
BRANCH  16  18
HETATM   18  C   UNL     1      43.103 -17.067   4.585  1.00  0.00    -0.054 A 
HETATM   19  C   UNL     1      44.350 -16.999   5.226  1.00  0.00     0.007 A 
HETATM   20  C   UNL     1      44.451 -16.544   6.543  1.00  0.00     0.001 A 
HETATM   21  C   UNL     1      43.309 -16.147   7.234  1.00  0.00     0.000 A 
HETATM   22  C   UNL     1      42.065 -16.203   6.610  1.00  0.00     0.001 A 
HETATM   23  C   UNL     1      41.962 -16.659   5.294  1.00  0.00     0.007 A 
ENDBRANCH  16  18
ENDBRANCH  15  16
ENDBRANCH  12  15
ENDBRANCH   1  11
BRANCH   8  24
HETATM   24  C   UNL     1      38.403 -13.293  -2.946  1.00  0.00     0.270 C 
HETATM   25  N   UNL     1      37.077 -13.370  -3.275  1.00  0.00    -0.365 N 
HETATM   26  H   UNL     1      36.412 -12.818  -2.746  1.00  0.00     0.159 HD
HETATM   27  H   UNL     1      36.786 -13.966  -4.034  1.00  0.00     0.159 HD
HETATM   28  O   UNL     1      39.246 -13.939  -3.559  1.00  0.00    -0.266 OA
ENDBRANCH   8  24
TORSDOF 5
ENDMDL
