MODEL 1
REMARK VINA RESULT:      -9.8      0.000      0.000
REMARK  8 active torsions:
REMARK  status: ('A' for Active; 'I' for Inactive)
REMARK    1  A    between atoms: C_2  and  S_3 
REMARK    2  A    between atoms: S_3  and  C_4 
REMARK    3  A    between atoms: C_7  and  C_8 
REMARK    4  A    between atoms: C_8  and  C_9 
REMARK       I    between atoms: C_9  and  N_10 
REMARK    5  A    between atoms: N_10  and  C_11 
REMARK    6  A    between atoms: N_17  and  C_19 
REMARK    7  A    between atoms: C_19  and  C_20 
REMARK    8  A    between atoms: C_27  and  C_28 
REMARK       I    between atoms: C_28  and  N_29 
ROOT
HETATM    1  C   UNL     1      43.650 -12.552   6.640  1.00  0.00     0.093 A 
HETATM    2  S   UNL     1      43.445 -14.150   7.193  1.00  0.00    -0.074 SA
HETATM    3  C   UNL     1      42.614 -14.613   5.799  1.00  0.00     0.018 A 
HETATM    4  C   UNL     1      42.442 -13.567   4.916  1.00  0.00    -0.023 A 
HETATM    5  C   UNL     1      41.756 -13.773   3.590  1.00  0.00     0.068 C 
HETATM    6  C   UNL     1      41.045 -15.139   3.504  1.00  0.00     0.240 C 
HETATM    7  N   UNL     1      41.867 -16.269   4.118  1.00  0.00    -0.063 N 
HETATM    8  H   UNL     1      41.283 -17.112   4.077  1.00  0.00     0.280 HD
HETATM    9  C   UNL     1      42.132 -16.005   5.590  1.00  0.00     0.282 C 
HETATM   10  C   UNL     1      43.018 -12.336   5.419  1.00  0.00     0.073 A 
ENDROOT
BRANCH   1  11
HETATM   11  N   UNL     1      44.432 -11.652   7.352  1.00  0.00    -0.320 N 
HETATM   12  C   UNL     1      45.666 -11.137   6.972  1.00  0.00     0.226 C 
HETATM   13  O   UNL     1      46.340 -11.482   6.006  1.00  0.00    -0.273 OA
HETATM   14  H   UNL     1      44.059 -11.339   8.244  1.00  0.00     0.169 HD
BRANCH  12  15
HETATM   15  C   UNL     1      46.156 -10.044   7.909  1.00  0.00     0.141 C 
BRANCH  15  16
HETATM   16  C   UNL     1      45.085  -9.528   8.839  1.00  0.00    -0.049 A 
HETATM   17  C   UNL     1      45.014  -9.979  10.163  1.00  0.00     0.009 A 
HETATM   18  C   UNL     1      44.050  -9.470  11.038  1.00  0.00     0.019 A 
HETATM   19  C   UNL     1      43.151  -8.491  10.610  1.00  0.00     0.001 A 
HETATM   20  C   UNL     1      43.210  -8.047   9.286  1.00  0.00     0.019 A 
HETATM   21  C   UNL     1      44.174  -8.554   8.410  1.00  0.00     0.009 A 
BRANCH  19  22
HETATM   22  S   UNL     1      41.930  -7.883  11.758  1.00  0.00    -0.126 SA
BRANCH  22  23
HETATM   23  C   UNL     1      42.667  -8.357  13.376  1.00  0.00     0.044 C 
HETATM   24  C   UNL     1      41.614  -8.956  14.304  1.00  0.00     0.021 C 
HETATM   25  C   UNL     1      43.282  -7.107  14.002  1.00  0.00     0.021 C 
ENDBRANCH  22  23
ENDBRANCH  19  22
ENDBRANCH  15  16
ENDBRANCH  12  15
ENDBRANCH   1  11
BRANCH  10  26
HETATM   26  C   UNL     1      42.988 -11.065   4.696  1.00  0.00     0.252 C 
HETATM   27  N   UNL     1      42.104 -10.128   5.155  1.00  0.00    -0.366 N 
HETATM   28  H   UNL     1      41.280 -10.420   5.668  1.00  0.00     0.159 HD
HETATM   29  H   UNL     1      41.978  -9.328   4.544  1.00  0.00     0.159 HD
HETATM   30  O   UNL     1      43.670 -10.858   3.700  1.00  0.00    -0.268 OA
ENDBRANCH  10  26
BRANCH   7  31
HETATM   31  C   UNL     1      43.128 -16.616   3.356  1.00  0.00     0.273 C 
BRANCH  31  32
HETATM   32  C   UNL     1      43.394 -18.096   3.330  1.00  0.00    -0.033 A 
HETATM   33  C   UNL     1      43.070 -18.865   2.202  1.00  0.00     0.009 A 
HETATM   34  C   UNL     1      43.298 -20.242   2.197  1.00  0.00     0.001 A 
HETATM   35  C   UNL     1      43.853 -20.863   3.314  1.00  0.00     0.000 A 
HETATM   36  C   UNL     1      44.185 -20.110   4.438  1.00  0.00     0.001 A 
HETATM   37  C   UNL     1      43.956 -18.734   4.448  1.00  0.00     0.009 A 
ENDBRANCH  31  32
ENDBRANCH   7  31
TORSDOF 8
ENDMDL
MODEL 2
REMARK VINA RESULT:      -9.3      1.538      1.957
REMARK  8 active torsions:
REMARK  status: ('A' for Active; 'I' for Inactive)
REMARK    1  A    between atoms: C_2  and  S_3 
REMARK    2  A    between atoms: S_3  and  C_4 
REMARK    3  A    between atoms: C_7  and  C_8 
REMARK    4  A    between atoms: C_8  and  C_9 
REMARK       I    between atoms: C_9  and  N_10 
REMARK    5  A    between atoms: N_10  and  C_11 
REMARK    6  A    between atoms: N_17  and  C_19 
REMARK    7  A    between atoms: C_19  and  C_20 
REMARK    8  A    between atoms: C_27  and  C_28 
REMARK       I    between atoms: C_28  and  N_29 
ROOT
HETATM    1  C   UNL     1      42.384 -12.359   5.853  1.00  0.00     0.093 A 
HETATM    2  S   UNL     1      41.655 -13.802   6.388  1.00  0.00    -0.074 SA
HETATM    3  C   UNL     1      41.899 -14.572   4.906  1.00  0.00     0.018 A 
HETATM    4  C   UNL     1      42.494 -13.746   3.975  1.00  0.00    -0.023 A 
HETATM    5  C   UNL     1      42.835 -14.247   2.595  1.00  0.00     0.068 C 
HETATM    6  C   UNL     1      42.183 -15.612   2.290  1.00  0.00     0.240 C 
HETATM    7  N   UNL     1      42.237 -16.567   3.480  1.00  0.00    -0.063 N 
HETATM    8  H   UNL     1      41.720 -17.409   3.203  1.00  0.00     0.280 HD
HETATM    9  C   UNL     1      41.496 -15.985   4.672  1.00  0.00     0.282 C 
HETATM   10  C   UNL     1      42.751 -12.425   4.512  1.00  0.00     0.073 A 
ENDROOT
BRANCH   1  11
HETATM   11  N   UNL     1      42.612 -11.312   6.735  1.00  0.00    -0.320 N 
HETATM   12  C   UNL     1      43.754 -11.097   7.498  1.00  0.00     0.226 C 
HETATM   13  O   UNL     1      44.708 -11.860   7.622  1.00  0.00    -0.273 OA
HETATM   14  H   UNL     1      41.863 -10.632   6.831  1.00  0.00     0.169 HD
BRANCH  12  15
HETATM   15  C   UNL     1      43.732  -9.758   8.220  1.00  0.00     0.141 C 
BRANCH  15  16
HETATM   16  C   UNL     1      42.865  -9.760   9.455  1.00  0.00    -0.049 A 
HETATM   17  C   UNL     1      43.387 -10.165  10.691  1.00  0.00     0.009 A 
HETATM   18  C   UNL     1      42.598 -10.126  11.844  1.00  0.00     0.019 A 
HETATM   19  C   UNL     1      41.281  -9.666  11.787  1.00  0.00     0.001 A 
HETATM   20  C   UNL     1      40.752  -9.272  10.554  1.00  0.00     0.019 A 
HETATM   21  C   UNL     1      41.539  -9.310   9.399  1.00  0.00     0.009 A 
BRANCH  19  22
HETATM   22  S   UNL     1      40.310  -9.647  13.282  1.00  0.00    -0.126 SA
BRANCH  22  23
HETATM   23  C   UNL     1      40.771  -8.021  14.008  1.00  0.00     0.044 C 
HETATM   24  C   UNL     1      41.120  -7.013  12.917  1.00  0.00     0.021 C 
HETATM   25  C   UNL     1      41.964  -8.236  14.937  1.00  0.00     0.021 C 
ENDBRANCH  22  23
ENDBRANCH  19  22
ENDBRANCH  15  16
ENDBRANCH  12  15
ENDBRANCH   1  11
BRANCH  10  26
HETATM   26  C   UNL     1      43.375 -11.342   3.752  1.00  0.00     0.252 C 
HETATM   27  N   UNL     1      42.526 -10.500   3.090  1.00  0.00    -0.366 N 
HETATM   28  H   UNL     1      41.606 -10.825   2.815  1.00  0.00     0.159 HD
HETATM   29  H   UNL     1      42.978  -9.867   2.438  1.00  0.00     0.159 HD
HETATM   30  O   UNL     1      44.590 -11.217   3.660  1.00  0.00    -0.268 OA
ENDBRANCH  10  26
BRANCH   7  31
HETATM   31  C   UNL     1      43.625 -17.047   3.841  1.00  0.00     0.273 C 
BRANCH  31  32
HETATM   32  C   UNL     1      43.747 -18.546   3.784  1.00  0.00    -0.033 A 
HETATM   33  C   UNL     1      44.064 -19.285   4.933  1.00  0.00     0.009 A 
HETATM   34  C   UNL     1      44.199 -20.672   4.866  1.00  0.00     0.001 A 
HETATM   35  C   UNL     1      44.015 -21.335   3.654  1.00  0.00     0.000 A 
HETATM   36  C   UNL     1      43.694 -20.613   2.507  1.00  0.00     0.001 A 
HETATM   37  C   UNL     1      43.561 -19.226   2.569  1.00  0.00     0.009 A 
ENDBRANCH  31  32
ENDBRANCH   7  31
TORSDOF 8
ENDMDL
MODEL 3
REMARK VINA RESULT:      -8.5      6.927      8.809
REMARK  8 active torsions:
REMARK  status: ('A' for Active; 'I' for Inactive)
REMARK    1  A    between atoms: C_2  and  S_3 
REMARK    2  A    between atoms: S_3  and  C_4 
REMARK    3  A    between atoms: C_7  and  C_8 
REMARK    4  A    between atoms: C_8  and  C_9 
REMARK       I    between atoms: C_9  and  N_10 
REMARK    5  A    between atoms: N_10  and  C_11 
REMARK    6  A    between atoms: N_17  and  C_19 
REMARK    7  A    between atoms: C_19  and  C_20 
REMARK    8  A    between atoms: C_27  and  C_28 
REMARK       I    between atoms: C_28  and  N_29 
ROOT
HETATM    1  C   UNL     1      40.670 -11.946  -0.784  1.00  0.00     0.093 A 
HETATM    2  S   UNL     1      41.390 -11.752   0.747  1.00  0.00    -0.074 SA
HETATM    3  C   UNL     1      40.999 -13.323   1.222  1.00  0.00     0.018 A 
HETATM    4  C   UNL     1      40.287 -14.004   0.256  1.00  0.00    -0.023 A 
HETATM    5  C   UNL     1      39.868 -15.437   0.463  1.00  0.00     0.068 C 
HETATM    6  C   UNL     1      40.054 -15.896   1.923  1.00  0.00     0.240 C 
HETATM    7  N   UNL     1      41.356 -15.389   2.537  1.00  0.00    -0.063 N 
HETATM    8  H   UNL     1      41.350 -15.684   3.520  1.00  0.00     0.280 HD
HETATM    9  C   UNL     1      41.391 -13.871   2.548  1.00  0.00     0.282 C 
HETATM   10  C   UNL     1      40.056 -13.187  -0.919  1.00  0.00     0.073 A 
ENDROOT
BRANCH   1  11
HETATM   11  N   UNL     1      40.791 -10.959  -1.754  1.00  0.00    -0.320 N 
HETATM   12  C   UNL     1      40.137  -9.733  -1.782  1.00  0.00     0.226 C 
HETATM   13  O   UNL     1      39.244  -9.360  -1.027  1.00  0.00    -0.273 OA
HETATM   14  H   UNL     1      41.425 -11.158  -2.522  1.00  0.00     0.169 HD
BRANCH  12  15
HETATM   15  C   UNL     1      40.639  -8.829  -2.898  1.00  0.00     0.141 C 
BRANCH  15  16
HETATM   16  C   UNL     1      41.492  -7.687  -2.404  1.00  0.00    -0.049 A 
HETATM   17  C   UNL     1      42.781  -7.923  -1.909  1.00  0.00     0.009 A 
HETATM   18  C   UNL     1      43.589  -6.862  -1.492  1.00  0.00     0.019 A 
HETATM   19  C   UNL     1      43.130  -5.545  -1.577  1.00  0.00     0.001 A 
HETATM   20  C   UNL     1      41.840  -5.306  -2.058  1.00  0.00     0.019 A 
HETATM   21  C   UNL     1      41.030  -6.366  -2.477  1.00  0.00     0.009 A 
BRANCH  19  22
HETATM   22  S   UNL     1      44.192  -4.226  -1.019  1.00  0.00    -0.126 SA
BRANCH  22  23
HETATM   23  C   UNL     1      44.378  -4.625   0.767  1.00  0.00     0.044 C 
HETATM   24  C   UNL     1      43.038  -4.533   1.493  1.00  0.00     0.021 C 
HETATM   25  C   UNL     1      45.380  -3.643   1.372  1.00  0.00     0.021 C 
ENDBRANCH  22  23
ENDBRANCH  19  22
ENDBRANCH  15  16
ENDBRANCH  12  15
ENDBRANCH   1  11
BRANCH  10  26
HETATM   26  C   UNL     1      39.331 -13.648  -2.103  1.00  0.00     0.252 C 
HETATM   27  N   UNL     1      37.988 -13.857  -1.948  1.00  0.00    -0.366 N 
HETATM   28  H   UNL     1      37.614 -14.069  -1.030  1.00  0.00     0.159 HD
HETATM   29  H   UNL     1      37.540 -14.333  -2.723  1.00  0.00     0.159 HD
HETATM   30  O   UNL     1      39.890 -13.889  -3.166  1.00  0.00    -0.268 OA
ENDBRANCH  10  26
BRANCH   7  31
HETATM   31  C   UNL     1      42.609 -15.993   1.943  1.00  0.00     0.273 C 
BRANCH  31  32
HETATM   32  C   UNL     1      43.166 -17.107   2.787  1.00  0.00    -0.033 A 
HETATM   33  C   UNL     1      43.272 -18.410   2.278  1.00  0.00     0.009 A 
HETATM   34  C   UNL     1      43.766 -19.442   3.077  1.00  0.00     0.001 A 
HETATM   35  C   UNL     1      44.162 -19.183   4.388  1.00  0.00     0.000 A 
HETATM   36  C   UNL     1      44.067 -17.893   4.903  1.00  0.00     0.001 A 
HETATM   37  C   UNL     1      43.571 -16.859   4.109  1.00  0.00     0.009 A 
ENDBRANCH  31  32
ENDBRANCH   7  31
TORSDOF 8
ENDMDL
MODEL 4
REMARK VINA RESULT:      -8.5      2.343      3.643
REMARK  8 active torsions:
REMARK  status: ('A' for Active; 'I' for Inactive)
REMARK    1  A    between atoms: C_2  and  S_3 
REMARK    2  A    between atoms: S_3  and  C_4 
REMARK    3  A    between atoms: C_7  and  C_8 
REMARK    4  A    between atoms: C_8  and  C_9 
REMARK       I    between atoms: C_9  and  N_10 
REMARK    5  A    between atoms: N_10  and  C_11 
REMARK    6  A    between atoms: N_17  and  C_19 
REMARK    7  A    between atoms: C_19  and  C_20 
REMARK    8  A    between atoms: C_27  and  C_28 
REMARK       I    between atoms: C_28  and  N_29 
ROOT
HETATM    1  C   UNL     1      40.781 -12.566   4.198  1.00  0.00     0.093 A 
HETATM    2  S   UNL     1      40.081 -14.118   4.207  1.00  0.00    -0.074 SA
HETATM    3  C   UNL     1      41.318 -14.771   3.263  1.00  0.00     0.018 A 
HETATM    4  C   UNL     1      42.253 -13.826   2.892  1.00  0.00    -0.023 A 
HETATM    5  C   UNL     1      43.462 -14.206   2.076  1.00  0.00     0.068 C 
HETATM    6  C   UNL     1      43.348 -15.627   1.487  1.00  0.00     0.240 C 
HETATM    7  N   UNL     1      42.755 -16.627   2.476  1.00  0.00    -0.063 N 
HETATM    8  H   UNL     1      42.655 -17.514   1.971  1.00  0.00     0.280 HD
HETATM    9  C   UNL     1      41.353 -16.210   2.888  1.00  0.00     0.282 C 
HETATM   10  C   UNL     1      41.926 -12.512   3.410  1.00  0.00     0.073 A 
ENDROOT
BRANCH   1  11
HETATM   11  N   UNL     1      40.247 -11.545   4.974  1.00  0.00    -0.320 N 
HETATM   12  C   UNL     1      39.490 -10.467   4.528  1.00  0.00     0.226 C 
HETATM   13  O   UNL     1      39.267 -10.159   3.361  1.00  0.00    -0.273 OA
HETATM   14  H   UNL     1      40.432 -11.593   5.971  1.00  0.00     0.169 HD
BRANCH  12  15
HETATM   15  C   UNL     1      38.924  -9.639   5.672  1.00  0.00     0.141 C 
BRANCH  15  16
HETATM   16  C   UNL     1      39.973  -9.186   6.659  1.00  0.00    -0.049 A 
HETATM   17  C   UNL     1      39.864  -9.519   8.015  1.00  0.00     0.009 A 
HETATM   18  C   UNL     1      40.856  -9.137   8.923  1.00  0.00     0.019 A 
HETATM   19  C   UNL     1      41.980  -8.432   8.490  1.00  0.00     0.001 A 
HETATM   20  C   UNL     1      42.086  -8.086   7.140  1.00  0.00     0.019 A 
HETATM   21  C   UNL     1      41.096  -8.468   6.229  1.00  0.00     0.009 A 
BRANCH  19  22
HETATM   22  S   UNL     1      43.212  -7.955   9.688  1.00  0.00    -0.126 SA
BRANCH  22  23
HETATM   23  C   UNL     1      43.798  -9.590  10.293  1.00  0.00     0.044 C 
HETATM   24  C   UNL     1      43.463  -9.780  11.770  1.00  0.00     0.021 C 
HETATM   25  C   UNL     1      45.308  -9.664  10.075  1.00  0.00     0.021 C 
ENDBRANCH  22  23
ENDBRANCH  19  22
ENDBRANCH  15  16
ENDBRANCH  12  15
ENDBRANCH   1  11
BRANCH  10  26
HETATM   26  C   UNL     1      42.739 -11.318   3.178  1.00  0.00     0.252 C 
HETATM   27  N   UNL     1      42.246 -10.416   2.277  1.00  0.00    -0.366 N 
HETATM   28  H   UNL     1      41.609 -10.724   1.551  1.00  0.00     0.159 HD
HETATM   29  H   UNL     1      42.897  -9.687   2.006  1.00  0.00     0.159 HD
HETATM   30  O   UNL     1      43.827 -11.149   3.712  1.00  0.00    -0.268 OA
ENDBRANCH  10  26
BRANCH   7  31
HETATM   31  C   UNL     1      43.639 -16.938   3.664  1.00  0.00     0.273 C 
BRANCH  31  32
HETATM   32  C   UNL     1      43.764 -18.416   3.915  1.00  0.00    -0.033 A 
HETATM   33  C   UNL     1      43.724 -19.331   2.853  1.00  0.00     0.009 A 
HETATM   34  C   UNL     1      43.816 -20.702   3.098  1.00  0.00     0.001 A 
HETATM   35  C   UNL     1      43.952 -21.171   4.403  1.00  0.00     0.000 A 
HETATM   36  C   UNL     1      43.999 -20.273   5.465  1.00  0.00     0.001 A 
HETATM   37  C   UNL     1      43.904 -18.902   5.225  1.00  0.00     0.009 A 
ENDBRANCH  31  32
ENDBRANCH   7  31
TORSDOF 8
ENDMDL
MODEL 5
REMARK VINA RESULT:      -8.4      2.551      3.559
REMARK  8 active torsions:
REMARK  status: ('A' for Active; 'I' for Inactive)
REMARK    1  A    between atoms: C_2  and  S_3 
REMARK    2  A    between atoms: S_3  and  C_4 
REMARK    3  A    between atoms: C_7  and  C_8 
REMARK    4  A    between atoms: C_8  and  C_9 
REMARK       I    between atoms: C_9  and  N_10 
REMARK    5  A    between atoms: N_10  and  C_11 
REMARK    6  A    between atoms: N_17  and  C_19 
REMARK    7  A    between atoms: C_19  and  C_20 
REMARK    8  A    between atoms: C_27  and  C_28 
REMARK       I    between atoms: C_28  and  N_29 
ROOT
HETATM    1  C   UNL     1      40.686 -11.326   4.470  1.00  0.00     0.093 A 
HETATM    2  S   UNL     1      39.719 -11.978   3.229  1.00  0.00    -0.074 SA
HETATM    3  C   UNL     1      40.909 -13.082   2.769  1.00  0.00     0.018 A 
HETATM    4  C   UNL     1      42.064 -12.952   3.510  1.00  0.00    -0.023 A 
HETATM    5  C   UNL     1      43.241 -13.866   3.285  1.00  0.00     0.068 C 
HETATM    6  C   UNL     1      43.100 -14.694   1.991  1.00  0.00     0.240 C 
HETATM    7  N   UNL     1      41.681 -15.216   1.779  1.00  0.00    -0.063 N 
HETATM    8  H   UNL     1      41.676 -15.685   0.868  1.00  0.00     0.280 HD
HETATM    9  C   UNL     1      40.695 -14.066   1.672  1.00  0.00     0.282 C 
HETATM   10  C   UNL     1      41.957 -11.893   4.494  1.00  0.00     0.073 A 
ENDROOT
BRANCH   1  11
HETATM   11  N   UNL     1      40.167 -10.392   5.356  1.00  0.00    -0.320 N 
HETATM   12  C   UNL     1      39.416 -10.652   6.497  1.00  0.00     0.226 C 
HETATM   13  O   UNL     1      38.974 -11.740   6.853  1.00  0.00    -0.273 OA
HETATM   14  H   UNL     1      40.357  -9.417   5.145  1.00  0.00     0.169 HD
BRANCH  12  15
HETATM   15  C   UNL     1      39.162  -9.402   7.326  1.00  0.00     0.141 C 
BRANCH  15  16
HETATM   16  C   UNL     1      39.872  -9.413   8.658  1.00  0.00    -0.049 A 
HETATM   17  C   UNL     1      39.182  -9.754   9.829  1.00  0.00     0.009 A 
HETATM   18  C   UNL     1      39.848  -9.806  11.057  1.00  0.00     0.019 A 
HETATM   19  C   UNL     1      41.216  -9.536  11.134  1.00  0.00     0.001 A 
HETATM   20  C   UNL     1      41.905  -9.183   9.970  1.00  0.00     0.019 A 
HETATM   21  C   UNL     1      41.241  -9.130   8.741  1.00  0.00     0.009 A 
BRANCH  19  22
HETATM   22  S   UNL     1      42.018  -9.602  12.725  1.00  0.00    -0.126 SA
BRANCH  22  23
HETATM   23  C   UNL     1      41.870  -7.858  13.292  1.00  0.00     0.044 C 
HETATM   24  C   UNL     1      43.171  -7.377  13.930  1.00  0.00     0.021 C 
HETATM   25  C   UNL     1      40.722  -7.780  14.297  1.00  0.00     0.021 C 
ENDBRANCH  22  23
ENDBRANCH  19  22
ENDBRANCH  15  16
ENDBRANCH  12  15
ENDBRANCH   1  11
BRANCH  10  26
HETATM   26  C   UNL     1      43.027 -11.530   5.423  1.00  0.00     0.252 C 
HETATM   27  N   UNL     1      42.845 -11.892   6.729  1.00  0.00    -0.366 N 
HETATM   28  H   UNL     1      41.906 -12.024   7.089  1.00  0.00     0.159 HD
HETATM   29  H   UNL     1      43.509 -11.486   7.379  1.00  0.00     0.159 HD
HETATM   30  O   UNL     1      44.011 -10.890   5.076  1.00  0.00    -0.268 OA
ENDBRANCH  10  26
BRANCH   7  31
HETATM   31  C   UNL     1      41.241 -16.265   2.776  1.00  0.00     0.273 C 
BRANCH  31  32
HETATM   32  C   UNL     1      42.367 -17.175   3.187  1.00  0.00    -0.033 A 
HETATM   33  C   UNL     1      42.886 -18.123   2.293  1.00  0.00     0.009 A 
HETATM   34  C   UNL     1      43.914 -18.980   2.691  1.00  0.00     0.001 A 
HETATM   35  C   UNL     1      44.434 -18.896   3.981  1.00  0.00     0.000 A 
HETATM   36  C   UNL     1      43.930 -17.955   4.876  1.00  0.00     0.001 A 
HETATM   37  C   UNL     1      42.901 -17.099   4.483  1.00  0.00     0.009 A 
ENDBRANCH  31  32
ENDBRANCH   7  31
TORSDOF 8
ENDMDL
MODEL 6
REMARK VINA RESULT:      -8.3      2.235      3.007
REMARK  8 active torsions:
REMARK  status: ('A' for Active; 'I' for Inactive)
REMARK    1  A    between atoms: C_2  and  S_3 
REMARK    2  A    between atoms: S_3  and  C_4 
REMARK    3  A    between atoms: C_7  and  C_8 
REMARK    4  A    between atoms: C_8  and  C_9 
REMARK       I    between atoms: C_9  and  N_10 
REMARK    5  A    between atoms: N_10  and  C_11 
REMARK    6  A    between atoms: N_17  and  C_19 
REMARK    7  A    between atoms: C_19  and  C_20 
REMARK    8  A    between atoms: C_27  and  C_28 
REMARK       I    between atoms: C_28  and  N_29 
ROOT
HETATM    1  C   UNL     1      42.178 -12.034   6.255  1.00  0.00     0.093 A 
HETATM    2  S   UNL     1      43.697 -12.708   6.627  1.00  0.00    -0.074 SA
HETATM    3  C   UNL     1      43.138 -14.287   6.419  1.00  0.00     0.018 A 
HETATM    4  C   UNL     1      41.795 -14.334   6.108  1.00  0.00    -0.023 A 
HETATM    5  C   UNL     1      41.103 -15.647   5.844  1.00  0.00     0.068 C 
HETATM    6  C   UNL     1      41.966 -16.857   6.256  1.00  0.00     0.240 C 
HETATM    7  N   UNL     1      43.436 -16.685   5.881  1.00  0.00    -0.063 N 
HETATM    8  H   UNL     1      43.932 -17.500   6.258  1.00  0.00     0.280 HD
HETATM    9  C   UNL     1      44.029 -15.469   6.572  1.00  0.00     0.282 C 
HETATM   10  C   UNL     1      41.210 -13.010   6.044  1.00  0.00     0.073 A 
ENDROOT
BRANCH   1  11
HETATM   11  N   UNL     1      42.026 -10.659   6.127  1.00  0.00    -0.320 N 
HETATM   12  C   UNL     1      41.591  -9.970   5.001  1.00  0.00     0.226 C 
HETATM   13  O   UNL     1      41.386 -10.440   3.885  1.00  0.00    -0.273 OA
HETATM   14  H   UNL     1      42.259 -10.102   6.944  1.00  0.00     0.169 HD
BRANCH  12  15
HETATM   15  C   UNL     1      41.378  -8.488   5.270  1.00  0.00     0.141 C 
BRANCH  15  16
HETATM   16  C   UNL     1      41.295  -8.152   6.739  1.00  0.00    -0.049 A 
HETATM   17  C   UNL     1      40.162  -8.500   7.486  1.00  0.00     0.009 A 
HETATM   18  C   UNL     1      40.102  -8.229   8.856  1.00  0.00     0.019 A 
HETATM   19  C   UNL     1      41.178  -7.621   9.506  1.00  0.00     0.001 A 
HETATM   20  C   UNL     1      42.305  -7.260   8.762  1.00  0.00     0.019 A 
HETATM   21  C   UNL     1      42.368  -7.531   7.392  1.00  0.00     0.009 A 
BRANCH  19  22
HETATM   22  S   UNL     1      41.049  -7.282  11.252  1.00  0.00    -0.126 SA
BRANCH  22  23
HETATM   23  C   UNL     1      42.036  -8.656  11.974  1.00  0.00     0.044 C 
HETATM   24  C   UNL     1      41.157  -9.583  12.809  1.00  0.00     0.021 C 
HETATM   25  C   UNL     1      43.139  -8.046  12.838  1.00  0.00     0.021 C 
ENDBRANCH  22  23
ENDBRANCH  19  22
ENDBRANCH  15  16
ENDBRANCH  12  15
ENDBRANCH   1  11
BRANCH  10  26
HETATM   26  C   UNL     1      39.804 -12.753   5.732  1.00  0.00     0.252 C 
HETATM   27  N   UNL     1      39.407 -13.031   4.453  1.00  0.00    -0.366 N 
HETATM   28  H   UNL     1      40.086 -13.020   3.701  1.00  0.00     0.159 HD
HETATM   29  H   UNL     1      38.482 -12.690   4.211  1.00  0.00     0.159 HD
HETATM   30  O   UNL     1      39.027 -12.266   6.544  1.00  0.00    -0.268 OA
ENDBRANCH  10  26
BRANCH   7  31
HETATM   31  C   UNL     1      43.712 -16.697   4.393  1.00  0.00     0.273 C 
BRANCH  31  32
HETATM   32  C   UNL     1      43.698 -18.088   3.819  1.00  0.00    -0.033 A 
HETATM   33  C   UNL     1      43.206 -18.327   2.527  1.00  0.00     0.009 A 
HETATM   34  C   UNL     1      43.174 -19.624   2.013  1.00  0.00     0.001 A 
HETATM   35  C   UNL     1      43.635 -20.692   2.779  1.00  0.00     0.000 A 
HETATM   36  C   UNL     1      44.131 -20.467   4.061  1.00  0.00     0.001 A 
HETATM   37  C   UNL     1      44.162 -19.173   4.581  1.00  0.00     0.009 A 
ENDBRANCH  31  32
ENDBRANCH   7  31
TORSDOF 8
ENDMDL
MODEL 7
REMARK VINA RESULT:      -8.3      3.309     10.576
REMARK  8 active torsions:
REMARK  status: ('A' for Active; 'I' for Inactive)
REMARK    1  A    between atoms: C_2  and  S_3 
REMARK    2  A    between atoms: S_3  and  C_4 
REMARK    3  A    between atoms: C_7  and  C_8 
REMARK    4  A    between atoms: C_8  and  C_9 
REMARK       I    between atoms: C_9  and  N_10 
REMARK    5  A    between atoms: N_10  and  C_11 
REMARK    6  A    between atoms: N_17  and  C_19 
REMARK    7  A    between atoms: C_19  and  C_20 
REMARK    8  A    between atoms: C_27  and  C_28 
REMARK       I    between atoms: C_28  and  N_29 
ROOT
HETATM    1  C   UNL     1      42.729 -12.395   6.076  1.00  0.00     0.093 A 
HETATM    2  S   UNL     1      44.113 -12.382   7.068  1.00  0.00    -0.074 SA
HETATM    3  C   UNL     1      43.651 -10.953   7.836  1.00  0.00     0.018 A 
HETATM    4  C   UNL     1      42.473 -10.441   7.332  1.00  0.00    -0.023 A 
HETATM    5  C   UNL     1      41.863  -9.186   7.902  1.00  0.00     0.068 C 
HETATM    6  C   UNL     1      42.832  -8.437   8.840  1.00  0.00     0.240 C 
HETATM    7  N   UNL     1      43.618  -9.381   9.747  1.00  0.00    -0.063 N 
HETATM    8  H   UNL     1      44.278  -8.798  10.273  1.00  0.00     0.280 HD
HETATM    9  C   UNL     1      44.459 -10.342   8.926  1.00  0.00     0.282 C 
HETATM   10  C   UNL     1      41.939 -11.266   6.267  1.00  0.00     0.073 A 
ENDROOT
BRANCH   1  11
HETATM   11  N   UNL     1      42.458 -13.479   5.251  1.00  0.00    -0.320 N 
HETATM   12  C   UNL     1      41.457 -14.428   5.423  1.00  0.00     0.226 C 
HETATM   13  O   UNL     1      40.719 -14.548   6.396  1.00  0.00    -0.273 OA
HETATM   14  H   UNL     1      43.058 -13.587   4.438  1.00  0.00     0.169 HD
BRANCH  12  15
HETATM   15  C   UNL     1      41.339 -15.373   4.237  1.00  0.00     0.141 C 
BRANCH  15  16
HETATM   16  C   UNL     1      40.827 -14.702   2.986  1.00  0.00    -0.049 A 
HETATM   17  C   UNL     1      41.206 -15.171   1.721  1.00  0.00     0.009 A 
HETATM   18  C   UNL     1      40.698 -14.578   0.561  1.00  0.00     0.019 A 
HETATM   19  C   UNL     1      39.792 -13.519   0.644  1.00  0.00     0.001 A 
HETATM   20  C   UNL     1      39.422 -13.039   1.904  1.00  0.00     0.019 A 
HETATM   21  C   UNL     1      39.927 -13.631   3.065  1.00  0.00     0.009 A 
BRANCH  19  22
HETATM   22  S   UNL     1      39.184 -12.786  -0.863  1.00  0.00    -0.126 SA
BRANCH  22  23
HETATM   23  C   UNL     1      40.104 -13.738  -2.140  1.00  0.00     0.044 C 
HETATM   24  C   UNL     1      40.870 -12.804  -3.074  1.00  0.00     0.021 C 
HETATM   25  C   UNL     1      39.097 -14.572  -2.930  1.00  0.00     0.021 C 
ENDBRANCH  22  23
ENDBRANCH  19  22
ENDBRANCH  15  16
ENDBRANCH  12  15
ENDBRANCH   1  11
BRANCH  10  26
HETATM   26  C   UNL     1      40.699 -10.969   5.549  1.00  0.00     0.252 C 
HETATM   27  N   UNL     1      39.556 -11.514   6.064  1.00  0.00    -0.366 N 
HETATM   28  H   UNL     1      39.607 -12.355   6.627  1.00  0.00     0.159 HD
HETATM   29  H   UNL     1      38.741 -11.439   5.464  1.00  0.00     0.159 HD
HETATM   30  O   UNL     1      40.678 -10.318   4.512  1.00  0.00    -0.268 OA
ENDBRANCH  10  26
BRANCH   7  31
HETATM   31  C   UNL     1      42.784 -10.089  10.793  1.00  0.00     0.273 C 
BRANCH  31  32
HETATM   32  C   UNL     1      42.701  -9.315  12.081  1.00  0.00    -0.033 A 
HETATM   33  C   UNL     1      41.806  -9.697  13.091  1.00  0.00     0.009 A 
HETATM   34  C   UNL     1      41.718  -8.958  14.272  1.00  0.00     0.001 A 
HETATM   35  C   UNL     1      42.523  -7.836  14.457  1.00  0.00     0.000 A 
HETATM   36  C   UNL     1      43.419  -7.451  13.463  1.00  0.00     0.001 A 
HETATM   37  C   UNL     1      43.508  -8.184  12.280  1.00  0.00     0.009 A 
ENDBRANCH  31  32
ENDBRANCH   7  31
TORSDOF 8
ENDMDL
MODEL 8
REMARK VINA RESULT:      -8.2      2.546     10.086
REMARK  8 active torsions:
REMARK  status: ('A' for Active; 'I' for Inactive)
REMARK    1  A    between atoms: C_2  and  S_3 
REMARK    2  A    between atoms: S_3  and  C_4 
REMARK    3  A    between atoms: C_7  and  C_8 
REMARK    4  A    between atoms: C_8  and  C_9 
REMARK       I    between atoms: C_9  and  N_10 
REMARK    5  A    between atoms: N_10  and  C_11 
REMARK    6  A    between atoms: N_17  and  C_19 
REMARK    7  A    between atoms: C_19  and  C_20 
REMARK    8  A    between atoms: C_27  and  C_28 
REMARK       I    between atoms: C_28  and  N_29 
ROOT
HETATM    1  C   UNL     1      42.506 -11.315   5.695  1.00  0.00     0.093 A 
HETATM    2  S   UNL     1      43.621 -11.896   6.844  1.00  0.00    -0.074 SA
HETATM    3  C   UNL     1      43.526 -10.489   7.770  1.00  0.00     0.018 A 
HETATM    4  C   UNL     1      42.689  -9.546   7.211  1.00  0.00    -0.023 A 
HETATM    5  C   UNL     1      42.433  -8.228   7.896  1.00  0.00     0.068 C 
HETATM    6  C   UNL     1      43.414  -7.973   9.059  1.00  0.00     0.240 C 
HETATM    7  N   UNL     1      43.676  -9.225   9.893  1.00  0.00    -0.063 N 
HETATM    8  H   UNL     1      44.387  -8.971  10.586  1.00  0.00     0.280 HD
HETATM    9  C   UNL     1      44.285 -10.323   9.039  1.00  0.00     0.282 C 
HETATM   10  C   UNL     1      42.109 -10.010   5.966  1.00  0.00     0.073 A 
ENDROOT
BRANCH   1  11
HETATM   11  N   UNL     1      42.044 -12.139   4.677  1.00  0.00    -0.320 N 
HETATM   12  C   UNL     1      40.762 -12.658   4.542  1.00  0.00     0.226 C 
HETATM   13  O   UNL     1      39.850 -12.585   5.360  1.00  0.00    -0.273 OA
HETATM   14  H   UNL     1      42.717 -12.387   3.958  1.00  0.00     0.169 HD
BRANCH  12  15
HETATM   15  C   UNL     1      40.560 -13.377   3.216  1.00  0.00     0.141 C 
BRANCH  15  16
HETATM   16  C   UNL     1      41.326 -14.673   3.115  1.00  0.00    -0.049 A 
HETATM   17  C   UNL     1      42.418 -14.789   2.244  1.00  0.00     0.009 A 
HETATM   18  C   UNL     1      43.155 -15.974   2.181  1.00  0.00     0.019 A 
HETATM   19  C   UNL     1      42.826 -17.058   2.998  1.00  0.00     0.001 A 
HETATM   20  C   UNL     1      41.730 -16.952   3.859  1.00  0.00     0.019 A 
HETATM   21  C   UNL     1      40.992 -15.766   3.924  1.00  0.00     0.009 A 
BRANCH  19  22
HETATM   22  S   UNL     1      43.787 -18.555   2.872  1.00  0.00    -0.126 SA
BRANCH  22  23
HETATM   23  C   UNL     1      44.537 -18.661   4.548  1.00  0.00     0.044 C 
HETATM   24  C   UNL     1      43.723 -19.579   5.456  1.00  0.00     0.021 C 
HETATM   25  C   UNL     1      44.598 -17.251   5.132  1.00  0.00     0.021 C 
ENDBRANCH  22  23
ENDBRANCH  19  22
ENDBRANCH  15  16
ENDBRANCH  12  15
ENDBRANCH   1  11
BRANCH  10  26
HETATM   26  C   UNL     1      41.182  -9.222   5.154  1.00  0.00     0.252 C 
HETATM   27  N   UNL     1      41.714  -8.599   4.059  1.00  0.00    -0.366 N 
HETATM   28  H   UNL     1      42.700  -8.368   4.041  1.00  0.00     0.159 HD
HETATM   29  H   UNL     1      41.099  -7.928   3.611  1.00  0.00     0.159 HD
HETATM   30  O   UNL     1      40.004  -9.074   5.456  1.00  0.00    -0.268 OA
ENDBRANCH  10  26
BRANCH   7  31
HETATM   31  C   UNL     1      42.486  -9.707  10.694  1.00  0.00     0.273 C 
BRANCH  31  32
HETATM   32  C   UNL     1      42.419  -9.075  12.058  1.00  0.00    -0.033 A 
HETATM   33  C   UNL     1      43.326  -8.072  12.430  1.00  0.00     0.009 A 
HETATM   34  C   UNL     1      43.271  -7.510  13.706  1.00  0.00     0.001 A 
HETATM   35  C   UNL     1      42.310  -7.939  14.620  1.00  0.00     0.000 A 
HETATM   36  C   UNL     1      41.400  -8.930  14.259  1.00  0.00     0.001 A 
HETATM   37  C   UNL     1      41.453  -9.498  12.986  1.00  0.00     0.009 A 
ENDBRANCH  31  32
ENDBRANCH   7  31
TORSDOF 8
ENDMDL
MODEL 9
REMARK VINA RESULT:      -8.1      2.134      2.734
REMARK  8 active torsions:
REMARK  status: ('A' for Active; 'I' for Inactive)
REMARK    1  A    between atoms: C_2  and  S_3 
REMARK    2  A    between atoms: S_3  and  C_4 
REMARK    3  A    between atoms: C_7  and  C_8 
REMARK    4  A    between atoms: C_8  and  C_9 
REMARK       I    between atoms: C_9  and  N_10 
REMARK    5  A    between atoms: N_10  and  C_11 
REMARK    6  A    between atoms: N_17  and  C_19 
REMARK    7  A    between atoms: C_19  and  C_20 
REMARK    8  A    between atoms: C_27  and  C_28 
REMARK       I    between atoms: C_28  and  N_29 
ROOT
HETATM    1  C   UNL     1      40.893 -11.869   4.496  1.00  0.00     0.093 A 
HETATM    2  S   UNL     1      40.581 -13.228   5.474  1.00  0.00    -0.074 SA
HETATM    3  C   UNL     1      40.755 -14.300   4.182  1.00  0.00     0.018 A 
HETATM    4  C   UNL     1      41.009 -13.653   2.991  1.00  0.00    -0.023 A 
HETATM    5  C   UNL     1      41.234 -14.428   1.718  1.00  0.00     0.068 C 
HETATM    6  C   UNL     1      40.852 -15.915   1.861  1.00  0.00     0.240 C 
HETATM    7  N   UNL     1      41.290 -16.507   3.198  1.00  0.00    -0.063 N 
HETATM    8  H   UNL     1      40.929 -17.467   3.225  1.00  0.00     0.280 HD
HETATM    9  C   UNL     1      40.633 -15.773   4.354  1.00  0.00     0.282 C 
HETATM   10  C   UNL     1      41.056 -12.214   3.158  1.00  0.00     0.073 A 
ENDROOT
BRANCH   1  11
HETATM   11  N   UNL     1      41.024 -10.606   5.059  1.00  0.00    -0.320 N 
HETATM   12  C   UNL     1      42.090 -10.138   5.817  1.00  0.00     0.226 C 
HETATM   13  O   UNL     1      43.042 -10.793   6.229  1.00  0.00    -0.273 OA
HETATM   14  H   UNL     1      40.257  -9.960   4.897  1.00  0.00     0.169 HD
BRANCH  12  15
HETATM   15  C   UNL     1      41.980  -8.652   6.124  1.00  0.00     0.141 C 
BRANCH  15  16
HETATM   16  C   UNL     1      41.823  -8.354   7.595  1.00  0.00    -0.049 A 
HETATM   17  C   UNL     1      42.863  -7.750   8.314  1.00  0.00     0.009 A 
HETATM   18  C   UNL     1      42.703  -7.435   9.666  1.00  0.00     0.019 A 
HETATM   19  C   UNL     1      41.498  -7.702  10.319  1.00  0.00     0.001 A 
HETATM   20  C   UNL     1      40.463  -8.317   9.609  1.00  0.00     0.019 A 
HETATM   21  C   UNL     1      40.620  -8.632   8.256  1.00  0.00     0.009 A 
BRANCH  19  22
HETATM   22  S   UNL     1      41.348  -7.294  12.049  1.00  0.00    -0.126 SA
BRANCH  22  23
HETATM   23  C   UNL     1      42.890  -8.020  12.740  1.00  0.00     0.044 C 
HETATM   24  C   UNL     1      42.737  -9.522  12.964  1.00  0.00     0.021 C 
HETATM   25  C   UNL     1      43.199  -7.313  14.059  1.00  0.00     0.021 C 
ENDBRANCH  22  23
ENDBRANCH  19  22
ENDBRANCH  15  16
ENDBRANCH  12  15
ENDBRANCH   1  11
BRANCH  10  26
HETATM   26  C   UNL     1      41.310 -11.274   2.066  1.00  0.00     0.252 C 
HETATM   27  N   UNL     1      40.290 -11.093   1.174  1.00  0.00    -0.366 N 
HETATM   28  H   UNL     1      39.600 -11.823   1.042  1.00  0.00     0.159 HD
HETATM   29  H   UNL     1      40.542 -10.574   0.339  1.00  0.00     0.159 HD
HETATM   30  O   UNL     1      42.389 -10.715   1.916  1.00  0.00    -0.268 OA
ENDBRANCH  10  26
BRANCH   7  31
HETATM   31  C   UNL     1      42.788 -16.635   3.370  1.00  0.00     0.273 C 
BRANCH  31  32
HETATM   32  C   UNL     1      43.239 -18.069   3.422  1.00  0.00    -0.033 A 
HETATM   33  C   UNL     1      43.840 -18.591   4.577  1.00  0.00     0.009 A 
HETATM   34  C   UNL     1      44.278 -19.916   4.607  1.00  0.00     0.001 A 
HETATM   35  C   UNL     1      44.118 -20.732   3.489  1.00  0.00     0.000 A 
HETATM   36  C   UNL     1      43.518 -20.226   2.338  1.00  0.00     0.001 A 
HETATM   37  C   UNL     1      43.082 -18.902   2.303  1.00  0.00     0.009 A 
ENDBRANCH  31  32
ENDBRANCH   7  31
TORSDOF 8
ENDMDL
MODEL 10
REMARK VINA RESULT:      -8.1      5.387     10.709
REMARK  8 active torsions:
REMARK  status: ('A' for Active; 'I' for Inactive)
REMARK    1  A    between atoms: C_2  and  S_3 
REMARK    2  A    between atoms: S_3  and  C_4 
REMARK    3  A    between atoms: C_7  and  C_8 
REMARK    4  A    between atoms: C_8  and  C_9 
REMARK       I    between atoms: C_9  and  N_10 
REMARK    5  A    between atoms: N_10  and  C_11 
REMARK    6  A    between atoms: N_17  and  C_19 
REMARK    7  A    between atoms: C_19  and  C_20 
REMARK    8  A    between atoms: C_27  and  C_28 
REMARK       I    between atoms: C_28  and  N_29 
ROOT
HETATM    1  C   UNL     1      41.676 -13.795   2.314  1.00  0.00     0.093 A 
HETATM    2  S   UNL     1      41.239 -12.503   3.332  1.00  0.00    -0.074 SA
HETATM    3  C   UNL     1      42.010 -13.187   4.669  1.00  0.00     0.018 A 
HETATM    4  C   UNL     1      42.571 -14.414   4.382  1.00  0.00    -0.023 A 
HETATM    5  C   UNL     1      43.340 -15.181   5.427  1.00  0.00     0.068 C 
HETATM    6  C   UNL     1      43.151 -14.595   6.841  1.00  0.00     0.240 C 
HETATM    7  N   UNL     1      43.169 -13.068   6.852  1.00  0.00    -0.063 N 
HETATM    8  H   UNL     1      42.965 -12.780   7.815  1.00  0.00     0.280 HD
HETATM    9  C   UNL     1      42.048 -12.510   5.993  1.00  0.00     0.282 C 
HETATM   10  C   UNL     1      42.349 -14.799   3.003  1.00  0.00     0.073 A 
ENDROOT
BRANCH   1  11
HETATM   11  N   UNL     1      41.416 -13.741   0.951  1.00  0.00    -0.320 N 
HETATM   12  C   UNL     1      40.444 -14.454   0.258  1.00  0.00     0.226 C 
HETATM   13  O   UNL     1      39.730 -15.347   0.704  1.00  0.00    -0.273 OA
HETATM   14  H   UNL     1      42.001 -13.114   0.405  1.00  0.00     0.169 HD
BRANCH  12  15
HETATM   15  C   UNL     1      40.326 -14.018  -1.195  1.00  0.00     0.141 C 
BRANCH  15  16
HETATM   16  C   UNL     1      39.241 -12.995  -1.427  1.00  0.00    -0.049 A 
HETATM   17  C   UNL     1      38.275 -13.196  -2.422  1.00  0.00     0.009 A 
HETATM   18  C   UNL     1      37.244 -12.271  -2.609  1.00  0.00     0.019 A 
HETATM   19  C   UNL     1      37.150 -11.139  -1.796  1.00  0.00     0.001 A 
HETATM   20  C   UNL     1      38.119 -10.929  -0.811  1.00  0.00     0.019 A 
HETATM   21  C   UNL     1      39.150 -11.853  -0.621  1.00  0.00     0.009 A 
BRANCH  19  22
HETATM   22  S   UNL     1      35.825  -9.981  -2.082  1.00  0.00    -0.126 SA
BRANCH  22  23
HETATM   23  C   UNL     1      35.089 -10.630  -3.638  1.00  0.00     0.044 C 
HETATM   24  C   UNL     1      35.356  -9.686  -4.807  1.00  0.00     0.021 C 
HETATM   25  C   UNL     1      33.586 -10.798  -3.420  1.00  0.00     0.021 C 
ENDBRANCH  22  23
ENDBRANCH  19  22
ENDBRANCH  15  16
ENDBRANCH  12  15
ENDBRANCH   1  11
BRANCH  10  26
HETATM   26  C   UNL     1      42.833 -16.049   2.417  1.00  0.00     0.252 C 
HETATM   27  N   UNL     1      42.320 -17.203   2.941  1.00  0.00    -0.366 N 
HETATM   28  H   UNL     1      41.966 -17.211   3.891  1.00  0.00     0.159 HD
HETATM   29  H   UNL     1      42.789 -18.051   2.642  1.00  0.00     0.159 HD
HETATM   30  O   UNL     1      43.690 -16.078   1.543  1.00  0.00    -0.268 OA
ENDBRANCH  10  26
BRANCH   7  31
HETATM   31  C   UNL     1      44.512 -12.453   6.524  1.00  0.00     0.273 C 
BRANCH  31  32
HETATM   32  C   UNL     1      44.864 -11.318   7.448  1.00  0.00    -0.033 A 
HETATM   33  C   UNL     1      46.010 -10.541   7.225  1.00  0.00     0.009 A 
HETATM   34  C   UNL     1      46.342  -9.506   8.102  1.00  0.00     0.001 A 
HETATM   35  C   UNL     1      45.533  -9.237   9.204  1.00  0.00     0.000 A 
HETATM   36  C   UNL     1      44.389  -9.998   9.432  1.00  0.00     0.001 A 
HETATM   37  C   UNL     1      44.056 -11.035   8.560  1.00  0.00     0.009 A 
ENDBRANCH  31  32
ENDBRANCH   7  31
TORSDOF 8
ENDMDL
