MODEL 1
REMARK VINA RESULT:     -10.1      0.000      0.000
REMARK  5 active torsions:
REMARK  status: ('A' for Active; 'I' for Inactive)
REMARK    1  A    between atoms: C_4  and  C_5 
REMARK    2  A    between atoms: C_6  and  N_7 
REMARK    3  A    between atoms: C_9  and  C_10 
REMARK       I    between atoms: C_10  and  N_11 
REMARK    4  A    between atoms: N_11  and  C_12 
REMARK    5  A    between atoms: C_12  and  C_13 
ROOT
HETATM    1  C   UNL     1      42.440 -16.405   4.329  1.00  0.00     0.019 A 
HETATM    2  C   UNL     1      42.340 -15.765   5.525  1.00  0.00     0.111 A 
HETATM    3  C   UNL     1      42.833 -16.470   6.784  1.00  0.00     0.273 A 
HETATM    4  O   UNL     1      42.736 -15.971   7.905  1.00  0.00    -0.266 OA
HETATM    5  N   UNL     1      43.383 -17.711   6.648  1.00  0.00    -0.321 N 
HETATM    6  C   UNL     1      43.501 -18.378   5.434  1.00  0.00     0.046 A 
HETATM    7  C   UNL     1      43.044 -17.763   4.263  1.00  0.00     0.006 A 
HETATM    8  C   UNL     1      44.072 -19.654   5.414  1.00  0.00     0.032 A 
HETATM    9  C   UNL     1      44.194 -20.336   4.205  1.00  0.00     0.026 A 
HETATM   10  C   UNL     1      43.748 -19.737   3.029  1.00  0.00     0.035 A 
HETATM   11 CL   UNL     1      43.898 -20.580   1.536  1.00  0.00    -0.084 Cl
HETATM   12  C   UNL     1      43.181 -18.461   3.052  1.00  0.00     0.038 A 
HETATM   13  H   UNL     1      43.696 -18.140   7.508  1.00  0.00     0.169 HD
ENDROOT
BRANCH   2  14
HETATM   14  N   UNL     1      41.768 -14.478   5.685  1.00  0.00    -0.375 N 
HETATM   15  C   UNL     1      42.580 -13.406   6.303  1.00  0.00     0.137 C 
HETATM   16  C   UNL     1      42.030 -12.037   5.900  1.00  0.00     0.096 C 
HETATM   17  C   UNL     1      40.542 -11.911   6.253  1.00  0.00     0.017 C 
HETATM   18  C   UNL     1      39.752 -13.077   5.665  1.00  0.00     0.021 C 
HETATM   19  C   UNL     1      40.351 -14.417   6.088  1.00  0.00     0.123 C 
BRANCH  16  20
HETATM   20  C   UNL     1      42.866 -10.931   6.529  1.00  0.00     0.223 C 
HETATM   21  N   UNL     1      42.190 -10.055   7.344  1.00  0.00    -0.358 N 
HETATM   22  H   UNL     1      41.264 -10.296   7.685  1.00  0.00     0.162 HD
HETATM   23  O   UNL     1      44.073 -10.841   6.319  1.00  0.00    -0.273 OA
BRANCH  21  24
HETATM   24  C   UNL     1      42.893  -9.052   8.128  1.00  0.00     0.154 C 
BRANCH  24  25
HETATM   25  C   UNL     1      42.747  -9.328   9.623  1.00  0.00     0.139 C 
HETATM   26  O   UNL     1      43.512 -10.500   9.987  1.00  0.00    -0.384 OA
HETATM   27  C   UNL     1      44.183 -10.234  11.228  1.00  0.00     0.168 C 
HETATM   28  C   UNL     1      43.619  -8.935  11.765  1.00  0.00     0.029 C 
HETATM   29  C   UNL     1      43.265  -8.199  10.497  1.00  0.00     0.035 C 
ENDBRANCH  24  25
ENDBRANCH  21  24
ENDBRANCH  16  20
ENDBRANCH   2  14
BRANCH   1  30
HETATM   30  C   UNL     1      41.943 -15.691   3.123  1.00  0.00    -0.023 A 
HETATM   31  C   UNL     1      40.676 -15.979   2.599  1.00  0.00     0.012 A 
HETATM   32  C   UNL     1      40.201 -15.284   1.486  1.00  0.00     0.001 A 
HETATM   33  C   UNL     1      40.986 -14.297   0.891  1.00  0.00     0.000 A 
HETATM   34  C   UNL     1      42.249 -14.004   1.406  1.00  0.00     0.001 A 
HETATM   35  C   UNL     1      42.727 -14.697   2.519  1.00  0.00     0.012 A 
ENDBRANCH   1  30
TORSDOF 5
ENDMDL
MODEL 2
REMARK VINA RESULT:      -8.8      3.590      8.899
REMARK  5 active torsions:
REMARK  status: ('A' for Active; 'I' for Inactive)
REMARK    1  A    between atoms: C_4  and  C_5 
REMARK    2  A    between atoms: C_6  and  N_7 
REMARK    3  A    between atoms: C_9  and  C_10 
REMARK       I    between atoms: C_10  and  N_11 
REMARK    4  A    between atoms: N_11  and  C_12 
REMARK    5  A    between atoms: C_12  and  C_13 
ROOT
HETATM    1  C   UNL     1      42.454 -10.150   6.466  1.00  0.00     0.019 A 
HETATM    2  C   UNL     1      43.381 -11.074   6.097  1.00  0.00     0.111 A 
HETATM    3  C   UNL     1      44.749 -11.059   6.773  1.00  0.00     0.273 A 
HETATM    4  O   UNL     1      45.651 -11.836   6.462  1.00  0.00    -0.266 OA
HETATM    5  N   UNL     1      44.971 -10.129   7.746  1.00  0.00    -0.321 N 
HETATM    6  C   UNL     1      44.034  -9.181   8.141  1.00  0.00     0.046 A 
HETATM    7  C   UNL     1      42.775  -9.160   7.529  1.00  0.00     0.006 A 
HETATM    8  C   UNL     1      44.374  -8.267   9.142  1.00  0.00     0.032 A 
HETATM    9  C   UNL     1      43.447  -7.309   9.546  1.00  0.00     0.026 A 
HETATM   10  C   UNL     1      42.188  -7.276   8.951  1.00  0.00     0.035 A 
HETATM   11 CL   UNL     1      41.042  -6.093   9.449  1.00  0.00    -0.084 Cl
HETATM   12  C   UNL     1      41.849  -8.193   7.953  1.00  0.00     0.038 A 
HETATM   13  H   UNL     1      45.890 -10.156   8.166  1.00  0.00     0.169 HD
ENDROOT
BRANCH   2  14
HETATM   14  N   UNL     1      43.169 -12.045   5.087  1.00  0.00    -0.375 N 
HETATM   15  C   UNL     1      43.190 -13.478   5.456  1.00  0.00     0.137 C 
HETATM   16  C   UNL     1      42.430 -14.298   4.411  1.00  0.00     0.096 C 
HETATM   17  C   UNL     1      42.987 -14.055   3.003  1.00  0.00     0.017 C 
HETATM   18  C   UNL     1      43.023 -12.561   2.691  1.00  0.00     0.021 C 
HETATM   19  C   UNL     1      43.783 -11.792   3.770  1.00  0.00     0.123 C 
BRANCH  16  20
HETATM   20  C   UNL     1      42.445 -15.771   4.790  1.00  0.00     0.223 C 
HETATM   21  N   UNL     1      43.662 -16.403   4.703  1.00  0.00    -0.358 N 
HETATM   22  H   UNL     1      44.512 -15.852   4.635  1.00  0.00     0.162 HD
HETATM   23  O   UNL     1      41.425 -16.349   5.157  1.00  0.00    -0.273 OA
BRANCH  21  24
HETATM   24  C   UNL     1      43.847 -17.763   5.183  1.00  0.00     0.154 C 
BRANCH  24  25
HETATM   25  C   UNL     1      44.316 -18.681   4.056  1.00  0.00     0.139 C 
HETATM   26  O   UNL     1      44.331 -20.053   4.509  1.00  0.00    -0.384 OA
HETATM   27  C   UNL     1      43.796 -20.880   3.464  1.00  0.00     0.168 C 
HETATM   28  C   UNL     1      43.669 -20.008   2.233  1.00  0.00     0.029 C 
HETATM   29  C   UNL     1      43.412 -18.650   2.837  1.00  0.00     0.035 C 
ENDBRANCH  24  25
ENDBRANCH  21  24
ENDBRANCH  16  20
ENDBRANCH   2  14
BRANCH   1  30
HETATM   30  C   UNL     1      41.134 -10.189   5.782  1.00  0.00    -0.023 A 
HETATM   31  C   UNL     1      40.084 -10.952   6.308  1.00  0.00     0.012 A 
HETATM   32  C   UNL     1      38.837 -10.961   5.681  1.00  0.00     0.001 A 
HETATM   33  C   UNL     1      38.632 -10.208   4.525  1.00  0.00     0.000 A 
HETATM   34  C   UNL     1      39.672  -9.446   3.994  1.00  0.00     0.001 A 
HETATM   35  C   UNL     1      40.920  -9.435   4.619  1.00  0.00     0.012 A 
ENDBRANCH   1  30
TORSDOF 5
ENDMDL
MODEL 3
REMARK VINA RESULT:      -8.8      2.995      5.355
REMARK  5 active torsions:
REMARK  status: ('A' for Active; 'I' for Inactive)
REMARK    1  A    between atoms: C_4  and  C_5 
REMARK    2  A    between atoms: C_6  and  N_7 
REMARK    3  A    between atoms: C_9  and  C_10 
REMARK       I    between atoms: C_10  and  N_11 
REMARK    4  A    between atoms: N_11  and  C_12 
REMARK    5  A    between atoms: C_12  and  C_13 
ROOT
HETATM    1  C   UNL     1      40.399 -13.615   1.770  1.00  0.00     0.019 A 
HETATM    2  C   UNL     1      40.263 -12.798   2.848  1.00  0.00     0.111 A 
HETATM    3  C   UNL     1      39.310 -11.610   2.760  1.00  0.00     0.273 A 
HETATM    4  O   UNL     1      39.167 -10.805   3.679  1.00  0.00    -0.266 OA
HETATM    5  N   UNL     1      38.609 -11.439   1.602  1.00  0.00    -0.321 N 
HETATM    6  C   UNL     1      38.729 -12.267   0.493  1.00  0.00     0.046 A 
HETATM    7  C   UNL     1      39.607 -13.356   0.537  1.00  0.00     0.006 A 
HETATM    8  C   UNL     1      37.968 -11.989  -0.647  1.00  0.00     0.032 A 
HETATM    9  C   UNL     1      38.081 -12.809  -1.768  1.00  0.00     0.026 A 
HETATM   10  C   UNL     1      38.946 -13.899  -1.739  1.00  0.00     0.035 A 
HETATM   11 CL   UNL     1      39.086 -14.912  -3.123  1.00  0.00    -0.084 Cl
HETATM   12  C   UNL     1      39.702 -14.177  -0.598  1.00  0.00     0.038 A 
HETATM   13  H   UNL     1      37.989 -10.640   1.589  1.00  0.00     0.169 HD
ENDROOT
BRANCH   2  14
HETATM   14  N   UNL     1      40.986 -12.959   4.056  1.00  0.00    -0.375 N 
HETATM   15  C   UNL     1      42.325 -12.341   4.178  1.00  0.00     0.137 C 
HETATM   16  C   UNL     1      42.682 -12.156   5.654  1.00  0.00     0.096 C 
HETATM   17  C   UNL     1      42.588 -13.483   6.418  1.00  0.00     0.017 C 
HETATM   18  C   UNL     1      41.220 -14.128   6.203  1.00  0.00     0.021 C 
HETATM   19  C   UNL     1      40.911 -14.277   4.715  1.00  0.00     0.123 C 
BRANCH  16  20
HETATM   20  C   UNL     1      44.056 -11.514   5.783  1.00  0.00     0.223 C 
HETATM   21  N   UNL     1      44.485 -11.263   7.065  1.00  0.00    -0.358 N 
HETATM   22  H   UNL     1      44.018 -11.708   7.849  1.00  0.00     0.162 HD
HETATM   23  O   UNL     1      44.735 -11.248   4.795  1.00  0.00    -0.273 OA
BRANCH  21  24
HETATM   24  C   UNL     1      45.836 -10.800   7.335  1.00  0.00     0.154 C 
BRANCH  24  25
HETATM   25  C   UNL     1      45.838  -9.730   8.427  1.00  0.00     0.139 C 
HETATM   26  O   UNL     1      45.026  -8.606   8.019  1.00  0.00    -0.384 OA
HETATM   27  C   UNL     1      44.247  -8.178   9.147  1.00  0.00     0.168 C 
HETATM   28  C   UNL     1      44.777  -8.920  10.356  1.00  0.00     0.029 C 
HETATM   29  C   UNL     1      45.257 -10.213   9.744  1.00  0.00     0.035 C 
ENDBRANCH  24  25
ENDBRANCH  21  24
ENDBRANCH  16  20
ENDBRANCH   2  14
BRANCH   1  30
HETATM   30  C   UNL     1      41.343 -14.758   1.889  1.00  0.00    -0.023 A 
HETATM   31  C   UNL     1      40.881 -16.022   2.279  1.00  0.00     0.012 A 
HETATM   32  C   UNL     1      41.764 -17.100   2.358  1.00  0.00     0.001 A 
HETATM   33  C   UNL     1      43.112 -16.923   2.047  1.00  0.00     0.000 A 
HETATM   34  C   UNL     1      43.580 -15.669   1.658  1.00  0.00     0.001 A 
HETATM   35  C   UNL     1      42.699 -14.588   1.578  1.00  0.00     0.012 A 
ENDBRANCH   1  30
TORSDOF 5
ENDMDL
MODEL 4
REMARK VINA RESULT:      -8.6      3.198      4.812
REMARK  5 active torsions:
REMARK  status: ('A' for Active; 'I' for Inactive)
REMARK    1  A    between atoms: C_4  and  C_5 
REMARK    2  A    between atoms: C_6  and  N_7 
REMARK    3  A    between atoms: C_9  and  C_10 
REMARK       I    between atoms: C_10  and  N_11 
REMARK    4  A    between atoms: N_11  and  C_12 
REMARK    5  A    between atoms: C_12  and  C_13 
ROOT
HETATM    1  C   UNL     1      41.530 -12.898   4.217  1.00  0.00     0.019 A 
HETATM    2  C   UNL     1      40.542 -11.966   4.171  1.00  0.00     0.111 A 
HETATM    3  C   UNL     1      39.295 -12.251   3.340  1.00  0.00     0.273 A 
HETATM    4  O   UNL     1      38.379 -11.438   3.218  1.00  0.00    -0.266 OA
HETATM    5  N   UNL     1      39.215 -13.452   2.699  1.00  0.00    -0.321 N 
HETATM    6  C   UNL     1      40.212 -14.421   2.739  1.00  0.00     0.046 A 
HETATM    7  C   UNL     1      41.374 -14.182   3.481  1.00  0.00     0.006 A 
HETATM    8  C   UNL     1      40.028 -15.612   2.032  1.00  0.00     0.032 A 
HETATM    9  C   UNL     1      41.020 -16.591   2.061  1.00  0.00     0.026 A 
HETATM   10  C   UNL     1      42.181 -16.372   2.798  1.00  0.00     0.035 A 
HETATM   11 CL   UNL     1      43.407 -17.580   2.833  1.00  0.00    -0.084 Cl
HETATM   12  C   UNL     1      42.361 -15.181   3.506  1.00  0.00     0.038 A 
HETATM   13  H   UNL     1      38.372 -13.598   2.161  1.00  0.00     0.169 HD
ENDROOT
BRANCH   2  14
HETATM   14  N   UNL     1      40.609 -10.712   4.828  1.00  0.00    -0.375 N 
HETATM   15  C   UNL     1      39.874 -10.531   6.100  1.00  0.00     0.137 C 
HETATM   16  C   UNL     1      40.485  -9.375   6.896  1.00  0.00     0.096 C 
HETATM   17  C   UNL     1      40.524  -8.088   6.063  1.00  0.00     0.017 C 
HETATM   18  C   UNL     1      41.219  -8.336   4.725  1.00  0.00     0.021 C 
HETATM   19  C   UNL     1      40.577  -9.505   3.981  1.00  0.00     0.123 C 
BRANCH  16  20
HETATM   20  C   UNL     1      39.737  -9.189   8.208  1.00  0.00     0.223 C 
HETATM   21  N   UNL     1      40.309  -9.769   9.315  1.00  0.00    -0.358 N 
HETATM   22  H   UNL     1      41.277 -10.072   9.280  1.00  0.00     0.162 HD
HETATM   23  O   UNL     1      38.688  -8.551   8.263  1.00  0.00    -0.273 OA
BRANCH  21  24
HETATM   24  C   UNL     1      39.783  -9.536  10.650  1.00  0.00     0.154 C 
BRANCH  24  25
HETATM   25  C   UNL     1      40.889  -9.080  11.600  1.00  0.00     0.139 C 
HETATM   26  O   UNL     1      41.247 -10.156  12.496  1.00  0.00    -0.384 OA
HETATM   27  C   UNL     1      42.677 -10.184  12.619  1.00  0.00     0.168 C 
HETATM   28  C   UNL     1      43.202  -8.926  11.960  1.00  0.00     0.029 C 
HETATM   29  C   UNL     1      42.169  -8.681  10.888  1.00  0.00     0.035 C 
ENDBRANCH  24  25
ENDBRANCH  21  24
ENDBRANCH  16  20
ENDBRANCH   2  14
BRANCH   1  30
HETATM   30  C   UNL     1      42.734 -12.584   5.031  1.00  0.00    -0.023 A 
HETATM   31  C   UNL     1      43.757 -11.782   4.506  1.00  0.00     0.012 A 
HETATM   32  C   UNL     1      44.870 -11.464   5.285  1.00  0.00     0.001 A 
HETATM   33  C   UNL     1      44.969 -11.942   6.591  1.00  0.00     0.000 A 
HETATM   34  C   UNL     1      43.957 -12.741   7.121  1.00  0.00     0.001 A 
HETATM   35  C   UNL     1      42.841 -13.061   6.345  1.00  0.00     0.012 A 
ENDBRANCH   1  30
TORSDOF 5
ENDMDL
MODEL 5
REMARK VINA RESULT:      -8.4      3.085      5.621
REMARK  5 active torsions:
REMARK  status: ('A' for Active; 'I' for Inactive)
REMARK    1  A    between atoms: C_4  and  C_5 
REMARK    2  A    between atoms: C_6  and  N_7 
REMARK    3  A    between atoms: C_9  and  C_10 
REMARK       I    between atoms: C_10  and  N_11 
REMARK    4  A    between atoms: N_11  and  C_12 
REMARK    5  A    between atoms: C_12  and  C_13 
ROOT
HETATM    1  C   UNL     1      40.772 -13.087   1.335  1.00  0.00     0.019 A 
HETATM    2  C   UNL     1      41.018 -11.894   1.939  1.00  0.00     0.111 A 
HETATM    3  C   UNL     1      40.522 -10.614   1.274  1.00  0.00     0.273 A 
HETATM    4  O   UNL     1      40.744  -9.496   1.739  1.00  0.00    -0.266 OA
HETATM    5  N   UNL     1      39.822 -10.728   0.109  1.00  0.00    -0.321 N 
HETATM    6  C   UNL     1      39.554 -11.940  -0.519  1.00  0.00     0.046 A 
HETATM    7  C   UNL     1      40.009 -13.131   0.058  1.00  0.00     0.006 A 
HETATM    8  C   UNL     1      38.837 -11.938  -1.718  1.00  0.00     0.032 A 
HETATM    9  C   UNL     1      38.564 -13.144  -2.361  1.00  0.00     0.026 A 
HETATM   10  C   UNL     1      39.006 -14.338  -1.798  1.00  0.00     0.035 A 
HETATM   11 CL   UNL     1      38.669 -15.828  -2.591  1.00  0.00    -0.084 Cl
HETATM   12  C   UNL     1      39.720 -14.338  -0.598  1.00  0.00     0.038 A 
HETATM   13  H   UNL     1      39.512  -9.855  -0.295  1.00  0.00     0.169 HD
ENDROOT
BRANCH   2  14
HETATM   14  N   UNL     1      41.746 -11.756   3.147  1.00  0.00    -0.375 N 
HETATM   15  C   UNL     1      41.133 -11.013   4.271  1.00  0.00     0.137 C 
HETATM   16  C   UNL     1      41.788 -11.429   5.590  1.00  0.00     0.096 C 
HETATM   17  C   UNL     1      43.309 -11.243   5.537  1.00  0.00     0.017 C 
HETATM   18  C   UNL     1      43.893 -11.957   4.320  1.00  0.00     0.021 C 
HETATM   19  C   UNL     1      43.197 -11.514   3.035  1.00  0.00     0.123 C 
BRANCH  16  20
HETATM   20  C   UNL     1      41.156 -10.672   6.749  1.00  0.00     0.223 C 
HETATM   21  N   UNL     1      42.028 -10.163   7.682  1.00  0.00    -0.358 N 
HETATM   22  H   UNL     1      43.016 -10.091   7.462  1.00  0.00     0.162 HD
HETATM   23  O   UNL     1      39.939 -10.524   6.832  1.00  0.00    -0.273 OA
BRANCH  21  24
HETATM   24  C   UNL     1      41.570  -9.289   8.750  1.00  0.00     0.154 C 
BRANCH  24  25
HETATM   25  C   UNL     1      42.660  -9.098   9.803  1.00  0.00     0.139 C 
HETATM   26  O   UNL     1      42.454 -10.016  10.901  1.00  0.00    -0.384 OA
HETATM   27  C   UNL     1      43.729 -10.557  11.281  1.00  0.00     0.168 C 
HETATM   28  C   UNL     1      44.785  -9.761  10.544  1.00  0.00     0.029 C 
HETATM   29  C   UNL     1      44.059  -9.373   9.280  1.00  0.00     0.035 C 
ENDBRANCH  24  25
ENDBRANCH  21  24
ENDBRANCH  16  20
ENDBRANCH   2  14
BRANCH   1  30
HETATM   30  C   UNL     1      41.277 -14.314   2.008  1.00  0.00    -0.023 A 
HETATM   31  C   UNL     1      40.514 -14.945   3.000  1.00  0.00     0.012 A 
HETATM   32  C   UNL     1      40.977 -16.114   3.605  1.00  0.00     0.001 A 
HETATM   33  C   UNL     1      42.202 -16.660   3.224  1.00  0.00     0.000 A 
HETATM   34  C   UNL     1      42.967 -16.039   2.237  1.00  0.00     0.001 A 
HETATM   35  C   UNL     1      42.507 -14.870   1.629  1.00  0.00     0.012 A 
ENDBRANCH   1  30
TORSDOF 5
ENDMDL
MODEL 6
REMARK VINA RESULT:      -8.1      4.357      9.523
REMARK  5 active torsions:
REMARK  status: ('A' for Active; 'I' for Inactive)
REMARK    1  A    between atoms: C_4  and  C_5 
REMARK    2  A    between atoms: C_6  and  N_7 
REMARK    3  A    between atoms: C_9  and  C_10 
REMARK       I    between atoms: C_10  and  N_11 
REMARK    4  A    between atoms: N_11  and  C_12 
REMARK    5  A    between atoms: C_12  and  C_13 
ROOT
HETATM    1  C   UNL     1      42.092  -8.954  10.182  1.00  0.00     0.019 A 
HETATM    2  C   UNL     1      43.121  -9.841  10.216  1.00  0.00     0.111 A 
HETATM    3  C   UNL     1      43.397 -10.603  11.509  1.00  0.00     0.273 A 
HETATM    4  O   UNL     1      44.336 -11.390  11.627  1.00  0.00    -0.266 OA
HETATM    5  N   UNL     1      42.571 -10.379  12.571  1.00  0.00    -0.321 N 
HETATM    6  C   UNL     1      41.510  -9.482  12.552  1.00  0.00     0.046 A 
HETATM    7  C   UNL     1      41.241  -8.756  11.386  1.00  0.00     0.006 A 
HETATM    8  C   UNL     1      40.736  -9.323  13.705  1.00  0.00     0.032 A 
HETATM    9  C   UNL     1      39.670  -8.425  13.703  1.00  0.00     0.026 A 
HETATM   10  C   UNL     1      39.386  -7.698  12.550  1.00  0.00     0.035 A 
HETATM   11 CL   UNL     1      38.071  -6.588  12.546  1.00  0.00    -0.084 Cl
HETATM   12  C   UNL     1      40.160  -7.861  11.398  1.00  0.00     0.038 A 
HETATM   13  H   UNL     1      42.790 -10.906  13.405  1.00  0.00     0.169 HD
ENDROOT
BRANCH   2  14
HETATM   14  N   UNL     1      43.991 -10.084   9.124  1.00  0.00    -0.375 N 
HETATM   15  C   UNL     1      43.756 -11.273   8.273  1.00  0.00     0.137 C 
HETATM   16  C   UNL     1      44.405 -11.070   6.903  1.00  0.00     0.096 C 
HETATM   17  C   UNL     1      45.898 -10.742   7.038  1.00  0.00     0.017 C 
HETATM   18  C   UNL     1      46.102  -9.562   7.986  1.00  0.00     0.021 C 
HETATM   19  C   UNL     1      45.425  -9.813   9.332  1.00  0.00     0.123 C 
BRANCH  16  20
HETATM   20  C   UNL     1      44.161 -12.288   6.023  1.00  0.00     0.223 C 
HETATM   21  N   UNL     1      44.040 -13.490   6.679  1.00  0.00    -0.358 N 
HETATM   22  H   UNL     1      43.877 -13.503   7.681  1.00  0.00     0.162 HD
HETATM   23  O   UNL     1      44.073 -12.189   4.802  1.00  0.00    -0.273 OA
BRANCH  21  24
HETATM   24  C   UNL     1      43.652 -14.701   5.976  1.00  0.00     0.154 C 
BRANCH  24  25
HETATM   25  C   UNL     1      42.131 -14.818   5.891  1.00  0.00     0.139 C 
HETATM   26  O   UNL     1      41.736 -15.158   4.542  1.00  0.00    -0.384 OA
HETATM   27  C   UNL     1      40.700 -16.150   4.611  1.00  0.00     0.168 C 
HETATM   28  C   UNL     1      40.279 -16.249   6.062  1.00  0.00     0.029 C 
HETATM   29  C   UNL     1      41.559 -15.906   6.783  1.00  0.00     0.035 C 
ENDBRANCH  24  25
ENDBRANCH  21  24
ENDBRANCH  16  20
ENDBRANCH   2  14
BRANCH   1  30
HETATM   30  C   UNL     1      41.857  -8.223   8.908  1.00  0.00    -0.023 A 
HETATM   31  C   UNL     1      41.029  -8.769   7.918  1.00  0.00     0.012 A 
HETATM   32  C   UNL     1      40.785  -8.066   6.738  1.00  0.00     0.001 A 
HETATM   33  C   UNL     1      41.365  -6.813   6.539  1.00  0.00     0.000 A 
HETATM   34  C   UNL     1      42.191  -6.262   7.519  1.00  0.00     0.001 A 
HETATM   35  C   UNL     1      42.436  -6.963   8.701  1.00  0.00     0.012 A 
ENDBRANCH   1  30
TORSDOF 5
ENDMDL
MODEL 7
REMARK VINA RESULT:      -8.0      3.590      5.220
REMARK  5 active torsions:
REMARK  status: ('A' for Active; 'I' for Inactive)
REMARK    1  A    between atoms: C_4  and  C_5 
REMARK    2  A    between atoms: C_6  and  N_7 
REMARK    3  A    between atoms: C_9  and  C_10 
REMARK       I    between atoms: C_10  and  N_11 
REMARK    4  A    between atoms: N_11  and  C_12 
REMARK    5  A    between atoms: C_12  and  C_13 
ROOT
HETATM    1  C   UNL     1      39.855 -11.788   2.935  1.00  0.00     0.019 A 
HETATM    2  C   UNL     1      39.898 -11.806   4.294  1.00  0.00     0.111 A 
HETATM    3  C   UNL     1      39.974 -13.150   5.012  1.00  0.00     0.273 A 
HETATM    4  O   UNL     1      39.974 -13.246   6.239  1.00  0.00    -0.266 OA
HETATM    5  N   UNL     1      40.025 -14.280   4.250  1.00  0.00    -0.321 N 
HETATM    6  C   UNL     1      39.989 -14.280   2.860  1.00  0.00     0.046 A 
HETATM    7  C   UNL     1      39.904 -13.065   2.172  1.00  0.00     0.006 A 
HETATM    8  C   UNL     1      40.035 -15.501   2.181  1.00  0.00     0.032 A 
HETATM    9  C   UNL     1      39.996 -15.518   0.789  1.00  0.00     0.026 A 
HETATM   10  C   UNL     1      39.916 -14.317   0.088  1.00  0.00     0.035 A 
HETATM   11 CL   UNL     1      39.868 -14.337  -1.632  1.00  0.00    -0.084 Cl
HETATM   12  C   UNL     1      39.874 -13.098   0.769  1.00  0.00     0.038 A 
HETATM   13  H   UNL     1      40.075 -15.146   4.768  1.00  0.00     0.169 HD
ENDROOT
BRANCH   2  14
HETATM   14  N   UNL     1      39.843 -10.643   5.101  1.00  0.00    -0.375 N 
HETATM   15  C   UNL     1      40.885 -10.437   6.132  1.00  0.00     0.137 C 
HETATM   16  C   UNL     1      40.977  -8.953   6.492  1.00  0.00     0.096 C 
HETATM   17  C   UNL     1      39.615  -8.402   6.930  1.00  0.00     0.017 C 
HETATM   18  C   UNL     1      38.551  -8.704   5.876  1.00  0.00     0.021 C 
HETATM   19  C   UNL     1      38.511 -10.195   5.547  1.00  0.00     0.123 C 
BRANCH  16  20
HETATM   20  C   UNL     1      42.052  -8.737   7.549  1.00  0.00     0.223 C 
HETATM   21  N   UNL     1      42.318  -9.811   8.364  1.00  0.00    -0.358 N 
HETATM   22  H   UNL     1      41.995 -10.736   8.101  1.00  0.00     0.162 HD
HETATM   23  O   UNL     1      42.643  -7.665   7.652  1.00  0.00    -0.273 OA
BRANCH  21  24
HETATM   24  C   UNL     1      43.425  -9.790   9.307  1.00  0.00     0.154 C 
BRANCH  24  25
HETATM   25  C   UNL     1      44.589 -10.640   8.801  1.00  0.00     0.139 C 
HETATM   26  O   UNL     1      44.086 -11.775   8.058  1.00  0.00    -0.384 OA
HETATM   27  C   UNL     1      44.902 -11.946   6.889  1.00  0.00     0.168 C 
HETATM   28  C   UNL     1      46.094 -11.026   7.044  1.00  0.00     0.029 C 
HETATM   29  C   UNL     1      45.514  -9.895   7.856  1.00  0.00     0.035 C 
ENDBRANCH  24  25
ENDBRANCH  21  24
ENDBRANCH  16  20
ENDBRANCH   2  14
BRANCH   1  30
HETATM   30  C   UNL     1      39.774 -10.461   2.268  1.00  0.00    -0.023 A 
HETATM   31  C   UNL     1      40.942  -9.764   1.929  1.00  0.00     0.012 A 
HETATM   32  C   UNL     1      40.862  -8.534   1.274  1.00  0.00     0.001 A 
HETATM   33  C   UNL     1      39.617  -7.993   0.953  1.00  0.00     0.000 A 
HETATM   34  C   UNL     1      38.450  -8.679   1.287  1.00  0.00     0.001 A 
HETATM   35  C   UNL     1      38.526  -9.910   1.942  1.00  0.00     0.012 A 
ENDBRANCH   1  30
TORSDOF 5
ENDMDL
MODEL 8
REMARK VINA RESULT:      -7.9      3.937      6.010
REMARK  5 active torsions:
REMARK  status: ('A' for Active; 'I' for Inactive)
REMARK    1  A    between atoms: C_4  and  C_5 
REMARK    2  A    between atoms: C_6  and  N_7 
REMARK    3  A    between atoms: C_9  and  C_10 
REMARK       I    between atoms: C_10  and  N_11 
REMARK    4  A    between atoms: N_11  and  C_12 
REMARK    5  A    between atoms: C_12  and  C_13 
ROOT
HETATM    1  C   UNL     1      40.357 -12.282   1.401  1.00  0.00     0.019 A 
HETATM    2  C   UNL     1      41.115 -13.201   2.056  1.00  0.00     0.111 A 
HETATM    3  C   UNL     1      41.534 -14.471   1.323  1.00  0.00     0.273 A 
HETATM    4  O   UNL     1      42.184 -15.366   1.864  1.00  0.00    -0.266 OA
HETATM    5  N   UNL     1      41.151 -14.614   0.022  1.00  0.00    -0.321 N 
HETATM    6  C   UNL     1      40.383 -13.682  -0.667  1.00  0.00     0.046 A 
HETATM    7  C   UNL     1      39.969 -12.514  -0.016  1.00  0.00     0.006 A 
HETATM    8  C   UNL     1      40.037 -13.938  -1.997  1.00  0.00     0.032 A 
HETATM    9  C   UNL     1      39.265 -13.015  -2.699  1.00  0.00     0.026 A 
HETATM   10  C   UNL     1      38.849 -11.845  -2.068  1.00  0.00     0.035 A 
HETATM   11 CL   UNL     1      37.894 -10.706  -2.934  1.00  0.00    -0.084 Cl
HETATM   12  C   UNL     1      39.198 -11.591  -0.740  1.00  0.00     0.038 A 
HETATM   13  H   UNL     1      41.451 -15.470  -0.424  1.00  0.00     0.169 HD
ENDROOT
BRANCH   2  14
HETATM   14  N   UNL     1      41.520 -13.071   3.408  1.00  0.00    -0.375 N 
HETATM   15  C   UNL     1      42.875 -12.555   3.703  1.00  0.00     0.137 C 
HETATM   16  C   UNL     1      42.921 -11.989   5.124  1.00  0.00     0.096 C 
HETATM   17  C   UNL     1      42.463 -13.031   6.152  1.00  0.00     0.017 C 
HETATM   18  C   UNL     1      41.097 -13.597   5.769  1.00  0.00     0.021 C 
HETATM   19  C   UNL     1      41.106 -14.137   4.341  1.00  0.00     0.123 C 
BRANCH  16  20
HETATM   20  C   UNL     1      44.311 -11.451   5.429  1.00  0.00     0.223 C 
HETATM   21  N   UNL     1      44.578 -11.188   6.751  1.00  0.00    -0.358 N 
HETATM   22  H   UNL     1      43.972 -11.567   7.472  1.00  0.00     0.162 HD
HETATM   23  O   UNL     1      45.140 -11.274   4.540  1.00  0.00    -0.273 OA
BRANCH  21  24
HETATM   24  C   UNL     1      45.912 -10.821   7.197  1.00  0.00     0.154 C 
BRANCH  24  25
HETATM   25  C   UNL     1      45.847  -9.791   8.323  1.00  0.00     0.139 C 
HETATM   26  O   UNL     1      45.127  -8.618   7.879  1.00  0.00    -0.384 OA
HETATM   27  C   UNL     1      44.256  -8.195   8.939  1.00  0.00     0.168 C 
HETATM   28  C   UNL     1      44.631  -8.999  10.166  1.00  0.00     0.029 C 
HETATM   29  C   UNL     1      45.118 -10.291   9.557  1.00  0.00     0.035 C 
ENDBRANCH  24  25
ENDBRANCH  21  24
ENDBRANCH  16  20
ENDBRANCH   2  14
BRANCH   1  30
HETATM   30  C   UNL     1      39.960 -11.060   2.149  1.00  0.00    -0.023 A 
HETATM   31  C   UNL     1      40.735  -9.895   2.069  1.00  0.00     0.012 A 
HETATM   32  C   UNL     1      40.342  -8.740   2.747  1.00  0.00     0.001 A 
HETATM   33  C   UNL     1      39.173  -8.741   3.507  1.00  0.00     0.000 A 
HETATM   34  C   UNL     1      38.396  -9.895   3.594  1.00  0.00     0.001 A 
HETATM   35  C   UNL     1      38.786 -11.052   2.916  1.00  0.00     0.012 A 
ENDBRANCH   1  30
TORSDOF 5
ENDMDL
MODEL 9
REMARK VINA RESULT:      -7.8      3.428      5.254
REMARK  5 active torsions:
REMARK  status: ('A' for Active; 'I' for Inactive)
REMARK    1  A    between atoms: C_4  and  C_5 
REMARK    2  A    between atoms: C_6  and  N_7 
REMARK    3  A    between atoms: C_9  and  C_10 
REMARK       I    between atoms: C_10  and  N_11 
REMARK    4  A    between atoms: N_11  and  C_12 
REMARK    5  A    between atoms: C_12  and  C_13 
ROOT
HETATM    1  C   UNL     1      42.258 -12.369   6.315  1.00  0.00     0.019 A 
HETATM    2  C   UNL     1      41.243 -11.489   6.108  1.00  0.00     0.111 A 
HETATM    3  C   UNL     1      39.850 -12.027   5.793  1.00  0.00     0.273 A 
HETATM    4  O   UNL     1      38.894 -11.291   5.553  1.00  0.00    -0.266 OA
HETATM    5  N   UNL     1      39.680 -13.380   5.764  1.00  0.00    -0.321 N 
HETATM    6  C   UNL     1      40.703 -14.295   5.981  1.00  0.00     0.046 A 
HETATM    7  C   UNL     1      41.995 -13.833   6.256  1.00  0.00     0.006 A 
HETATM    8  C   UNL     1      40.416 -15.662   5.914  1.00  0.00     0.032 A 
HETATM    9  C   UNL     1      41.433 -16.591   6.125  1.00  0.00     0.026 A 
HETATM   10  C   UNL     1      42.723 -16.148   6.405  1.00  0.00     0.035 A 
HETATM   11 CL   UNL     1      43.978 -17.296   6.666  1.00  0.00    -0.084 Cl
HETATM   12  C   UNL     1      43.006 -14.782   6.474  1.00  0.00     0.038 A 
HETATM   13  H   UNL     1      38.742 -13.691   5.553  1.00  0.00     0.169 HD
ENDROOT
BRANCH   2  14
HETATM   14  N   UNL     1      41.402 -10.081   6.132  1.00  0.00    -0.375 N 
HETATM   15  C   UNL     1      41.178  -9.356   7.402  1.00  0.00     0.137 C 
HETATM   16  C   UNL     1      41.901  -8.009   7.370  1.00  0.00     0.096 C 
HETATM   17  C   UNL     1      41.477  -7.180   6.151  1.00  0.00     0.017 C 
HETATM   18  C   UNL     1      41.649  -7.991   4.867  1.00  0.00     0.021 C 
HETATM   19  C   UNL     1      40.918  -9.328   4.959  1.00  0.00     0.123 C 
BRANCH  16  20
HETATM   20  C   UNL     1      41.677  -7.263   8.678  1.00  0.00     0.223 C 
HETATM   21  N   UNL     1      42.534  -7.580   9.705  1.00  0.00    -0.358 N 
HETATM   22  H   UNL     1      43.393  -8.084   9.508  1.00  0.00     0.162 HD
HETATM   23  O   UNL     1      40.787  -6.425   8.794  1.00  0.00    -0.273 OA
BRANCH  21  24
HETATM   24  C   UNL     1      42.531  -6.833  10.952  1.00  0.00     0.154 C 
BRANCH  24  25
HETATM   25  C   UNL     1      41.921  -7.661  12.082  1.00  0.00     0.139 C 
HETATM   26  O   UNL     1      41.733  -9.027  11.649  1.00  0.00    -0.384 OA
HETATM   27  C   UNL     1      42.132  -9.899  12.718  1.00  0.00     0.168 C 
HETATM   28  C   UNL     1      42.350  -9.030  13.938  1.00  0.00     0.029 C 
HETATM   29  C   UNL     1      42.797  -7.729  13.320  1.00  0.00     0.035 C 
ENDBRANCH  24  25
ENDBRANCH  21  24
ENDBRANCH  16  20
ENDBRANCH   2  14
BRANCH   1  30
HETATM   30  C   UNL     1      43.604 -11.810   6.612  1.00  0.00    -0.023 A 
HETATM   31  C   UNL     1      43.945 -11.437   7.919  1.00  0.00     0.012 A 
HETATM   32  C   UNL     1      45.220 -10.942   8.199  1.00  0.00     0.001 A 
HETATM   33  C   UNL     1      46.160 -10.818   7.177  1.00  0.00     0.000 A 
HETATM   34  C   UNL     1      45.829 -11.186   5.873  1.00  0.00     0.001 A 
HETATM   35  C   UNL     1      44.555 -11.682   5.590  1.00  0.00     0.012 A 
ENDBRANCH   1  30
TORSDOF 5
ENDMDL
MODEL 10
REMARK VINA RESULT:      -7.6     16.624     19.786
REMARK  5 active torsions:
REMARK  status: ('A' for Active; 'I' for Inactive)
REMARK    1  A    between atoms: C_4  and  C_5 
REMARK    2  A    between atoms: C_6  and  N_7 
REMARK    3  A    between atoms: C_9  and  C_10 
REMARK       I    between atoms: C_10  and  N_11 
REMARK    4  A    between atoms: N_11  and  C_12 
REMARK    5  A    between atoms: C_12  and  C_13 
ROOT
HETATM    1  C   UNL     1      46.188 -29.957   0.794  1.00  0.00     0.019 A 
HETATM    2  C   UNL     1      46.672 -29.673  -0.444  1.00  0.00     0.111 A 
HETATM    3  C   UNL     1      48.160 -29.374  -0.605  1.00  0.00     0.273 A 
HETATM    4  O   UNL     1      48.661 -29.069  -1.686  1.00  0.00    -0.266 OA
HETATM    5  N   UNL     1      48.947 -29.434   0.507  1.00  0.00    -0.321 N 
HETATM    6  C   UNL     1      48.471 -29.729   1.780  1.00  0.00     0.046 A 
HETATM    7  C   UNL     1      47.109 -29.993   1.962  1.00  0.00     0.006 A 
HETATM    8  C   UNL     1      49.369 -29.751   2.851  1.00  0.00     0.032 A 
HETATM    9  C   UNL     1      48.906 -30.041   4.133  1.00  0.00     0.026 A 
HETATM   10  C   UNL     1      47.554 -30.311   4.331  1.00  0.00     0.035 A 
HETATM   11 CL   UNL     1      46.982 -30.669   5.914  1.00  0.00    -0.084 Cl
HETATM   12  C   UNL     1      46.660 -30.291   3.259  1.00  0.00     0.038 A 
HETATM   13  H   UNL     1      49.925 -29.230   0.354  1.00  0.00     0.169 HD
ENDROOT
BRANCH   2  14
HETATM   14  N   UNL     1      45.869 -29.604  -1.609  1.00  0.00    -0.375 N 
HETATM   15  C   UNL     1      45.684 -30.824  -2.425  1.00  0.00     0.137 C 
HETATM   16  C   UNL     1      44.414 -30.702  -3.269  1.00  0.00     0.096 C 
HETATM   17  C   UNL     1      44.438 -29.431  -4.127  1.00  0.00     0.017 C 
HETATM   18  C   UNL     1      44.710 -28.204  -3.260  1.00  0.00     0.021 C 
HETATM   19  C   UNL     1      45.981 -28.385  -2.433  1.00  0.00     0.123 C 
BRANCH  16  20
HETATM   20  C   UNL     1      44.217 -31.958  -4.105  1.00  0.00     0.223 C 
HETATM   21  N   UNL     1      44.273 -31.788  -5.468  1.00  0.00    -0.358 N 
HETATM   22  H   UNL     1      44.665 -30.935  -5.854  1.00  0.00     0.162 HD
HETATM   23  O   UNL     1      44.028 -33.053  -3.583  1.00  0.00    -0.273 OA
BRANCH  21  24
HETATM   24  C   UNL     1      44.257 -32.924  -6.375  1.00  0.00     0.154 C 
BRANCH  24  25
HETATM   25  C   UNL     1      45.670 -33.263  -6.849  1.00  0.00     0.139 C 
HETATM   26  O   UNL     1      45.678 -33.450  -8.282  1.00  0.00    -0.384 OA
HETATM   27  C   UNL     1      46.848 -32.809  -8.814  1.00  0.00     0.168 C 
HETATM   28  C   UNL     1      47.711 -32.417  -7.634  1.00  0.00     0.029 C 
HETATM   29  C   UNL     1      46.681 -32.168  -6.561  1.00  0.00     0.035 C 
ENDBRANCH  24  25
ENDBRANCH  21  24
ENDBRANCH  16  20
ENDBRANCH   2  14
BRANCH   1  30
HETATM   30  C   UNL     1      44.732 -30.236   0.915  1.00  0.00    -0.023 A 
HETATM   31  C   UNL     1      44.258 -31.554   0.893  1.00  0.00     0.012 A 
HETATM   32  C   UNL     1      42.894 -31.814   1.039  1.00  0.00     0.001 A 
HETATM   33  C   UNL     1      41.997 -30.760   1.209  1.00  0.00     0.000 A 
HETATM   34  C   UNL     1      42.460 -29.445   1.232  1.00  0.00     0.001 A 
HETATM   35  C   UNL     1      43.824 -29.182   1.087  1.00  0.00     0.012 A 
ENDBRANCH   1  30
TORSDOF 5
ENDMDL
