MODEL 1
REMARK VINA RESULT:      -7.6      0.000      0.000
REMARK  5 active torsions:
REMARK  status: ('A' for Active; 'I' for Inactive)
REMARK    1  A    between atoms: C_11  and  N_12 
REMARK       I    between atoms: N_12  and  C_13 
REMARK       I    between atoms: C_13  and  N_14 
REMARK    2  A    between atoms: N_14  and  C_15 
REMARK    3  A    between atoms: C_15  and  C_16 
REMARK    4  A    between atoms: C_16  and  N_17 
REMARK    5  A    between atoms: C_16  and  C_21 
ROOT
HETATM    1  N   UNL     1      42.653 -13.094   6.128  1.00  0.00    -0.309 N 
HETATM    2  C   UNL     1      41.591 -12.398   5.653  1.00  0.00     0.320 C 
HETATM    3  N   UNL     1      40.607 -13.069   5.010  1.00  0.00    -0.341 N 
HETATM    4  O   UNL     1      41.542 -11.175   5.793  1.00  0.00    -0.247 OA
HETATM    5  H   UNL     1      43.390 -12.473   6.449  1.00  0.00     0.170 HD
HETATM    6  H   UNL     1      40.954 -13.882   4.515  1.00  0.00     0.164 HD
ENDROOT
BRANCH   1   7
HETATM    7  C   UNL     1      42.923 -14.470   6.278  1.00  0.00     0.038 A 
HETATM    8  C   UNL     1      43.018 -15.142   7.493  1.00  0.00     0.032 A 
HETATM    9  C   UNL     1      43.251 -16.523   7.513  1.00  0.00     0.036 A 
HETATM   10  C   UNL     1      43.427 -17.249   6.345  1.00  0.00     0.086 A 
HETATM   11  N   UNL     1      43.634 -18.575   6.406  1.00  0.00    -0.250 NA
HETATM   12  C   UNL     1      43.395 -16.566   5.112  1.00  0.00     0.088 A 
HETATM   13  C   UNL     1      43.824 -19.229   5.231  1.00  0.00     0.055 A 
HETATM   14  C   UNL     1      44.039 -20.710   5.318  1.00  0.00     0.072 C 
HETATM   15  C   UNL     1      43.822 -18.550   4.013  1.00  0.00     0.055 A 
HETATM   16  N   UNL     1      43.596 -17.212   3.951  1.00  0.00    -0.250 NA
HETATM   17  C   UNL     1      44.066 -19.248   2.710  1.00  0.00     0.072 C 
HETATM   18  C   UNL     1      43.145 -15.198   5.101  1.00  0.00     0.063 A 
ENDBRANCH   1   7
BRANCH   3  19
HETATM   19  C   UNL     1      39.421 -12.454   4.409  1.00  0.00     0.163 C 
BRANCH  19  20
HETATM   20  C   UNL     1      39.073 -12.849   2.932  1.00  0.00     0.244 C 
BRANCH  20  21
HETATM   21  N   UNL     1      39.053 -11.630   2.002  1.00  0.00    -0.068 N 
HETATM   22  H   UNL     1      39.749 -11.882   1.269  1.00  0.00     0.279 HD
HETATM   23  C   UNL     1      37.778 -11.341   1.279  1.00  0.00     0.270 C 
HETATM   24  C   UNL     1      39.614 -10.394   2.642  1.00  0.00     0.270 C 
ENDBRANCH  20  21
BRANCH  20  25
HETATM   25  C   UNL     1      39.966 -13.961   2.430  1.00  0.00     0.015 A 
HETATM   26  S   UNL     1      41.425 -13.559   1.609  1.00  0.00    -0.104 SA
HETATM   27  C   UNL     1      41.832 -15.198   1.377  1.00  0.00     0.050 A 
HETATM   28  C   UNL     1      40.880 -16.044   1.897  1.00  0.00     0.008 A 
HETATM   29  C   UNL     1      39.801 -15.333   2.501  1.00  0.00     0.017 A 
ENDBRANCH  20  25
ENDBRANCH  19  20
ENDBRANCH   3  19
TORSDOF 5
ENDMDL
MODEL 2
REMARK VINA RESULT:      -7.6      3.754      6.033
REMARK  5 active torsions:
REMARK  status: ('A' for Active; 'I' for Inactive)
REMARK    1  A    between atoms: C_11  and  N_12 
REMARK       I    between atoms: N_12  and  C_13 
REMARK       I    between atoms: C_13  and  N_14 
REMARK    2  A    between atoms: N_14  and  C_15 
REMARK    3  A    between atoms: C_15  and  C_16 
REMARK    4  A    between atoms: C_16  and  N_17 
REMARK    5  A    between atoms: C_16  and  C_21 
ROOT
HETATM    1  N   UNL     1      41.321 -13.540   5.713  1.00  0.00    -0.309 N 
HETATM    2  C   UNL     1      41.701 -12.277   6.027  1.00  0.00     0.320 C 
HETATM    3  N   UNL     1      42.770 -12.102   6.838  1.00  0.00    -0.341 N 
HETATM    4  O   UNL     1      41.066 -11.315   5.592  1.00  0.00    -0.247 OA
HETATM    5  H   UNL     1      40.426 -13.549   5.231  1.00  0.00     0.170 HD
HETATM    6  H   UNL     1      42.872 -12.854   7.510  1.00  0.00     0.164 HD
ENDROOT
BRANCH   1   7
HETATM    7  C   UNL     1      41.912 -14.806   5.899  1.00  0.00     0.038 A 
HETATM    8  C   UNL     1      42.212 -15.380   7.131  1.00  0.00     0.032 A 
HETATM    9  C   UNL     1      42.763 -16.666   7.189  1.00  0.00     0.036 A 
HETATM   10  C   UNL     1      43.058 -17.385   6.040  1.00  0.00     0.086 A 
HETATM   11  N   UNL     1      43.572 -18.622   6.139  1.00  0.00    -0.250 NA
HETATM   12  C   UNL     1      42.816 -16.787   4.787  1.00  0.00     0.088 A 
HETATM   13  C   UNL     1      43.863 -19.268   4.980  1.00  0.00     0.055 A 
HETATM   14  C   UNL     1      44.423 -20.653   5.110  1.00  0.00     0.072 C 
HETATM   15  C   UNL     1      43.651 -18.666   3.740  1.00  0.00     0.055 A 
HETATM   16  N   UNL     1      43.115 -17.422   3.641  1.00  0.00    -0.250 NA
HETATM   17  C   UNL     1      43.999 -19.349   2.453  1.00  0.00     0.072 C 
HETATM   18  C   UNL     1      42.251 -15.517   4.739  1.00  0.00     0.063 A 
ENDBRANCH   1   7
BRANCH   3  19
HETATM   19  C   UNL     1      43.276 -10.806   7.297  1.00  0.00     0.163 C 
BRANCH  19  20
HETATM   20  C   UNL     1      44.317 -10.811   8.470  1.00  0.00     0.244 C 
BRANCH  20  21
HETATM   21  N   UNL     1      45.747 -10.579   7.969  1.00  0.00    -0.068 N 
HETATM   22  H   UNL     1      46.328 -11.066   8.684  1.00  0.00     0.279 HD
HETATM   23  C   UNL     1      46.119 -11.183   6.655  1.00  0.00     0.270 C 
HETATM   24  C   UNL     1      46.174  -9.143   8.056  1.00  0.00     0.270 C 
ENDBRANCH  20  21
BRANCH  20  25
HETATM   25  C   UNL     1      43.914  -9.858   9.573  1.00  0.00     0.015 A 
HETATM   26  S   UNL     1      42.735  -8.648   9.246  1.00  0.00    -0.104 SA
HETATM   27  C   UNL     1      42.819  -8.033  10.834  1.00  0.00     0.050 A 
HETATM   28  C   UNL     1      43.732  -8.717  11.604  1.00  0.00     0.008 A 
HETATM   29  C   UNL     1      44.367  -9.767  10.878  1.00  0.00     0.017 A 
ENDBRANCH  20  25
ENDBRANCH  19  20
ENDBRANCH   3  19
TORSDOF 5
ENDMDL
MODEL 3
REMARK VINA RESULT:      -7.4      3.714      7.353
REMARK  5 active torsions:
REMARK  status: ('A' for Active; 'I' for Inactive)
REMARK    1  A    between atoms: C_11  and  N_12 
REMARK       I    between atoms: N_12  and  C_13 
REMARK       I    between atoms: C_13  and  N_14 
REMARK    2  A    between atoms: N_14  and  C_15 
REMARK    3  A    between atoms: C_15  and  C_16 
REMARK    4  A    between atoms: C_16  and  N_17 
REMARK    5  A    between atoms: C_16  and  C_21 
ROOT
HETATM    1  N   UNL     1      43.628 -11.752   4.316  1.00  0.00    -0.309 N 
HETATM    2  C   UNL     1      43.186 -12.920   3.789  1.00  0.00     0.320 C 
HETATM    3  N   UNL     1      43.164 -14.022   4.575  1.00  0.00    -0.341 N 
HETATM    4  O   UNL     1      42.831 -12.970   2.610  1.00  0.00    -0.247 OA
HETATM    5  H   UNL     1      43.744 -11.042   3.598  1.00  0.00     0.170 HD
HETATM    6  H   UNL     1      43.902 -14.015   5.269  1.00  0.00     0.164 HD
ENDROOT
BRANCH   1   7
HETATM    7  C   UNL     1      43.933 -11.332   5.626  1.00  0.00     0.038 A 
HETATM    8  C   UNL     1      45.145 -11.544   6.276  1.00  0.00     0.032 A 
HETATM    9  C   UNL     1      45.344 -11.042   7.569  1.00  0.00     0.036 A 
HETATM   10  C   UNL     1      44.345 -10.359   8.246  1.00  0.00     0.086 A 
HETATM   11  N   UNL     1      44.581  -9.880   9.480  1.00  0.00    -0.250 NA
HETATM   12  C   UNL     1      43.093 -10.195   7.621  1.00  0.00     0.088 A 
HETATM   13  C   UNL     1      43.558  -9.242  10.104  1.00  0.00     0.055 A 
HETATM   14  C   UNL     1      43.843  -8.702  11.473  1.00  0.00     0.072 C 
HETATM   15  C   UNL     1      42.309  -9.104   9.497  1.00  0.00     0.055 A 
HETATM   16  N   UNL     1      42.077  -9.573   8.244  1.00  0.00    -0.250 NA
HETATM   17  C   UNL     1      41.159  -8.435  10.185  1.00  0.00     0.072 C 
HETATM   18  C   UNL     1      42.911 -10.681   6.330  1.00  0.00     0.063 A 
ENDBRANCH   1   7
BRANCH   3  19
HETATM   19  C   UNL     1      42.751 -15.359   4.141  1.00  0.00     0.163 C 
BRANCH  19  20
HETATM   20  C   UNL     1      43.485 -16.586   4.786  1.00  0.00     0.244 C 
BRANCH  20  21
HETATM   21  N   UNL     1      42.952 -16.901   6.188  1.00  0.00    -0.068 N 
HETATM   22  H   UNL     1      42.780 -17.927   6.149  1.00  0.00     0.279 HD
HETATM   23  C   UNL     1      43.880 -16.681   7.338  1.00  0.00     0.270 C 
HETATM   24  C   UNL     1      41.600 -16.305   6.450  1.00  0.00     0.270 C 
ENDBRANCH  20  21
BRANCH  20  25
HETATM   25  C   UNL     1      43.473 -17.785   3.865  1.00  0.00     0.015 A 
HETATM   26  S   UNL     1      44.165 -19.265   4.407  1.00  0.00    -0.104 SA
HETATM   27  C   UNL     1      43.800 -20.058   2.942  1.00  0.00     0.050 A 
HETATM   28  C   UNL     1      43.176 -19.221   2.046  1.00  0.00     0.008 A 
HETATM   29  C   UNL     1      42.990 -17.909   2.574  1.00  0.00     0.017 A 
ENDBRANCH  20  25
ENDBRANCH  19  20
ENDBRANCH   3  19
TORSDOF 5
ENDMDL
MODEL 4
REMARK VINA RESULT:      -7.3      2.981      3.923
REMARK  5 active torsions:
REMARK  status: ('A' for Active; 'I' for Inactive)
REMARK    1  A    between atoms: C_11  and  N_12 
REMARK       I    between atoms: N_12  and  C_13 
REMARK       I    between atoms: C_13  and  N_14 
REMARK    2  A    between atoms: N_14  and  C_15 
REMARK    3  A    between atoms: C_15  and  C_16 
REMARK    4  A    between atoms: C_16  and  N_17 
REMARK    5  A    between atoms: C_16  and  C_21 
ROOT
HETATM    1  N   UNL     1      42.779 -13.231   2.540  1.00  0.00    -0.309 N 
HETATM    2  C   UNL     1      41.735 -12.775   1.804  1.00  0.00     0.320 C 
HETATM    3  N   UNL     1      40.750 -13.639   1.467  1.00  0.00    -0.341 N 
HETATM    4  O   UNL     1      41.704 -11.599   1.439  1.00  0.00    -0.247 OA
HETATM    5  H   UNL     1      43.522 -12.539   2.598  1.00  0.00     0.170 HD
HETATM    6  H   UNL     1      41.091 -14.586   1.348  1.00  0.00     0.164 HD
ENDROOT
BRANCH   1   7
HETATM    7  C   UNL     1      43.025 -14.431   3.236  1.00  0.00     0.038 A 
HETATM    8  C   UNL     1      43.195 -14.542   4.612  1.00  0.00     0.032 A 
HETATM    9  C   UNL     1      43.394 -15.799   5.196  1.00  0.00     0.036 A 
HETATM   10  C   UNL     1      43.462 -16.954   4.430  1.00  0.00     0.086 A 
HETATM   11  N   UNL     1      43.639 -18.144   5.029  1.00  0.00    -0.250 NA
HETATM   12  C   UNL     1      43.353 -16.845   3.029  1.00  0.00     0.088 A 
HETATM   13  C   UNL     1      43.722 -19.237   4.228  1.00  0.00     0.055 A 
HETATM   14  C   UNL     1      43.906 -20.557   4.914  1.00  0.00     0.072 C 
HETATM   15  C   UNL     1      43.644 -19.127   2.839  1.00  0.00     0.055 A 
HETATM   16  N   UNL     1      43.448 -17.926   2.236  1.00  0.00    -0.250 NA
HETATM   17  C   UNL     1      43.770 -20.316   1.937  1.00  0.00     0.072 C 
HETATM   18  C   UNL     1      43.138 -15.594   2.461  1.00  0.00     0.063 A 
ENDBRANCH   1   7
BRANCH   3  19
HETATM   19  C   UNL     1      39.582 -13.308   0.647  1.00  0.00     0.163 C 
BRANCH  19  20
HETATM   20  C   UNL     1      39.745 -13.395  -0.910  1.00  0.00     0.244 C 
BRANCH  20  21
HETATM   21  N   UNL     1      38.556 -14.101  -1.573  1.00  0.00    -0.068 N 
HETATM   22  H   UNL     1      38.135 -14.639  -0.787  1.00  0.00     0.279 HD
HETATM   23  C   UNL     1      37.464 -13.238  -2.115  1.00  0.00     0.270 C 
HETATM   24  C   UNL     1      38.973 -15.149  -2.563  1.00  0.00     0.270 C 
ENDBRANCH  20  21
BRANCH  20  25
HETATM   25  C   UNL     1      40.041 -12.041  -1.514  1.00  0.00     0.015 A 
HETATM   26  S   UNL     1      40.969 -11.953  -2.961  1.00  0.00    -0.104 SA
HETATM   27  C   UNL     1      40.881 -10.250  -3.001  1.00  0.00     0.050 A 
HETATM   28  C   UNL     1      40.175  -9.746  -1.933  1.00  0.00     0.008 A 
HETATM   29  C   UNL     1      39.694 -10.776  -1.072  1.00  0.00     0.017 A 
ENDBRANCH  20  25
ENDBRANCH  19  20
ENDBRANCH   3  19
TORSDOF 5
ENDMDL
MODEL 5
REMARK VINA RESULT:      -7.3      5.642      8.044
REMARK  5 active torsions:
REMARK  status: ('A' for Active; 'I' for Inactive)
REMARK    1  A    between atoms: C_11  and  N_12 
REMARK       I    between atoms: N_12  and  C_13 
REMARK       I    between atoms: C_13  and  N_14 
REMARK    2  A    between atoms: N_14  and  C_15 
REMARK    3  A    between atoms: C_15  and  C_16 
REMARK    4  A    between atoms: C_16  and  N_17 
REMARK    5  A    between atoms: C_16  and  C_21 
ROOT
HETATM    1  N   UNL     1      44.754 -10.744   7.595  1.00  0.00    -0.309 N 
HETATM    2  C   UNL     1      44.635 -10.374   8.894  1.00  0.00     0.320 C 
HETATM    3  N   UNL     1      43.470 -10.623   9.537  1.00  0.00    -0.341 N 
HETATM    4  O   UNL     1      45.569  -9.806   9.462  1.00  0.00    -0.247 OA
HETATM    5  H   UNL     1      45.603 -10.372   7.180  1.00  0.00     0.170 HD
HETATM    6  H   UNL     1      42.671 -10.589   8.915  1.00  0.00     0.164 HD
ENDROOT
BRANCH   1   7
HETATM    7  C   UNL     1      43.966 -11.536   6.735  1.00  0.00     0.038 A 
HETATM    8  C   UNL     1      43.028 -11.050   5.830  1.00  0.00     0.032 A 
HETATM    9  C   UNL     1      42.334 -11.936   4.996  1.00  0.00     0.036 A 
HETATM   10  C   UNL     1      42.527 -13.307   5.070  1.00  0.00     0.086 A 
HETATM   11  N   UNL     1      41.852 -14.123   4.243  1.00  0.00    -0.250 NA
HETATM   12  C   UNL     1      43.429 -13.813   6.027  1.00  0.00     0.088 A 
HETATM   13  C   UNL     1      42.064 -15.457   4.376  1.00  0.00     0.055 A 
HETATM   14  C   UNL     1      41.313 -16.351   3.436  1.00  0.00     0.072 C 
HETATM   15  C   UNL     1      42.934 -15.961   5.343  1.00  0.00     0.055 A 
HETATM   16  N   UNL     1      43.629 -15.135   6.167  1.00  0.00    -0.250 NA
HETATM   17  C   UNL     1      43.154 -17.431   5.530  1.00  0.00     0.072 C 
HETATM   18  C   UNL     1      44.127 -12.925   6.837  1.00  0.00     0.063 A 
ENDBRANCH   1   7
BRANCH   3  19
HETATM   19  C   UNL     1      43.177 -10.249  10.923  1.00  0.00     0.163 C 
BRANCH  19  20
HETATM   20  C   UNL     1      41.932  -9.328  11.175  1.00  0.00     0.244 C 
BRANCH  20  21
HETATM   21  N   UNL     1      40.673 -10.141  11.497  1.00  0.00    -0.068 N 
HETATM   22  H   UNL     1      40.932 -11.104  11.198  1.00  0.00     0.279 HD
HETATM   23  C   UNL     1      40.275 -10.247  12.932  1.00  0.00     0.270 C 
HETATM   24  C   UNL     1      39.504  -9.781  10.626  1.00  0.00     0.270 C 
ENDBRANCH  20  21
BRANCH  20  25
HETATM   25  C   UNL     1      42.230  -8.264  12.207  1.00  0.00     0.015 A 
HETATM   26  S   UNL     1      41.343  -6.789  12.170  1.00  0.00    -0.104 SA
HETATM   27  C   UNL     1      42.181  -6.166  13.518  1.00  0.00     0.050 A 
HETATM   28  C   UNL     1      43.128  -7.047  13.988  1.00  0.00     0.008 A 
HETATM   29  C   UNL     1      43.161  -8.255  13.231  1.00  0.00     0.017 A 
ENDBRANCH  20  25
ENDBRANCH  19  20
ENDBRANCH   3  19
TORSDOF 5
ENDMDL
MODEL 6
REMARK VINA RESULT:      -7.1      3.075      4.525
REMARK  5 active torsions:
REMARK  status: ('A' for Active; 'I' for Inactive)
REMARK    1  A    between atoms: C_11  and  N_12 
REMARK       I    between atoms: N_12  and  C_13 
REMARK       I    between atoms: C_13  and  N_14 
REMARK    2  A    between atoms: N_14  and  C_15 
REMARK    3  A    between atoms: C_15  and  C_16 
REMARK    4  A    between atoms: C_16  and  N_17 
REMARK    5  A    between atoms: C_16  and  C_21 
ROOT
HETATM    1  N   UNL     1      38.931 -13.332   2.670  1.00  0.00    -0.309 N 
HETATM    2  C   UNL     1      38.861 -12.212   1.909  1.00  0.00     0.320 C 
HETATM    3  N   UNL     1      39.922 -11.884   1.135  1.00  0.00    -0.341 N 
HETATM    4  O   UNL     1      37.854 -11.504   1.944  1.00  0.00    -0.247 OA
HETATM    5  H   UNL     1      38.150 -13.390   3.317  1.00  0.00     0.170 HD
HETATM    6  H   UNL     1      40.802 -12.178   1.541  1.00  0.00     0.164 HD
ENDROOT
BRANCH   1   7
HETATM    7  C   UNL     1      39.836 -14.411   2.729  1.00  0.00     0.038 A 
HETATM    8  C   UNL     1      39.889 -15.466   1.823  1.00  0.00     0.032 A 
HETATM    9  C   UNL     1      40.863 -16.462   1.963  1.00  0.00     0.036 A 
HETATM   10  C   UNL     1      41.770 -16.450   3.012  1.00  0.00     0.086 A 
HETATM   11  N   UNL     1      42.700 -17.417   3.103  1.00  0.00    -0.250 NA
HETATM   12  C   UNL     1      41.685 -15.420   3.970  1.00  0.00     0.088 A 
HETATM   13  C   UNL     1      43.546 -17.367   4.164  1.00  0.00     0.055 A 
HETATM   14  C   UNL     1      44.585 -18.445   4.242  1.00  0.00     0.072 C 
HETATM   15  C   UNL     1      43.444 -16.364   5.128  1.00  0.00     0.055 A 
HETATM   16  N   UNL     1      42.515 -15.378   5.026  1.00  0.00    -0.250 NA
HETATM   17  C   UNL     1      44.344 -16.313   6.324  1.00  0.00     0.072 C 
HETATM   18  C   UNL     1      40.726 -14.425   3.812  1.00  0.00     0.063 A 
ENDBRANCH   1   7
BRANCH   3  19
HETATM   19  C   UNL     1      40.012 -10.690   0.291  1.00  0.00     0.163 C 
BRANCH  19  20
HETATM   20  C   UNL     1      39.288 -10.732  -1.100  1.00  0.00     0.244 C 
BRANCH  20  21
HETATM   21  N   UNL     1      39.795  -9.636  -2.044  1.00  0.00    -0.068 N 
HETATM   22  H   UNL     1      39.350  -8.774  -1.664  1.00  0.00     0.279 HD
HETATM   23  C   UNL     1      41.264  -9.371  -2.059  1.00  0.00     0.270 C 
HETATM   24  C   UNL     1      39.243  -9.759  -3.435  1.00  0.00     0.270 C 
ENDBRANCH  20  21
BRANCH  20  25
HETATM   25  C   UNL     1      39.343 -12.114  -1.712  1.00  0.00     0.015 A 
HETATM   26  S   UNL     1      37.876 -12.978  -1.966  1.00  0.00    -0.104 SA
HETATM   27  C   UNL     1      38.696 -14.321  -2.624  1.00  0.00     0.050 A 
HETATM   28  C   UNL     1      40.059 -14.134  -2.643  1.00  0.00     0.008 A 
HETATM   29  C   UNL     1      40.435 -12.864  -2.114  1.00  0.00     0.017 A 
ENDBRANCH  20  25
ENDBRANCH  19  20
ENDBRANCH   3  19
TORSDOF 5
ENDMDL
MODEL 7
REMARK VINA RESULT:      -7.0      4.869      8.053
REMARK  5 active torsions:
REMARK  status: ('A' for Active; 'I' for Inactive)
REMARK    1  A    between atoms: C_11  and  N_12 
REMARK       I    between atoms: N_12  and  C_13 
REMARK       I    between atoms: C_13  and  N_14 
REMARK    2  A    between atoms: N_14  and  C_15 
REMARK    3  A    between atoms: C_15  and  C_16 
REMARK    4  A    between atoms: C_16  and  N_17 
REMARK    5  A    between atoms: C_16  and  C_21 
ROOT
HETATM    1  N   UNL     1      43.364 -10.047   7.132  1.00  0.00    -0.309 N 
HETATM    2  C   UNL     1      42.909 -10.939   6.218  1.00  0.00     0.320 C 
HETATM    3  N   UNL     1      42.423 -12.126   6.652  1.00  0.00    -0.341 N 
HETATM    4  O   UNL     1      42.958 -10.672   5.017  1.00  0.00    -0.247 OA
HETATM    5  H   UNL     1      43.840  -9.269   6.685  1.00  0.00     0.170 HD
HETATM    6  H   UNL     1      42.879 -12.442   7.500  1.00  0.00     0.164 HD
ENDROOT
BRANCH   1   7
HETATM    7  C   UNL     1      43.293  -9.977   8.538  1.00  0.00     0.038 A 
HETATM    8  C   UNL     1      44.254 -10.468   9.416  1.00  0.00     0.032 A 
HETATM    9  C   UNL     1      44.092 -10.302  10.797  1.00  0.00     0.036 A 
HETATM   10  C   UNL     1      42.970  -9.684  11.329  1.00  0.00     0.086 A 
HETATM   11  N   UNL     1      42.859  -9.530  12.659  1.00  0.00    -0.250 NA
HETATM   12  C   UNL     1      41.962  -9.238  10.451  1.00  0.00     0.088 A 
HETATM   13  C   UNL     1      41.728  -8.939  13.124  1.00  0.00     0.055 A 
HETATM   14  C   UNL     1      41.627  -8.764  14.610  1.00  0.00     0.072 C 
HETATM   15  C   UNL     1      40.716  -8.524  12.257  1.00  0.00     0.055 A 
HETATM   16  N   UNL     1      40.837  -8.665  10.912  1.00  0.00    -0.250 NA
HETATM   17  C   UNL     1      39.446  -7.904  12.754  1.00  0.00     0.072 C 
HETATM   18  C   UNL     1      42.141  -9.391   9.080  1.00  0.00     0.063 A 
ENDBRANCH   1   7
BRANCH   3  19
HETATM   19  C   UNL     1      41.933 -13.203   5.789  1.00  0.00     0.163 C 
BRANCH  19  20
HETATM   20  C   UNL     1      42.830 -14.482   5.651  1.00  0.00     0.244 C 
BRANCH  20  21
HETATM   21  N   UNL     1      42.349 -15.621   6.557  1.00  0.00    -0.068 N 
HETATM   22  H   UNL     1      42.649 -16.475   6.041  1.00  0.00     0.279 HD
HETATM   23  C   UNL     1      42.963 -15.722   7.915  1.00  0.00     0.270 C 
HETATM   24  C   UNL     1      40.853 -15.729   6.620  1.00  0.00     0.270 C 
ENDBRANCH  20  21
BRANCH  20  25
HETATM   25  C   UNL     1      42.982 -14.900   4.205  1.00  0.00     0.015 A 
HETATM   26  S   UNL     1      42.935 -13.696   2.976  1.00  0.00    -0.104 SA
HETATM   27  C   UNL     1      43.151 -14.848   1.738  1.00  0.00     0.050 A 
HETATM   28  C   UNL     1      43.245 -16.128   2.235  1.00  0.00     0.008 A 
HETATM   29  C   UNL     1      43.144 -16.160   3.657  1.00  0.00     0.017 A 
ENDBRANCH  20  25
ENDBRANCH  19  20
ENDBRANCH   3  19
TORSDOF 5
ENDMDL
MODEL 8
REMARK VINA RESULT:      -7.0      5.008      8.286
REMARK  5 active torsions:
REMARK  status: ('A' for Active; 'I' for Inactive)
REMARK    1  A    between atoms: C_11  and  N_12 
REMARK       I    between atoms: N_12  and  C_13 
REMARK       I    between atoms: C_13  and  N_14 
REMARK    2  A    between atoms: N_14  and  C_15 
REMARK    3  A    between atoms: C_15  and  C_16 
REMARK    4  A    between atoms: C_16  and  N_17 
REMARK    5  A    between atoms: C_16  and  C_21 
ROOT
HETATM    1  N   UNL     1      44.809 -10.535   8.592  1.00  0.00    -0.309 N 
HETATM    2  C   UNL     1      44.822 -11.430   7.574  1.00  0.00     0.320 C 
HETATM    3  N   UNL     1      43.850 -12.370   7.521  1.00  0.00    -0.341 N 
HETATM    4  O   UNL     1      45.718 -11.391   6.729  1.00  0.00    -0.247 OA
HETATM    5  H   UNL     1      45.662  -9.984   8.613  1.00  0.00     0.170 HD
HETATM    6  H   UNL     1      43.524 -12.640   8.442  1.00  0.00     0.164 HD
ENDROOT
BRANCH   1   7
HETATM    7  C   UNL     1      43.865 -10.212   9.588  1.00  0.00     0.038 A 
HETATM    8  C   UNL     1      43.943 -10.596  10.923  1.00  0.00     0.032 A 
HETATM    9  C   UNL     1      42.961 -10.179  11.831  1.00  0.00     0.036 A 
HETATM   10  C   UNL     1      41.879  -9.410  11.430  1.00  0.00     0.086 A 
HETATM   11  N   UNL     1      40.966  -9.017  12.335  1.00  0.00    -0.250 NA
HETATM   12  C   UNL     1      41.758  -9.069  10.068  1.00  0.00     0.088 A 
HETATM   13  C   UNL     1      39.916  -8.287  11.880  1.00  0.00     0.055 A 
HETATM   14  C   UNL     1      38.915  -7.845  12.906  1.00  0.00     0.072 C 
HETATM   15  C   UNL     1      39.780  -7.973  10.528  1.00  0.00     0.055 A 
HETATM   16  N   UNL     1      40.712  -8.356   9.617  1.00  0.00    -0.250 NA
HETATM   17  C   UNL     1      38.609  -7.200  10.002  1.00  0.00     0.072 C 
HETATM   18  C   UNL     1      42.747  -9.473   9.178  1.00  0.00     0.063 A 
ENDBRANCH   1   7
BRANCH   3  19
HETATM   19  C   UNL     1      43.752 -13.425   6.509  1.00  0.00     0.163 C 
BRANCH  19  20
HETATM   20  C   UNL     1      42.747 -14.598   6.783  1.00  0.00     0.244 C 
BRANCH  20  21
HETATM   21  N   UNL     1      41.291 -14.167   6.569  1.00  0.00    -0.068 N 
HETATM   22  H   UNL     1      41.068 -13.649   7.445  1.00  0.00     0.279 HD
HETATM   23  C   UNL     1      41.014 -13.221   5.447  1.00  0.00     0.270 C 
HETATM   24  C   UNL     1      40.332 -15.322   6.565  1.00  0.00     0.270 C 
ENDBRANCH  20  21
BRANCH  20  25
HETATM   25  C   UNL     1      43.117 -15.839   6.003  1.00  0.00     0.015 A 
HETATM   26  S   UNL     1      43.391 -17.311   6.852  1.00  0.00    -0.104 SA
HETATM   27  C   UNL     1      43.733 -18.162   5.414  1.00  0.00     0.050 A 
HETATM   28  C   UNL     1      43.657 -17.351   4.305  1.00  0.00     0.008 A 
HETATM   29  C   UNL     1      43.306 -16.010   4.643  1.00  0.00     0.017 A 
ENDBRANCH  20  25
ENDBRANCH  19  20
ENDBRANCH   3  19
TORSDOF 5
ENDMDL
MODEL 9
REMARK VINA RESULT:      -7.0      3.803      6.230
REMARK  5 active torsions:
REMARK  status: ('A' for Active; 'I' for Inactive)
REMARK    1  A    between atoms: C_11  and  N_12 
REMARK       I    between atoms: N_12  and  C_13 
REMARK       I    between atoms: C_13  and  N_14 
REMARK    2  A    between atoms: N_14  and  C_15 
REMARK    3  A    between atoms: C_15  and  C_16 
REMARK    4  A    between atoms: C_16  and  N_17 
REMARK    5  A    between atoms: C_16  and  C_21 
ROOT
HETATM    1  N   UNL     1      39.274 -11.377   6.684  1.00  0.00    -0.309 N 
HETATM    2  C   UNL     1      39.713 -10.327   7.420  1.00  0.00     0.320 C 
HETATM    3  N   UNL     1      41.046 -10.104   7.506  1.00  0.00    -0.341 N 
HETATM    4  O   UNL     1      38.907  -9.607   8.010  1.00  0.00    -0.247 OA
HETATM    5  H   UNL     1      38.279 -11.534   6.818  1.00  0.00     0.170 HD
HETATM    6  H   UNL     1      41.584 -10.961   7.457  1.00  0.00     0.164 HD
ENDROOT
BRANCH   1   7
HETATM    7  C   UNL     1      39.902 -12.259   5.780  1.00  0.00     0.038 A 
HETATM    8  C   UNL     1      39.939 -12.101   4.398  1.00  0.00     0.032 A 
HETATM    9  C   UNL     1      40.631 -13.025   3.605  1.00  0.00     0.036 A 
HETATM   10  C   UNL     1      41.260 -14.130   4.158  1.00  0.00     0.086 A 
HETATM   11  N   UNL     1      41.926 -14.986   3.364  1.00  0.00    -0.250 NA
HETATM   12  C   UNL     1      41.175 -14.333   5.550  1.00  0.00     0.088 A 
HETATM   13  C   UNL     1      42.503 -16.063   3.958  1.00  0.00     0.055 A 
HETATM   14  C   UNL     1      43.253 -17.000   3.059  1.00  0.00     0.072 C 
HETATM   15  C   UNL     1      42.394 -16.280   5.332  1.00  0.00     0.055 A 
HETATM   16  N   UNL     1      41.736 -15.405   6.135  1.00  0.00    -0.250 NA
HETATM   17  C   UNL     1      42.993 -17.481   5.999  1.00  0.00     0.072 C 
HETATM   18  C   UNL     1      40.502 -13.400   6.331  1.00  0.00     0.063 A 
ENDBRANCH   1   7
BRANCH   3  19
HETATM   19  C   UNL     1      41.672  -9.038   8.292  1.00  0.00     0.163 C 
BRANCH  19  20
HETATM   20  C   UNL     1      42.870  -9.436   9.224  1.00  0.00     0.244 C 
BRANCH  20  21
HETATM   21  N   UNL     1      42.407 -10.254  10.435  1.00  0.00    -0.068 N 
HETATM   22  H   UNL     1      42.032 -11.124  10.002  1.00  0.00     0.279 HD
HETATM   23  C   UNL     1      43.455 -10.693  11.405  1.00  0.00     0.270 C 
HETATM   24  C   UNL     1      41.227  -9.647  11.136  1.00  0.00     0.270 C 
ENDBRANCH  20  21
BRANCH  20  25
HETATM   25  C   UNL     1      43.978 -10.108   8.445  1.00  0.00     0.015 A 
HETATM   26  S   UNL     1      45.516  -9.341   8.345  1.00  0.00    -0.104 SA
HETATM   27  C   UNL     1      46.162 -10.596   7.389  1.00  0.00     0.050 A 
HETATM   28  C   UNL     1      45.233 -11.579   7.132  1.00  0.00     0.008 A 
HETATM   29  C   UNL     1      43.972 -11.297   7.737  1.00  0.00     0.017 A 
ENDBRANCH  20  25
ENDBRANCH  19  20
ENDBRANCH   3  19
TORSDOF 5
ENDMDL
MODEL 10
REMARK VINA RESULT:      -6.8      4.062      6.696
REMARK  5 active torsions:
REMARK  status: ('A' for Active; 'I' for Inactive)
REMARK    1  A    between atoms: C_11  and  N_12 
REMARK       I    between atoms: N_12  and  C_13 
REMARK       I    between atoms: C_13  and  N_14 
REMARK    2  A    between atoms: N_14  and  C_15 
REMARK    3  A    between atoms: C_15  and  C_16 
REMARK    4  A    between atoms: C_16  and  N_17 
REMARK    5  A    between atoms: C_16  and  C_21 
ROOT
HETATM    1  N   UNL     1      39.553 -11.252   6.596  1.00  0.00    -0.309 N 
HETATM    2  C   UNL     1      39.750 -10.224   7.458  1.00  0.00     0.320 C 
HETATM    3  N   UNL     1      41.015  -9.924   7.835  1.00  0.00    -0.341 N 
HETATM    4  O   UNL     1      38.787  -9.593   7.896  1.00  0.00    -0.247 OA
HETATM    5  H   UNL     1      38.567 -11.479   6.508  1.00  0.00     0.170 HD
HETATM    6  H   UNL     1      41.613 -10.741   7.862  1.00  0.00     0.164 HD
ENDROOT
BRANCH   1   7
HETATM    7  C   UNL     1      40.419 -12.035   5.806  1.00  0.00     0.038 A 
HETATM    8  C   UNL     1      41.794 -12.143   5.985  1.00  0.00     0.032 A 
HETATM    9  C   UNL     1      42.546 -12.988   5.159  1.00  0.00     0.036 A 
HETATM   10  C   UNL     1      41.959 -13.706   4.128  1.00  0.00     0.086 A 
HETATM   11  N   UNL     1      42.712 -14.518   3.366  1.00  0.00    -0.250 NA
HETATM   12  C   UNL     1      40.577 -13.556   3.898  1.00  0.00     0.088 A 
HETATM   13  C   UNL     1      42.088 -15.178   2.356  1.00  0.00     0.055 A 
HETATM   14  C   UNL     1      42.941 -16.089   1.526  1.00  0.00     0.072 C 
HETATM   15  C   UNL     1      40.725 -15.007   2.110  1.00  0.00     0.055 A 
HETATM   16  N   UNL     1      39.962 -14.200   2.891  1.00  0.00    -0.250 NA
HETATM   17  C   UNL     1      40.027 -15.698   0.979  1.00  0.00     0.072 C 
HETATM   18  C   UNL     1      39.836 -12.729   4.736  1.00  0.00     0.063 A 
ENDBRANCH   1   7
BRANCH   3  19
HETATM   19  C   UNL     1      41.383  -8.872   8.786  1.00  0.00     0.163 C 
BRANCH  19  20
HETATM   20  C   UNL     1      42.558  -9.175   9.779  1.00  0.00     0.244 C 
BRANCH  20  21
HETATM   21  N   UNL     1      42.130 -10.128  10.901  1.00  0.00    -0.068 N 
HETATM   22  H   UNL     1      42.003 -11.034  10.403  1.00  0.00     0.279 HD
HETATM   23  C   UNL     1      43.118 -10.391  11.990  1.00  0.00     0.270 C 
HETATM   24  C   UNL     1      40.772  -9.812  11.454  1.00  0.00     0.270 C 
ENDBRANCH  20  21
BRANCH  20  25
HETATM   25  C   UNL     1      43.797  -9.640   9.047  1.00  0.00     0.015 A 
HETATM   26  S   UNL     1      45.034  -8.499   8.684  1.00  0.00    -0.104 SA
HETATM   27  C   UNL     1      46.000  -9.680   7.921  1.00  0.00     0.050 A 
HETATM   28  C   UNL     1      45.399 -10.918   7.925  1.00  0.00     0.008 A 
HETATM   29  C   UNL     1      44.127 -10.896   8.569  1.00  0.00     0.017 A 
ENDBRANCH  20  25
ENDBRANCH  19  20
ENDBRANCH   3  19
TORSDOF 5
ENDMDL
