MODEL 1
REMARK VINA RESULT:      -9.6      0.000      0.000
REMARK  2 active torsions:
REMARK  status: ('A' for Active; 'I' for Inactive)
REMARK    1  A    between atoms: C_2  and  N_3 
REMARK       I    between atoms: N_3  and  C_4 
REMARK    2  A    between atoms: C_4  and  C_5 
ROOT
HETATM    1  C   UNL     1      41.650 -13.702   5.671  1.00  0.00     0.032 A 
HETATM    2  C   UNL     1      42.920 -14.231   5.864  1.00  0.00     0.036 A 
HETATM    3  C   UNL     1      43.919 -13.401   6.379  1.00  0.00     0.049 A 
HETATM    4  C   UNL     1      43.650 -12.072   6.767  1.00  0.00     0.061 A 
HETATM    5  C   UNL     1      42.353 -11.562   6.619  1.00  0.00     0.050 A 
HETATM    6  N   UNL     1      41.907 -10.287   7.001  1.00  0.00    -0.324 N 
HETATM    7  C   UNL     1      42.354  -9.494   8.024  1.00  0.00     0.245 C 
HETATM    8  O   UNL     1      41.704  -8.484   8.299  1.00  0.00    -0.271 OA
HETATM    9  C   UNL     1      43.491 -10.013   8.898  1.00  0.00     0.180 C 
HETATM   10  N   UNL     1      44.684 -10.272   8.107  1.00  0.00    -0.334 N 
HETATM   11  C   UNL     1      44.836 -11.282   7.190  1.00  0.00     0.256 C 
HETATM   12  O   UNL     1      45.932 -11.572   6.713  1.00  0.00    -0.267 OA
HETATM   13  C   UNL     1      43.941  -8.981   9.941  1.00  0.00     0.037 C 
HETATM   14  C   UNL     1      45.437  -9.231  10.065  1.00  0.00     0.022 C 
HETATM   15  C   UNL     1      45.836  -9.562   8.637  1.00  0.00     0.127 C 
HETATM   16  C   UNL     1      41.376 -12.377   6.026  1.00  0.00     0.033 A 
HETATM   17  H   UNL     1      41.022  -9.959   6.633  1.00  0.00     0.169 HD
ENDROOT
BRANCH   2  18
HETATM   18  N   UNL     1      43.265 -15.560   5.583  1.00  0.00    -0.322 N 
HETATM   19  C   UNL     1      43.414 -16.164   4.348  1.00  0.00     0.277 C 
HETATM   20  O   UNL     1      43.323 -15.618   3.253  1.00  0.00    -0.266 OA
HETATM   21  H   UNL     1      43.349 -16.218   6.357  1.00  0.00     0.169 HD
BRANCH  19  22
HETATM   22  C   UNL     1      43.665 -17.609   4.476  1.00  0.00     0.153 A 
HETATM   23  N   UNL     1      43.913 -18.195   5.681  1.00  0.00    -0.169 NA
HETATM   24  N   UNL     1      44.073 -19.515   5.399  1.00  0.00    -0.281 N 
HETATM   25  H   UNL     1      44.276 -20.158   6.158  1.00  0.00     0.189 HD
HETATM   26  C   UNL     1      43.912 -19.763   4.085  1.00  0.00     0.036 A 
HETATM   27  C   UNL     1      43.655 -18.579   3.467  1.00  0.00     0.002 A 
HETATM   28  C   UNL     1      43.922 -20.940   3.209  1.00  0.00     0.059 C 
HETATM   29  C   UNL     1      43.441 -18.750   2.021  1.00  0.00     0.043 C 
HETATM   30  C   UNL     1      43.303 -20.313   1.906  1.00  0.00     0.011 C 
ENDBRANCH  19  22
ENDBRANCH   2  18
TORSDOF 2
ENDMDL
MODEL 2
REMARK VINA RESULT:      -9.2      4.869      7.951
REMARK  2 active torsions:
REMARK  status: ('A' for Active; 'I' for Inactive)
REMARK    1  A    between atoms: C_2  and  N_3 
REMARK       I    between atoms: N_3  and  C_4 
REMARK    2  A    between atoms: C_4  and  C_5 
ROOT
HETATM    1  C   UNL     1      41.367 -13.521   4.144  1.00  0.00     0.032 A 
HETATM    2  C   UNL     1      41.176 -14.292   3.004  1.00  0.00     0.036 A 
HETATM    3  C   UNL     1      41.846 -15.514   2.902  1.00  0.00     0.049 A 
HETATM    4  C   UNL     1      42.648 -16.007   3.953  1.00  0.00     0.061 A 
HETATM    5  C   UNL     1      42.792 -15.249   5.122  1.00  0.00     0.050 A 
HETATM    6  N   UNL     1      43.505 -15.616   6.274  1.00  0.00    -0.324 N 
HETATM    7  C   UNL     1      43.732 -16.867   6.779  1.00  0.00     0.245 C 
HETATM    8  O   UNL     1      44.233 -16.957   7.902  1.00  0.00    -0.271 OA
HETATM    9  C   UNL     1      43.159 -18.065   6.028  1.00  0.00     0.180 C 
HETATM   10  N   UNL     1      43.681 -18.133   4.672  1.00  0.00    -0.334 N 
HETATM   11  C   UNL     1      43.383 -17.264   3.653  1.00  0.00     0.256 C 
HETATM   12  O   UNL     1      43.691 -17.497   2.485  1.00  0.00    -0.267 OA
HETATM   13  C   UNL     1      43.570 -19.400   6.663  1.00  0.00     0.037 C 
HETATM   14  C   UNL     1      43.702 -20.335   5.470  1.00  0.00     0.022 C 
HETATM   15  C   UNL     1      44.287 -19.426   4.402  1.00  0.00     0.127 C 
HETATM   16  C   UNL     1      42.181 -13.987   5.183  1.00  0.00     0.033 A 
HETATM   17  H   UNL     1      43.728 -14.894   6.950  1.00  0.00     0.169 HD
ENDROOT
BRANCH   2  18
HETATM   18  N   UNL     1      40.339 -13.923   1.941  1.00  0.00    -0.322 N 
HETATM   19  C   UNL     1      40.593 -13.023   0.923  1.00  0.00     0.277 C 
HETATM   20  O   UNL     1      41.640 -12.414   0.732  1.00  0.00    -0.266 OA
HETATM   21  H   UNL     1      39.386 -14.282   1.924  1.00  0.00     0.169 HD
BRANCH  19  22
HETATM   22  C   UNL     1      39.411 -12.823   0.068  1.00  0.00     0.153 A 
HETATM   23  N   UNL     1      38.460 -11.890   0.356  1.00  0.00    -0.169 NA
HETATM   24  N   UNL     1      37.556 -11.993  -0.654  1.00  0.00    -0.281 N 
HETATM   25  H   UNL     1      36.741 -11.387  -0.647  1.00  0.00     0.189 HD
HETATM   26  C   UNL     1      37.922 -12.926  -1.553  1.00  0.00     0.036 A 
HETATM   27  C   UNL     1      39.091 -13.477  -1.129  1.00  0.00     0.002 A 
HETATM   28  C   UNL     1      37.407 -13.449  -2.824  1.00  0.00     0.059 C 
HETATM   29  C   UNL     1      39.588 -14.499  -2.062  1.00  0.00     0.043 C 
HETATM   30  C   UNL     1      38.663 -14.259  -3.312  1.00  0.00     0.011 C 
ENDBRANCH  19  22
ENDBRANCH   2  18
TORSDOF 2
ENDMDL
MODEL 3
REMARK VINA RESULT:      -9.0      2.621      8.948
REMARK  2 active torsions:
REMARK  status: ('A' for Active; 'I' for Inactive)
REMARK    1  A    between atoms: C_2  and  N_3 
REMARK       I    between atoms: N_3  and  C_4 
REMARK    2  A    between atoms: C_4  and  C_5 
ROOT
HETATM    1  C   UNL     1      43.569 -13.850   7.068  1.00  0.00     0.032 A 
HETATM    2  C   UNL     1      43.290 -12.549   6.668  1.00  0.00     0.036 A 
HETATM    3  C   UNL     1      42.931 -12.322   5.337  1.00  0.00     0.049 A 
HETATM    4  C   UNL     1      42.780 -13.383   4.420  1.00  0.00     0.061 A 
HETATM    5  C   UNL     1      43.011 -14.697   4.845  1.00  0.00     0.050 A 
HETATM    6  N   UNL     1      42.856 -15.864   4.079  1.00  0.00    -0.324 N 
HETATM    7  C   UNL     1      41.989 -16.101   3.047  1.00  0.00     0.245 C 
HETATM    8  O   UNL     1      41.893 -17.256   2.627  1.00  0.00    -0.271 OA
HETATM    9  C   UNL     1      41.041 -14.983   2.626  1.00  0.00     0.180 C 
HETATM   10  N   UNL     1      41.778 -13.803   2.201  1.00  0.00    -0.334 N 
HETATM   11  C   UNL     1      42.505 -12.974   3.017  1.00  0.00     0.256 C 
HETATM   12  O   UNL     1      42.927 -11.885   2.632  1.00  0.00    -0.267 OA
HETATM   13  C   UNL     1      40.196 -15.367   1.404  1.00  0.00     0.037 C 
HETATM   14  C   UNL     1      40.035 -14.050   0.657  1.00  0.00     0.022 C 
HETATM   15  C   UNL     1      41.384 -13.384   0.866  1.00  0.00     0.127 C 
HETATM   16  C   UNL     1      43.449 -14.909   6.162  1.00  0.00     0.033 A 
HETATM   17  H   UNL     1      43.274 -16.721   4.422  1.00  0.00     0.169 HD
ENDROOT
BRANCH   2  18
HETATM   18  N   UNL     1      43.336 -11.440   7.524  1.00  0.00    -0.322 N 
HETATM   19  C   UNL     1      44.436 -10.892   8.158  1.00  0.00     0.277 C 
HETATM   20  O   UNL     1      45.602 -11.253   8.039  1.00  0.00    -0.266 OA
HETATM   21  H   UNL     1      42.459 -11.001   7.802  1.00  0.00     0.169 HD
BRANCH  19  22
HETATM   22  C   UNL     1      44.049  -9.803   9.071  1.00  0.00     0.153 A 
HETATM   23  N   UNL     1      43.892  -8.520   8.639  1.00  0.00    -0.169 NA
HETATM   24  N   UNL     1      43.523  -7.824   9.748  1.00  0.00    -0.281 N 
HETATM   25  H   UNL     1      43.353  -6.826   9.666  1.00  0.00     0.189 HD
HETATM   26  C   UNL     1      43.425  -8.625  10.825  1.00  0.00     0.036 A 
HETATM   27  C   UNL     1      43.754  -9.887  10.437  1.00  0.00     0.002 A 
HETATM   28  C   UNL     1      43.048  -8.481  12.236  1.00  0.00     0.059 C 
HETATM   29  C   UNL     1      43.656 -10.846  11.548  1.00  0.00     0.043 C 
HETATM   30  C   UNL     1      42.898  -9.995  12.632  1.00  0.00     0.011 C 
ENDBRANCH  19  22
ENDBRANCH   2  18
TORSDOF 2
ENDMDL
MODEL 4
REMARK VINA RESULT:      -8.8      4.611      6.793
REMARK  2 active torsions:
REMARK  status: ('A' for Active; 'I' for Inactive)
REMARK    1  A    between atoms: C_2  and  N_3 
REMARK       I    between atoms: N_3  and  C_4 
REMARK    2  A    between atoms: C_4  and  C_5 
ROOT
HETATM    1  C   UNL     1      40.847 -13.807   4.183  1.00  0.00     0.032 A 
HETATM    2  C   UNL     1      41.159 -14.975   3.498  1.00  0.00     0.036 A 
HETATM    3  C   UNL     1      40.889 -15.039   2.128  1.00  0.00     0.049 A 
HETATM    4  C   UNL     1      40.378 -13.930   1.422  1.00  0.00     0.061 A 
HETATM    5  C   UNL     1      40.117 -12.738   2.110  1.00  0.00     0.050 A 
HETATM    6  N   UNL     1      39.659 -11.534   1.553  1.00  0.00    -0.324 N 
HETATM    7  C   UNL     1      39.874 -11.035   0.297  1.00  0.00     0.245 C 
HETATM    8  O   UNL     1      39.530  -9.873   0.069  1.00  0.00    -0.271 OA
HETATM    9  C   UNL     1      40.716 -11.857  -0.674  1.00  0.00     0.180 C 
HETATM   10  N   UNL     1      40.117 -13.162  -0.912  1.00  0.00    -0.334 N 
HETATM   11  C   UNL     1      40.040 -14.186  -0.002  1.00  0.00     0.256 C 
HETATM   12  O   UNL     1      39.712 -15.326  -0.330  1.00  0.00    -0.267 OA
HETATM   13  C   UNL     1      40.794 -11.214  -2.065  1.00  0.00     0.037 C 
HETATM   14  C   UNL     1      40.846 -12.408  -3.006  1.00  0.00     0.022 C 
HETATM   15  C   UNL     1      39.915 -13.401  -2.331  1.00  0.00     0.127 C 
HETATM   16  C   UNL     1      40.314 -12.709   3.500  1.00  0.00     0.033 A 
HETATM   17  H   UNL     1      39.289 -10.827   2.178  1.00  0.00     0.169 HD
ENDROOT
BRANCH   2  18
HETATM   18  N   UNL     1      41.741 -16.101   4.095  1.00  0.00    -0.322 N 
HETATM   19  C   UNL     1      42.893 -16.169   4.857  1.00  0.00     0.277 C 
HETATM   20  O   UNL     1      43.598 -15.225   5.199  1.00  0.00    -0.266 OA
HETATM   21  H   UNL     1      41.339 -17.018   3.904  1.00  0.00     0.169 HD
BRANCH  19  22
HETATM   22  C   UNL     1      43.235 -17.558   5.202  1.00  0.00     0.153 A 
HETATM   23  N   UNL     1      43.232 -18.005   6.489  1.00  0.00    -0.169 NA
HETATM   24  N   UNL     1      43.577 -19.318   6.402  1.00  0.00    -0.281 N 
HETATM   25  H   UNL     1      43.646 -19.865   7.254  1.00  0.00     0.189 HD
HETATM   26  C   UNL     1      43.766 -19.695   5.123  1.00  0.00     0.036 A 
HETATM   27  C   UNL     1      43.562 -18.607   4.333  1.00  0.00     0.002 A 
HETATM   28  C   UNL     1      44.098 -20.935   4.411  1.00  0.00     0.059 C 
HETATM   29  C   UNL     1      43.725 -18.926   2.907  1.00  0.00     0.043 C 
HETATM   30  C   UNL     1      43.763 -20.498   2.938  1.00  0.00     0.011 C 
ENDBRANCH  19  22
ENDBRANCH   2  18
TORSDOF 2
ENDMDL
MODEL 5
REMARK VINA RESULT:      -8.8      1.819      8.843
REMARK  2 active torsions:
REMARK  status: ('A' for Active; 'I' for Inactive)
REMARK    1  A    between atoms: C_2  and  N_3 
REMARK       I    between atoms: N_3  and  C_4 
REMARK    2  A    between atoms: C_4  and  C_5 
ROOT
HETATM    1  C   UNL     1      42.934 -12.796   4.678  1.00  0.00     0.032 A 
HETATM    2  C   UNL     1      43.200 -13.087   6.011  1.00  0.00     0.036 A 
HETATM    3  C   UNL     1      43.187 -14.424   6.419  1.00  0.00     0.049 A 
HETATM    4  C   UNL     1      42.982 -15.475   5.502  1.00  0.00     0.061 A 
HETATM    5  C   UNL     1      42.768 -15.177   4.150  1.00  0.00     0.050 A 
HETATM    6  N   UNL     1      42.600 -16.100   3.106  1.00  0.00    -0.324 N 
HETATM    7  C   UNL     1      43.117 -17.361   2.987  1.00  0.00     0.245 C 
HETATM    8  O   UNL     1      42.991 -17.938   1.904  1.00  0.00    -0.271 OA
HETATM    9  C   UNL     1      44.001 -17.891   4.112  1.00  0.00     0.180 C 
HETATM   10  N   UNL     1      43.278 -17.925   5.374  1.00  0.00    -0.334 N 
HETATM   11  C   UNL     1      42.885 -16.831   6.103  1.00  0.00     0.256 C 
HETATM   12  O   UNL     1      42.466 -16.932   7.256  1.00  0.00    -0.267 OA
HETATM   13  C   UNL     1      44.431 -19.345   3.878  1.00  0.00     0.037 C 
HETATM   14  C   UNL     1      44.488 -19.928   5.282  1.00  0.00     0.022 C 
HETATM   15  C   UNL     1      43.315 -19.250   5.969  1.00  0.00     0.127 C 
HETATM   16  C   UNL     1      42.702 -13.829   3.763  1.00  0.00     0.033 A 
HETATM   17  H   UNL     1      42.224 -15.765   2.226  1.00  0.00     0.169 HD
ENDROOT
BRANCH   2  18
HETATM   18  N   UNL     1      43.492 -12.118   6.980  1.00  0.00    -0.322 N 
HETATM   19  C   UNL     1      44.693 -11.474   7.214  1.00  0.00     0.277 C 
HETATM   20  O   UNL     1      45.727 -11.599   6.564  1.00  0.00    -0.266 OA
HETATM   21  H   UNL     1      42.778 -11.887   7.670  1.00  0.00     0.169 HD
BRANCH  19  22
HETATM   22  C   UNL     1      44.624 -10.610   8.404  1.00  0.00     0.153 A 
HETATM   23  N   UNL     1      45.334 -10.879   9.535  1.00  0.00    -0.169 NA
HETATM   24  N   UNL     1      45.026  -9.865  10.387  1.00  0.00    -0.281 N 
HETATM   25  H   UNL     1      45.443  -9.859  11.313  1.00  0.00     0.189 HD
HETATM   26  C   UNL     1      44.183  -8.982   9.822  1.00  0.00     0.036 A 
HETATM   27  C   UNL     1      43.901  -9.421   8.566  1.00  0.00     0.002 A 
HETATM   28  C   UNL     1      43.545  -7.716  10.202  1.00  0.00     0.059 C 
HETATM   29  C   UNL     1      42.997  -8.505   7.853  1.00  0.00     0.043 C 
HETATM   30  C   UNL     1      43.017  -7.247   8.797  1.00  0.00     0.011 C 
ENDBRANCH  19  22
ENDBRANCH   2  18
TORSDOF 2
ENDMDL
MODEL 6
REMARK VINA RESULT:      -8.6      1.741      2.109
REMARK  2 active torsions:
REMARK  status: ('A' for Active; 'I' for Inactive)
REMARK    1  A    between atoms: C_2  and  N_3 
REMARK       I    between atoms: N_3  and  C_4 
REMARK    2  A    between atoms: C_4  and  C_5 
ROOT
HETATM    1  C   UNL     1      40.938 -11.961   5.140  1.00  0.00     0.032 A 
HETATM    2  C   UNL     1      42.077 -12.756   5.104  1.00  0.00     0.036 A 
HETATM    3  C   UNL     1      43.210 -12.333   5.804  1.00  0.00     0.049 A 
HETATM    4  C   UNL     1      43.198 -11.164   6.594  1.00  0.00     0.061 A 
HETATM    5  C   UNL     1      42.029 -10.396   6.667  1.00  0.00     0.050 A 
HETATM    6  N   UNL     1      41.834  -9.241   7.442  1.00  0.00    -0.324 N 
HETATM    7  C   UNL     1      42.410  -8.905   8.638  1.00  0.00     0.245 C 
HETATM    8  O   UNL     1      41.965  -7.925   9.239  1.00  0.00    -0.271 OA
HETATM    9  C   UNL     1      43.409  -9.876   9.258  1.00  0.00     0.180 C 
HETATM   10  N   UNL     1      44.541 -10.100   8.374  1.00  0.00    -0.334 N 
HETATM   11  C   UNL     1      44.508 -10.785   7.185  1.00  0.00     0.256 C 
HETATM   12  O   UNL     1      45.535 -11.116   6.594  1.00  0.00    -0.267 OA
HETATM   13  C   UNL     1      44.033  -9.324  10.547  1.00  0.00     0.037 C 
HETATM   14  C   UNL     1      45.449  -9.880  10.521  1.00  0.00     0.022 C 
HETATM   15  C   UNL     1      45.800  -9.822   9.044  1.00  0.00     0.127 C 
HETATM   16  C   UNL     1      40.922 -10.784   5.897  1.00  0.00     0.033 A 
HETATM   17  H   UNL     1      41.036  -8.652   7.232  1.00  0.00     0.169 HD
ENDROOT
BRANCH   2  18
HETATM   18  N   UNL     1      42.161 -13.972   4.413  1.00  0.00    -0.322 N 
HETATM   19  C   UNL     1      41.459 -15.141   4.645  1.00  0.00     0.277 C 
HETATM   20  O   UNL     1      40.578 -15.309   5.483  1.00  0.00    -0.266 OA
HETATM   21  H   UNL     1      42.872 -14.075   3.690  1.00  0.00     0.169 HD
BRANCH  19  22
HETATM   22  C   UNL     1      41.922 -16.234   3.775  1.00  0.00     0.153 A 
HETATM   23  N   UNL     1      41.471 -16.382   2.498  1.00  0.00    -0.169 NA
HETATM   24  N   UNL     1      42.130 -17.472   2.021  1.00  0.00    -0.281 N 
HETATM   25  H   UNL     1      41.944 -17.781   1.072  1.00  0.00     0.189 HD
HETATM   26  C   UNL     1      42.976 -17.979   2.938  1.00  0.00     0.036 A 
HETATM   27  C   UNL     1      42.870 -17.224   4.064  1.00  0.00     0.002 A 
HETATM   28  C   UNL     1      43.949 -19.075   3.006  1.00  0.00     0.059 C 
HETATM   29  C   UNL     1      43.778 -17.688   5.124  1.00  0.00     0.043 C 
HETATM   30  C   UNL     1      44.699 -18.689   4.332  1.00  0.00     0.011 C 
ENDBRANCH  19  22
ENDBRANCH   2  18
TORSDOF 2
ENDMDL
MODEL 7
REMARK VINA RESULT:      -8.5      2.216      2.761
REMARK  2 active torsions:
REMARK  status: ('A' for Active; 'I' for Inactive)
REMARK    1  A    between atoms: C_2  and  N_3 
REMARK       I    between atoms: N_3  and  C_4 
REMARK    2  A    between atoms: C_4  and  C_5 
ROOT
HETATM    1  C   UNL     1      41.786 -10.720   4.550  1.00  0.00     0.032 A 
HETATM    2  C   UNL     1      42.594 -11.806   4.862  1.00  0.00     0.036 A 
HETATM    3  C   UNL     1      43.318 -11.779   6.057  1.00  0.00     0.049 A 
HETATM    4  C   UNL     1      43.191 -10.715   6.975  1.00  0.00     0.061 A 
HETATM    5  C   UNL     1      42.332  -9.650   6.677  1.00  0.00     0.050 A 
HETATM    6  N   UNL     1      42.053  -8.546   7.499  1.00  0.00    -0.324 N 
HETATM    7  C   UNL     1      42.046  -8.476   8.865  1.00  0.00     0.245 C 
HETATM    8  O   UNL     1      41.599  -7.453   9.390  1.00  0.00    -0.271 OA
HETATM    9  C   UNL     1      42.384  -9.735   9.657  1.00  0.00     0.180 C 
HETATM   10  N   UNL     1      43.719 -10.214   9.336  1.00  0.00    -0.334 N 
HETATM   11  C   UNL     1      44.106 -10.774   8.144  1.00  0.00     0.256 C 
HETATM   12  O   UNL     1      45.188 -11.346   8.013  1.00  0.00    -0.267 OA
HETATM   13  C   UNL     1      42.422  -9.479  11.169  1.00  0.00     0.037 C 
HETATM   14  C   UNL     1      43.515 -10.418  11.659  1.00  0.00     0.022 C 
HETATM   15  C   UNL     1      44.531 -10.360  10.532  1.00  0.00     0.127 C 
HETATM   16  C   UNL     1      41.672  -9.646   5.439  1.00  0.00     0.033 A 
HETATM   17  H   UNL     1      41.606  -7.738   7.080  1.00  0.00     0.169 HD
ENDROOT
BRANCH   2  18
HETATM   18  N   UNL     1      42.725 -12.943   4.052  1.00  0.00    -0.322 N 
HETATM   19  C   UNL     1      41.838 -13.993   3.899  1.00  0.00     0.277 C 
HETATM   20  O   UNL     1      40.729 -14.092   4.413  1.00  0.00    -0.266 OA
HETATM   21  H   UNL     1      43.604 -13.091   3.558  1.00  0.00     0.169 HD
BRANCH  19  22
HETATM   22  C   UNL     1      42.398 -15.056   3.047  1.00  0.00     0.153 A 
HETATM   23  N   UNL     1      42.618 -14.873   1.715  1.00  0.00    -0.169 NA
HETATM   24  N   UNL     1      43.148 -16.051   1.287  1.00  0.00    -0.281 N 
HETATM   25  H   UNL     1      43.390 -16.151   0.306  1.00  0.00     0.189 HD
HETATM   26  C   UNL     1      43.281 -16.930   2.297  1.00  0.00     0.036 A 
HETATM   27  C   UNL     1      42.813 -16.338   3.429  1.00  0.00     0.002 A 
HETATM   28  C   UNL     1      43.801 -18.291   2.471  1.00  0.00     0.059 C 
HETATM   29  C   UNL     1      42.937 -17.217   4.601  1.00  0.00     0.043 C 
HETATM   30  C   UNL     1      43.862 -18.360   4.040  1.00  0.00     0.011 C 
ENDBRANCH  19  22
ENDBRANCH   2  18
TORSDOF 2
ENDMDL
MODEL 8
REMARK VINA RESULT:      -8.5     16.163     19.415
REMARK  2 active torsions:
REMARK  status: ('A' for Active; 'I' for Inactive)
REMARK    1  A    between atoms: C_2  and  N_3 
REMARK       I    between atoms: N_3  and  C_4 
REMARK    2  A    between atoms: C_4  and  C_5 
ROOT
HETATM    1  C   UNL     1      44.551 -28.590  -3.122  1.00  0.00     0.032 A 
HETATM    2  C   UNL     1      45.426 -29.454  -3.769  1.00  0.00     0.036 A 
HETATM    3  C   UNL     1      46.644 -29.756  -3.155  1.00  0.00     0.049 A 
HETATM    4  C   UNL     1      46.969 -29.263  -1.874  1.00  0.00     0.061 A 
HETATM    5  C   UNL     1      46.058 -28.435  -1.205  1.00  0.00     0.050 A 
HETATM    6  N   UNL     1      46.203 -27.905   0.088  1.00  0.00    -0.324 N 
HETATM    7  C   UNL     1      46.870 -28.432   1.160  1.00  0.00     0.245 C 
HETATM    8  O   UNL     1      46.723 -27.889   2.257  1.00  0.00    -0.271 OA
HETATM    9  C   UNL     1      47.574 -29.774   0.986  1.00  0.00     0.180 C 
HETATM   10  N   UNL     1      48.585 -29.704  -0.058  1.00  0.00    -0.334 N 
HETATM   11  C   UNL     1      48.343 -29.578  -1.402  1.00  0.00     0.256 C 
HETATM   12  O   UNL     1      49.228 -29.735  -2.242  1.00  0.00    -0.267 OA
HETATM   13  C   UNL     1      48.349 -30.192   2.242  1.00  0.00     0.037 C 
HETATM   14  C   UNL     1      49.556 -30.931   1.685  1.00  0.00     0.022 C 
HETATM   15  C   UNL     1      49.884 -30.134   0.434  1.00  0.00     0.127 C 
HETATM   16  C   UNL     1      44.873 -28.072  -1.863  1.00  0.00     0.033 A 
HETATM   17  H   UNL     1      45.595 -27.142   0.363  1.00  0.00     0.169 HD
ENDROOT
BRANCH   2  18
HETATM   18  N   UNL     1      45.159 -30.057  -5.006  1.00  0.00    -0.322 N 
HETATM   19  C   UNL     1      44.523 -31.259  -5.255  1.00  0.00     0.277 C 
HETATM   20  O   UNL     1      44.019 -32.004  -4.421  1.00  0.00    -0.266 OA
HETATM   21  H   UNL     1      45.532 -29.624  -5.850  1.00  0.00     0.169 HD
BRANCH  19  22
HETATM   22  C   UNL     1      44.546 -31.599  -6.687  1.00  0.00     0.153 A 
HETATM   23  N   UNL     1      43.467 -31.397  -7.495  1.00  0.00    -0.169 NA
HETATM   24  N   UNL     1      43.874 -31.809  -8.726  1.00  0.00    -0.281 N 
HETATM   25  H   UNL     1      43.221 -31.756  -9.501  1.00  0.00     0.189 HD
HETATM   26  C   UNL     1      45.153 -32.229  -8.709  1.00  0.00     0.036 A 
HETATM   27  C   UNL     1      45.612 -32.115  -7.435  1.00  0.00     0.002 A 
HETATM   28  C   UNL     1      46.127 -32.732  -9.685  1.00  0.00     0.059 C 
HETATM   29  C   UNL     1      47.018 -32.532  -7.317  1.00  0.00     0.043 C 
HETATM   30  C   UNL     1      47.442 -32.634  -8.829  1.00  0.00     0.011 C 
ENDBRANCH  19  22
ENDBRANCH   2  18
TORSDOF 2
ENDMDL
MODEL 9
REMARK VINA RESULT:      -8.3      2.580      8.892
REMARK  2 active torsions:
REMARK  status: ('A' for Active; 'I' for Inactive)
REMARK    1  A    between atoms: C_2  and  N_3 
REMARK       I    between atoms: N_3  and  C_4 
REMARK    2  A    between atoms: C_4  and  C_5 
ROOT
HETATM    1  C   UNL     1      41.795 -10.274   5.216  1.00  0.00     0.032 A 
HETATM    2  C   UNL     1      42.047 -11.171   6.247  1.00  0.00     0.036 A 
HETATM    3  C   UNL     1      41.942 -12.539   5.982  1.00  0.00     0.049 A 
HETATM    4  C   UNL     1      41.660 -13.023   4.688  1.00  0.00     0.061 A 
HETATM    5  C   UNL     1      41.461 -12.113   3.642  1.00  0.00     0.050 A 
HETATM    6  N   UNL     1      41.224 -12.426   2.294  1.00  0.00    -0.324 N 
HETATM    7  C   UNL     1      41.650 -13.512   1.580  1.00  0.00     0.245 C 
HETATM    8  O   UNL     1      41.479 -13.505   0.359  1.00  0.00    -0.271 OA
HETATM    9  C   UNL     1      42.500 -14.559   2.293  1.00  0.00     0.180 C 
HETATM   10  N   UNL     1      41.782 -15.139   3.418  1.00  0.00    -0.334 N 
HETATM   11  C   UNL     1      41.470 -14.494   4.588  1.00  0.00     0.256 C 
HETATM   12  O   UNL     1      41.051 -15.098   5.574  1.00  0.00    -0.267 OA
HETATM   13  C   UNL     1      42.826 -15.757   1.390  1.00  0.00     0.037 C 
HETATM   14  C   UNL     1      42.849 -16.933   2.356  1.00  0.00     0.022 C 
HETATM   15  C   UNL     1      41.729 -16.588   3.323  1.00  0.00     0.127 C 
HETATM   16  C   UNL     1      41.487 -10.740   3.933  1.00  0.00     0.033 A 
HETATM   17  H   UNL     1      40.867 -11.696   1.688  1.00  0.00     0.169 HD
ENDROOT
BRANCH   2  18
HETATM   18  N   UNL     1      42.411 -10.789   7.545  1.00  0.00    -0.322 N 
HETATM   19  C   UNL     1      43.662 -10.440   8.017  1.00  0.00     0.277 C 
HETATM   20  O   UNL     1      44.692 -10.348   7.356  1.00  0.00    -0.266 OA
HETATM   21  H   UNL     1      41.709 -10.836   8.283  1.00  0.00     0.169 HD
BRANCH  19  22
HETATM   22  C   UNL     1      43.652 -10.220   9.473  1.00  0.00     0.153 A 
HETATM   23  N   UNL     1      44.159 -11.135  10.346  1.00  0.00    -0.169 NA
HETATM   24  N   UNL     1      43.987 -10.575  11.574  1.00  0.00    -0.281 N 
HETATM   25  H   UNL     1      44.291 -11.089  12.394  1.00  0.00     0.189 HD
HETATM   26  C   UNL     1      43.422  -9.356  11.487  1.00  0.00     0.036 A 
HETATM   27  C   UNL     1      43.191  -9.097  10.172  1.00  0.00     0.002 A 
HETATM   28  C   UNL     1      43.036  -8.286  12.415  1.00  0.00     0.059 C 
HETATM   29  C   UNL     1      42.591  -7.769   9.971  1.00  0.00     0.043 C 
HETATM   30  C   UNL     1      42.780  -7.120  11.391  1.00  0.00     0.011 C 
ENDBRANCH  19  22
ENDBRANCH   2  18
TORSDOF 2
ENDMDL
MODEL 10
REMARK VINA RESULT:      -8.0     16.484     20.311
REMARK  2 active torsions:
REMARK  status: ('A' for Active; 'I' for Inactive)
REMARK    1  A    between atoms: C_2  and  N_3 
REMARK       I    between atoms: N_3  and  C_4 
REMARK    2  A    between atoms: C_4  and  C_5 
ROOT
HETATM    1  C   UNL     1      45.792 -28.429  -2.864  1.00  0.00     0.032 A 
HETATM    2  C   UNL     1      45.951 -29.468  -1.955  1.00  0.00     0.036 A 
HETATM    3  C   UNL     1      45.446 -30.728  -2.286  1.00  0.00     0.049 A 
HETATM    4  C   UNL     1      44.849 -30.980  -3.539  1.00  0.00     0.061 A 
HETATM    5  C   UNL     1      44.742 -29.940  -4.471  1.00  0.00     0.050 A 
HETATM    6  N   UNL     1      44.225 -30.034  -5.773  1.00  0.00    -0.324 N 
HETATM    7  C   UNL     1      44.232 -31.108  -6.621  1.00  0.00     0.245 C 
HETATM    8  O   UNL     1      43.884 -30.925  -7.790  1.00  0.00    -0.271 OA
HETATM    9  C   UNL     1      44.871 -32.407  -6.140  1.00  0.00     0.180 C 
HETATM   10  N   UNL     1      44.207 -32.907  -4.946  1.00  0.00    -0.334 N 
HETATM   11  C   UNL     1      44.262 -32.336  -3.699  1.00  0.00     0.256 C 
HETATM   12  O   UNL     1      43.853 -32.920  -2.696  1.00  0.00    -0.267 OA
HETATM   13  C   UNL     1      44.723 -33.542  -7.163  1.00  0.00     0.037 C 
HETATM   14  C   UNL     1      44.580 -34.784  -6.296  1.00  0.00     0.022 C 
HETATM   15  C   UNL     1      43.755 -34.276  -5.125  1.00  0.00     0.127 C 
HETATM   16  C   UNL     1      45.178 -28.659  -4.099  1.00  0.00     0.033 A 
HETATM   17  H   UNL     1      43.988 -29.176  -6.257  1.00  0.00     0.169 HD
ENDROOT
BRANCH   2  18
HETATM   18  N   UNL     1      46.599 -29.334  -0.719  1.00  0.00    -0.322 N 
HETATM   19  C   UNL     1      46.033 -29.156   0.530  1.00  0.00     0.277 C 
HETATM   20  O   UNL     1      44.835 -29.137   0.793  1.00  0.00    -0.266 OA
HETATM   21  H   UNL     1      47.616 -29.278  -0.705  1.00  0.00     0.169 HD
BRANCH  19  22
HETATM   22  C   UNL     1      47.059 -28.938   1.564  1.00  0.00     0.153 A 
HETATM   23  N   UNL     1      47.524 -27.694   1.868  1.00  0.00    -0.169 NA
HETATM   24  N   UNL     1      48.429 -27.896   2.863  1.00  0.00    -0.281 N 
HETATM   25  H   UNL     1      48.918 -27.096   3.252  1.00  0.00     0.189 HD
HETATM   26  C   UNL     1      48.519 -29.199   3.193  1.00  0.00     0.036 A 
HETATM   27  C   UNL     1      47.668 -29.891   2.390  1.00  0.00     0.002 A 
HETATM   28  C   UNL     1      49.254 -30.006   4.173  1.00  0.00     0.059 C 
HETATM   29  C   UNL     1      47.678 -31.331   2.690  1.00  0.00     0.043 C 
HETATM   30  C   UNL     1      48.468 -31.362   4.050  1.00  0.00     0.011 C 
ENDBRANCH  19  22
ENDBRANCH   2  18
TORSDOF 2
ENDMDL
