MODEL 1
REMARK VINA RESULT:      -8.6      0.000      0.000
REMARK  3 active torsions:
REMARK  status: ('A' for Active; 'I' for Inactive)
REMARK    1  A    between atoms: C_2  and  N_3 
REMARK    2  A    between atoms: C_2  and  C_10 
REMARK    3  A    between atoms: C_13  and  C_14 
ROOT
HETATM    1  C   UNL     1      40.506 -13.906   1.317  1.00  0.00    -0.028 A 
HETATM    2  C   UNL     1      41.904 -13.789   1.360  1.00  0.00     0.010 A 
HETATM    3  C   UNL     1      42.679 -14.715   2.068  1.00  0.00     0.014 A 
HETATM    4  C   UNL     1      42.095 -15.787   2.762  1.00  0.00    -0.006 A 
HETATM    5  C   UNL     1      40.695 -15.872   2.748  1.00  0.00     0.014 A 
HETATM    6  C   UNL     1      39.913 -14.955   2.034  1.00  0.00     0.010 A 
ENDROOT
BRANCH   4   7
HETATM    7  C   UNL     1      42.934 -16.753   3.480  1.00  0.00     0.082 A 
HETATM    8  N   UNL     1      43.561 -16.321   4.607  1.00  0.00    -0.240 NA
HETATM    9  C   UNL     1      44.336 -17.194   5.280  1.00  0.00     0.236 A 
HETATM   10  N   UNL     1      44.589 -18.477   4.978  1.00  0.00    -0.224 NA
HETATM   11  C   UNL     1      43.968 -18.851   3.852  1.00  0.00     0.141 A 
HETATM   12  C   UNL     1      43.143 -18.075   3.050  1.00  0.00     0.041 A 
HETATM   13  N   UNL     1      44.061 -20.099   3.297  1.00  0.00    -0.350 N 
HETATM   14  C   UNL     1      42.755 -18.904   1.955  1.00  0.00     0.034 A 
HETATM   15  C   UNL     1      43.327 -20.145   2.141  1.00  0.00     0.091 A 
HETATM   16  H   UNL     1      44.606 -20.851   3.695  1.00  0.00     0.166 HD
ENDBRANCH   4   7
BRANCH   1  17
HETATM   17  C   UNL     1      39.699 -12.892   0.525  1.00  0.00     0.217 C 
HETATM   18  C   UNL     1      40.484 -11.648   0.095  1.00  0.00     0.045 C 
BRANCH  17  19
HETATM   19  N   UNL     1      38.969 -13.537  -0.656  1.00  0.00    -0.063 N 
HETATM   20  H   UNL     1      38.270 -14.146  -0.208  1.00  0.00     0.280 HD
HETATM   21  C   UNL     1      38.195 -12.536  -1.484  1.00  0.00     0.235 C 
HETATM   22  C   UNL     1      37.302 -13.269  -2.476  1.00  0.00     0.028 C 
HETATM   23  C   UNL     1      38.104 -14.222  -3.354  1.00  0.00     0.003 C 
HETATM   24  C   UNL     1      38.921 -15.188  -2.506  1.00  0.00     0.028 C 
HETATM   25  C   UNL     1      39.813 -14.453  -1.514  1.00  0.00     0.235 C 
ENDBRANCH  17  19
ENDBRANCH   1  17
TORSDOF 3
ENDMDL
MODEL 2
REMARK VINA RESULT:      -8.5      1.006      1.993
REMARK  3 active torsions:
REMARK  status: ('A' for Active; 'I' for Inactive)
REMARK    1  A    between atoms: C_2  and  N_3 
REMARK    2  A    between atoms: C_2  and  C_10 
REMARK    3  A    between atoms: C_13  and  C_14 
ROOT
HETATM    1  C   UNL     1      40.470 -14.059   1.199  1.00  0.00    -0.028 A 
HETATM    2  C   UNL     1      41.873 -14.004   1.230  1.00  0.00     0.010 A 
HETATM    3  C   UNL     1      42.613 -14.971   1.919  1.00  0.00     0.014 A 
HETATM    4  C   UNL     1      41.989 -16.026   2.605  1.00  0.00    -0.006 A 
HETATM    5  C   UNL     1      40.586 -16.049   2.603  1.00  0.00     0.014 A 
HETATM    6  C   UNL     1      39.839 -15.089   1.909  1.00  0.00     0.010 A 
ENDROOT
BRANCH   4   7
HETATM    7  C   UNL     1      42.790 -17.037   3.302  1.00  0.00     0.082 A 
HETATM    8  N   UNL     1      43.427 -17.965   2.539  1.00  0.00    -0.240 NA
HETATM    9  C   UNL     1      44.169 -18.903   3.161  1.00  0.00     0.236 A 
HETATM   10  N   UNL     1      44.368 -19.057   4.479  1.00  0.00    -0.224 NA
HETATM   11  C   UNL     1      43.706 -18.136   5.191  1.00  0.00     0.141 A 
HETATM   12  C   UNL     1      42.906 -17.113   4.701  1.00  0.00     0.041 A 
HETATM   13  N   UNL     1      43.713 -18.063   6.557  1.00  0.00    -0.350 N 
HETATM   14  C   UNL     1      42.397 -16.423   5.842  1.00  0.00     0.034 A 
HETATM   15  C   UNL     1      42.919 -17.025   6.968  1.00  0.00     0.091 A 
HETATM   16  H   UNL     1      44.225 -18.701   7.151  1.00  0.00     0.166 HD
ENDBRANCH   4   7
BRANCH   1  17
HETATM   17  C   UNL     1      39.702 -13.000   0.428  1.00  0.00     0.217 C 
HETATM   18  C   UNL     1      40.537 -11.787   0.004  1.00  0.00     0.045 C 
BRANCH  17  19
HETATM   19  N   UNL     1      38.932 -13.598  -0.753  1.00  0.00    -0.063 N 
HETATM   20  H   UNL     1      38.236 -14.211  -0.306  1.00  0.00     0.280 HD
HETATM   21  C   UNL     1      38.152 -12.561  -1.529  1.00  0.00     0.235 C 
HETATM   22  C   UNL     1      37.222 -13.250  -2.519  1.00  0.00     0.028 C 
HETATM   23  C   UNL     1      37.986 -14.185  -3.447  1.00  0.00     0.003 C 
HETATM   24  C   UNL     1      38.811 -15.190  -2.652  1.00  0.00     0.028 C 
HETATM   25  C   UNL     1      39.740 -14.498  -1.661  1.00  0.00     0.235 C 
ENDBRANCH  17  19
ENDBRANCH   1  17
TORSDOF 3
ENDMDL
MODEL 3
REMARK VINA RESULT:      -8.3      1.192      7.510
REMARK  3 active torsions:
REMARK  status: ('A' for Active; 'I' for Inactive)
REMARK    1  A    between atoms: C_2  and  N_3 
REMARK    2  A    between atoms: C_2  and  C_10 
REMARK    3  A    between atoms: C_13  and  C_14 
ROOT
HETATM    1  C   UNL     1      42.584 -15.894   3.170  1.00  0.00    -0.028 A 
HETATM    2  C   UNL     1      43.070 -14.918   2.285  1.00  0.00     0.010 A 
HETATM    3  C   UNL     1      42.191 -14.149   1.513  1.00  0.00     0.014 A 
HETATM    4  C   UNL     1      40.800 -14.324   1.588  1.00  0.00    -0.006 A 
HETATM    5  C   UNL     1      40.325 -15.329   2.444  1.00  0.00     0.014 A 
HETATM    6  C   UNL     1      41.198 -16.096   3.226  1.00  0.00     0.010 A 
ENDROOT
BRANCH   4   7
HETATM    7  C   UNL     1      39.901 -13.490   0.782  1.00  0.00     0.082 A 
HETATM    8  N   UNL     1      39.479 -12.318   1.328  1.00  0.00    -0.240 NA
HETATM    9  C   UNL     1      38.653 -11.538   0.603  1.00  0.00     0.236 A 
HETATM   10  N   UNL     1      38.166 -11.769  -0.627  1.00  0.00    -0.224 NA
HETATM   11  C   UNL     1      38.591 -12.942  -1.114  1.00  0.00     0.141 A 
HETATM   12  C   UNL     1      39.437 -13.851  -0.495  1.00  0.00     0.041 A 
HETATM   13  N   UNL     1      38.241 -13.442  -2.338  1.00  0.00    -0.350 N 
HETATM   14  C   UNL     1      39.565 -14.953  -1.392  1.00  0.00     0.034 A 
HETATM   15  C   UNL     1      38.826 -14.668  -2.521  1.00  0.00     0.091 A 
HETATM   16  H   UNL     1      37.629 -12.965  -2.986  1.00  0.00     0.166 HD
ENDBRANCH   4   7
BRANCH   1  17
HETATM   17  C   UNL     1      43.567 -16.698   4.003  1.00  0.00     0.217 C 
HETATM   18  C   UNL     1      43.569 -16.354   5.496  1.00  0.00     0.045 C 
BRANCH  17  19
HETATM   19  N   UNL     1      43.419 -18.203   3.769  1.00  0.00    -0.063 N 
HETATM   20  H   UNL     1      42.449 -18.401   4.052  1.00  0.00     0.280 HD
HETATM   21  C   UNL     1      43.523 -18.583   2.309  1.00  0.00     0.235 C 
HETATM   22  C   UNL     1      43.119 -20.040   2.125  1.00  0.00     0.028 C 
HETATM   23  C   UNL     1      43.950 -20.966   3.005  1.00  0.00     0.003 C 
HETATM   24  C   UNL     1      43.881 -20.539   4.466  1.00  0.00     0.028 C 
HETATM   25  C   UNL     1      44.284 -19.080   4.647  1.00  0.00     0.235 C 
ENDBRANCH  17  19
ENDBRANCH   1  17
TORSDOF 3
ENDMDL
MODEL 4
REMARK VINA RESULT:      -8.3      1.483      7.949
REMARK  3 active torsions:
REMARK  status: ('A' for Active; 'I' for Inactive)
REMARK    1  A    between atoms: C_2  and  N_3 
REMARK    2  A    between atoms: C_2  and  C_10 
REMARK    3  A    between atoms: C_13  and  C_14 
ROOT
HETATM    1  C   UNL     1      41.829 -16.221   2.420  1.00  0.00    -0.028 A 
HETATM    2  C   UNL     1      40.482 -16.417   2.074  1.00  0.00     0.010 A 
HETATM    3  C   UNL     1      39.818 -15.513   1.236  1.00  0.00     0.014 A 
HETATM    4  C   UNL     1      40.465 -14.381   0.715  1.00  0.00    -0.006 A 
HETATM    5  C   UNL     1      41.799 -14.172   1.098  1.00  0.00     0.014 A 
HETATM    6  C   UNL     1      42.472 -15.076   1.929  1.00  0.00     0.010 A 
ENDROOT
BRANCH   4   7
HETATM    7  C   UNL     1      39.751 -13.462  -0.177  1.00  0.00     0.082 A 
HETATM    8  N   UNL     1      39.609 -12.174   0.237  1.00  0.00    -0.240 NA
HETATM    9  C   UNL     1      38.955 -11.313  -0.568  1.00  0.00     0.236 A 
HETATM   10  N   UNL     1      38.398 -11.562  -1.764  1.00  0.00    -0.224 NA
HETATM   11  C   UNL     1      38.543 -12.845  -2.120  1.00  0.00     0.141 A 
HETATM   12  C   UNL     1      39.186 -13.847  -1.405  1.00  0.00     0.041 A 
HETATM   13  N   UNL     1      38.060 -13.384  -3.281  1.00  0.00    -0.350 N 
HETATM   14  C   UNL     1      39.046 -15.039  -2.176  1.00  0.00     0.034 A 
HETATM   15  C   UNL     1      38.358 -14.721  -3.328  1.00  0.00     0.091 A 
HETATM   16  H   UNL     1      37.551 -12.856  -3.976  1.00  0.00     0.166 HD
ENDBRANCH   4   7
BRANCH   1  17
HETATM   17  C   UNL     1      42.520 -17.231   3.318  1.00  0.00     0.217 C 
HETATM   18  C   UNL     1      43.689 -17.975   2.662  1.00  0.00     0.045 C 
BRANCH  17  19
HETATM   19  N   UNL     1      42.922 -16.621   4.663  1.00  0.00    -0.063 N 
HETATM   20  H   UNL     1      43.145 -15.643   4.431  1.00  0.00     0.280 HD
HETATM   21  C   UNL     1      41.779 -16.576   5.652  1.00  0.00     0.235 C 
HETATM   22  C   UNL     1      42.175 -15.739   6.860  1.00  0.00     0.028 C 
HETATM   23  C   UNL     1      43.453 -16.258   7.506  1.00  0.00     0.003 C 
HETATM   24  C   UNL     1      44.582 -16.351   6.487  1.00  0.00     0.028 C 
HETATM   25  C   UNL     1      44.182 -17.188   5.278  1.00  0.00     0.235 C 
ENDBRANCH  17  19
ENDBRANCH   1  17
TORSDOF 3
ENDMDL
MODEL 5
REMARK VINA RESULT:      -8.1      1.290      7.899
REMARK  3 active torsions:
REMARK  status: ('A' for Active; 'I' for Inactive)
REMARK    1  A    between atoms: C_2  and  N_3 
REMARK    2  A    between atoms: C_2  and  C_10 
REMARK    3  A    between atoms: C_13  and  C_14 
ROOT
HETATM    1  C   UNL     1      42.604 -16.024   3.004  1.00  0.00    -0.028 A 
HETATM    2  C   UNL     1      41.242 -16.360   2.922  1.00  0.00     0.010 A 
HETATM    3  C   UNL     1      40.393 -15.696   2.029  1.00  0.00     0.014 A 
HETATM    4  C   UNL     1      40.862 -14.673   1.189  1.00  0.00    -0.006 A 
HETATM    5  C   UNL     1      42.214 -14.316   1.307  1.00  0.00     0.014 A 
HETATM    6  C   UNL     1      43.072 -14.982   2.192  1.00  0.00     0.010 A 
ENDROOT
BRANCH   4   7
HETATM    7  C   UNL     1      39.953 -14.007   0.250  1.00  0.00     0.082 A 
HETATM    8  N   UNL     1      39.655 -14.664  -0.903  1.00  0.00    -0.240 NA
HETATM    9  C   UNL     1      38.822 -14.069  -1.780  1.00  0.00     0.236 A 
HETATM   10  N   UNL     1      38.229 -12.870  -1.671  1.00  0.00    -0.224 NA
HETATM   11  C   UNL     1      38.568 -12.252  -0.532  1.00  0.00     0.141 A 
HETATM   12  C   UNL     1      39.408 -12.729   0.464  1.00  0.00     0.041 A 
HETATM   13  N   UNL     1      38.125 -11.010  -0.166  1.00  0.00    -0.350 N 
HETATM   14  C   UNL     1      39.482 -11.701   1.450  1.00  0.00     0.034 A 
HETATM   15  C   UNL     1      38.675 -10.661   1.039  1.00  0.00     0.091 A 
HETATM   16  H   UNL     1      37.497 -10.450  -0.727  1.00  0.00     0.166 HD
ENDBRANCH   4   7
BRANCH   1  17
HETATM   17  C   UNL     1      43.498 -16.778   3.972  1.00  0.00     0.217 C 
HETATM   18  C   UNL     1      43.335 -16.371   5.441  1.00  0.00     0.045 C 
BRANCH  17  19
HETATM   19  N   UNL     1      43.389 -18.294   3.790  1.00  0.00    -0.063 N 
HETATM   20  H   UNL     1      42.410 -18.500   4.033  1.00  0.00     0.280 HD
HETATM   21  C   UNL     1      43.573 -18.727   2.353  1.00  0.00     0.235 C 
HETATM   22  C   UNL     1      43.205 -20.198   2.207  1.00  0.00     0.028 C 
HETATM   23  C   UNL     1      44.008 -21.073   3.162  1.00  0.00     0.003 C 
HETATM   24  C   UNL     1      43.858 -20.592   4.600  1.00  0.00     0.028 C 
HETATM   25  C   UNL     1      44.224 -19.120   4.743  1.00  0.00     0.235 C 
ENDBRANCH  17  19
ENDBRANCH   1  17
TORSDOF 3
ENDMDL
MODEL 6
REMARK VINA RESULT:      -7.8      1.669      7.860
REMARK  3 active torsions:
REMARK  status: ('A' for Active; 'I' for Inactive)
REMARK    1  A    between atoms: C_2  and  N_3 
REMARK    2  A    between atoms: C_2  and  C_10 
REMARK    3  A    between atoms: C_13  and  C_14 
ROOT
HETATM    1  C   UNL     1      41.355 -15.211   3.120  1.00  0.00    -0.028 A 
HETATM    2  C   UNL     1      40.368 -15.965   2.465  1.00  0.00     0.010 A 
HETATM    3  C   UNL     1      39.931 -15.613   1.182  1.00  0.00     0.014 A 
HETATM    4  C   UNL     1      40.456 -14.500   0.505  1.00  0.00    -0.006 A 
HETATM    5  C   UNL     1      41.412 -13.729   1.184  1.00  0.00     0.014 A 
HETATM    6  C   UNL     1      41.860 -14.080   2.464  1.00  0.00     0.010 A 
ENDROOT
BRANCH   4   7
HETATM    7  C   UNL     1      39.994 -14.166  -0.846  1.00  0.00     0.082 A 
HETATM    8  N   UNL     1      39.235 -15.091  -1.493  1.00  0.00    -0.240 NA
HETATM    9  C   UNL     1      38.801 -14.803  -2.737  1.00  0.00     0.236 A 
HETATM   10  N   UNL     1      39.027 -13.691  -3.453  1.00  0.00    -0.224 NA
HETATM   11  C   UNL     1      39.795 -12.820  -2.785  1.00  0.00     0.141 A 
HETATM   12  C   UNL     1      40.318 -12.969  -1.508  1.00  0.00     0.041 A 
HETATM   13  N   UNL     1      40.199 -11.610  -3.279  1.00  0.00    -0.350 N 
HETATM   14  C   UNL     1      41.091 -11.797  -1.254  1.00  0.00     0.034 A 
HETATM   15  C   UNL     1      40.990 -10.976  -2.357  1.00  0.00     0.091 A 
HETATM   16  H   UNL     1      39.949 -11.265  -4.196  1.00  0.00     0.166 HD
ENDBRANCH   4   7
BRANCH   1  17
HETATM   17  C   UNL     1      41.815 -15.633   4.504  1.00  0.00     0.217 C 
HETATM   18  C   UNL     1      40.731 -15.562   5.586  1.00  0.00     0.045 C 
BRANCH  17  19
HETATM   19  N   UNL     1      42.508 -16.998   4.487  1.00  0.00    -0.063 N 
HETATM   20  H   UNL     1      41.732 -17.665   4.369  1.00  0.00     0.280 HD
HETATM   21  C   UNL     1      43.413 -17.180   3.290  1.00  0.00     0.235 C 
HETATM   22  C   UNL     1      43.865 -18.632   3.202  1.00  0.00     0.028 C 
HETATM   23  C   UNL     1      44.541 -19.086   4.490  1.00  0.00     0.003 C 
HETATM   24  C   UNL     1      43.640 -18.846   5.694  1.00  0.00     0.028 C 
HETATM   25  C   UNL     1      43.188 -17.393   5.779  1.00  0.00     0.235 C 
ENDBRANCH  17  19
ENDBRANCH   1  17
TORSDOF 3
ENDMDL
MODEL 7
REMARK VINA RESULT:      -7.7      5.521      8.388
REMARK  3 active torsions:
REMARK  status: ('A' for Active; 'I' for Inactive)
REMARK    1  A    between atoms: C_2  and  N_3 
REMARK    2  A    between atoms: C_2  and  C_10 
REMARK    3  A    between atoms: C_13  and  C_14 
ROOT
HETATM    1  C   UNL     1      42.558 -14.274   5.315  1.00  0.00    -0.028 A 
HETATM    2  C   UNL     1      42.929 -14.283   6.669  1.00  0.00     0.010 A 
HETATM    3  C   UNL     1      43.599 -13.193   7.236  1.00  0.00     0.014 A 
HETATM    4  C   UNL     1      43.929 -12.057   6.479  1.00  0.00    -0.006 A 
HETATM    5  C   UNL     1      43.592 -12.074   5.117  1.00  0.00     0.014 A 
HETATM    6  C   UNL     1      42.913 -13.158   4.545  1.00  0.00     0.010 A 
ENDROOT
BRANCH   4   7
HETATM    7  C   UNL     1      44.615 -10.921   7.104  1.00  0.00     0.082 A 
HETATM    8  N   UNL     1      45.975 -10.931   7.098  1.00  0.00    -0.240 NA
HETATM    9  C   UNL     1      46.624  -9.896   7.668  1.00  0.00     0.236 A 
HETATM   10  N   UNL     1      46.093  -8.819   8.267  1.00  0.00    -0.224 NA
HETATM   11  C   UNL     1      44.754  -8.863   8.268  1.00  0.00     0.141 A 
HETATM   12  C   UNL     1      43.946  -9.853   7.727  1.00  0.00     0.041 A 
HETATM   13  N   UNL     1      43.951  -7.906   8.826  1.00  0.00    -0.350 N 
HETATM   14  C   UNL     1      42.601  -9.469   8.008  1.00  0.00     0.034 A 
HETATM   15  C   UNL     1      42.636  -8.262   8.676  1.00  0.00     0.091 A 
HETATM   16  H   UNL     1      44.301  -7.077   9.286  1.00  0.00     0.166 HD
ENDBRANCH   4   7
BRANCH   1  17
HETATM   17  C   UNL     1      41.818 -15.468   4.739  1.00  0.00     0.217 C 
HETATM   18  C   UNL     1      40.665 -15.110   3.794  1.00  0.00     0.045 C 
BRANCH  17  19
HETATM   19  N   UNL     1      42.772 -16.484   4.107  1.00  0.00    -0.063 N 
HETATM   20  H   UNL     1      43.588 -15.917   3.834  1.00  0.00     0.280 HD
HETATM   21  C   UNL     1      43.278 -17.509   5.097  1.00  0.00     0.235 C 
HETATM   22  C   UNL     1      44.403 -18.321   4.470  1.00  0.00     0.028 C 
HETATM   23  C   UNL     1      43.962 -18.973   3.165  1.00  0.00     0.003 C 
HETATM   24  C   UNL     1      43.404 -17.937   2.198  1.00  0.00     0.028 C 
HETATM   25  C   UNL     1      42.279 -17.125   2.829  1.00  0.00     0.235 C 
ENDBRANCH  17  19
ENDBRANCH   1  17
TORSDOF 3
ENDMDL
MODEL 8
REMARK VINA RESULT:      -7.5      1.733      8.222
REMARK  3 active torsions:
REMARK  status: ('A' for Active; 'I' for Inactive)
REMARK    1  A    between atoms: C_2  and  N_3 
REMARK    2  A    between atoms: C_2  and  C_10 
REMARK    3  A    between atoms: C_13  and  C_14 
ROOT
HETATM    1  C   UNL     1      41.888 -16.116   2.470  1.00  0.00    -0.028 A 
HETATM    2  C   UNL     1      40.604 -16.336   1.945  1.00  0.00     0.010 A 
HETATM    3  C   UNL     1      39.995 -15.383   1.120  1.00  0.00     0.014 A 
HETATM    4  C   UNL     1      40.635 -14.177   0.790  1.00  0.00    -0.006 A 
HETATM    5  C   UNL     1      41.901 -13.949   1.352  1.00  0.00     0.014 A 
HETATM    6  C   UNL     1      42.520 -14.902   2.171  1.00  0.00     0.010 A 
ENDROOT
BRANCH   4   7
HETATM    7  C   UNL     1      39.981 -13.206  -0.093  1.00  0.00     0.082 A 
HETATM    8  N   UNL     1      40.316 -13.234  -1.411  1.00  0.00    -0.240 NA
HETATM    9  C   UNL     1      39.726 -12.349  -2.239  1.00  0.00     0.236 A 
HETATM   10  N   UNL     1      38.825 -11.404  -1.929  1.00  0.00    -0.224 NA
HETATM   11  C   UNL     1      38.543 -11.399  -0.620  1.00  0.00     0.141 A 
HETATM   12  C   UNL     1      39.063 -12.240   0.354  1.00  0.00     0.041 A 
HETATM   13  N   UNL     1      37.670 -10.532  -0.021  1.00  0.00    -0.350 N 
HETATM   14  C   UNL     1      38.486 -11.824   1.591  1.00  0.00     0.034 A 
HETATM   15  C   UNL     1      37.626 -10.778   1.326  1.00  0.00     0.091 A 
HETATM   16  H   UNL     1      37.159  -9.816  -0.519  1.00  0.00     0.166 HD
ENDBRANCH   4   7
BRANCH   1  17
HETATM   17  C   UNL     1      42.523 -17.180   3.348  1.00  0.00     0.217 C 
HETATM   18  C   UNL     1      43.652 -17.971   2.678  1.00  0.00     0.045 C 
BRANCH  17  19
HETATM   19  N   UNL     1      42.953 -16.620   4.706  1.00  0.00    -0.063 N 
HETATM   20  H   UNL     1      43.158 -15.630   4.509  1.00  0.00     0.280 HD
HETATM   21  C   UNL     1      41.836 -16.630   5.725  1.00  0.00     0.235 C 
HETATM   22  C   UNL     1      42.255 -15.837   6.956  1.00  0.00     0.028 C 
HETATM   23  C   UNL     1      43.555 -16.366   7.547  1.00  0.00     0.003 C 
HETATM   24  C   UNL     1      44.658 -16.402   6.496  1.00  0.00     0.028 C 
HETATM   25  C   UNL     1      44.236 -17.195   5.264  1.00  0.00     0.235 C 
ENDBRANCH  17  19
ENDBRANCH   1  17
TORSDOF 3
ENDMDL
MODEL 9
REMARK VINA RESULT:      -7.3      1.714      3.421
REMARK  3 active torsions:
REMARK  status: ('A' for Active; 'I' for Inactive)
REMARK    1  A    between atoms: C_2  and  N_3 
REMARK    2  A    between atoms: C_2  and  C_10 
REMARK    3  A    between atoms: C_13  and  C_14 
ROOT
HETATM    1  C   UNL     1      41.104 -14.287   0.902  1.00  0.00    -0.028 A 
HETATM    2  C   UNL     1      42.305 -13.985   1.563  1.00  0.00     0.010 A 
HETATM    3  C   UNL     1      42.856 -14.875   2.492  1.00  0.00     0.014 A 
HETATM    4  C   UNL     1      42.233 -16.095   2.802  1.00  0.00    -0.006 A 
HETATM    5  C   UNL     1      41.012 -16.370   2.167  1.00  0.00     0.014 A 
HETATM    6  C   UNL     1      40.460 -15.488   1.229  1.00  0.00     0.010 A 
ENDROOT
BRANCH   4   7
HETATM    7  C   UNL     1      42.843 -17.018   3.765  1.00  0.00     0.082 A 
HETATM    8  N   UNL     1      43.473 -18.115   3.266  1.00  0.00    -0.240 NA
HETATM    9  C   UNL     1      44.040 -18.976   4.135  1.00  0.00     0.236 A 
HETATM   10  N   UNL     1      44.063 -18.899   5.475  1.00  0.00    -0.224 NA
HETATM   11  C   UNL     1      43.413 -17.816   5.921  1.00  0.00     0.141 A 
HETATM   12  C   UNL     1      42.782 -16.844   5.158  1.00  0.00     0.041 A 
HETATM   13  N   UNL     1      43.264 -17.495   7.242  1.00  0.00    -0.350 N 
HETATM   14  C   UNL     1      42.210 -15.920   6.083  1.00  0.00     0.034 A 
HETATM   15  C   UNL     1      42.532 -16.342   7.357  1.00  0.00     0.091 A 
HETATM   16  H   UNL     1      43.637 -18.049   8.001  1.00  0.00     0.166 HD
ENDBRANCH   4   7
BRANCH   1  17
HETATM   17  C   UNL     1      40.546 -13.304  -0.112  1.00  0.00     0.217 C 
HETATM   18  C   UNL     1      39.408 -13.857  -0.978  1.00  0.00     0.045 C 
BRANCH  17  19
HETATM   19  N   UNL     1      40.167 -11.968   0.534  1.00  0.00    -0.063 N 
HETATM   20  H   UNL     1      40.891 -11.831   1.253  1.00  0.00     0.280 HD
HETATM   21  C   UNL     1      40.287 -10.801  -0.420  1.00  0.00     0.235 C 
HETATM   22  C   UNL     1      40.143  -9.493   0.346  1.00  0.00     0.028 C 
HETATM   23  C   UNL     1      38.838  -9.444   1.130  1.00  0.00     0.003 C 
HETATM   24  C   UNL     1      38.706 -10.653   2.046  1.00  0.00     0.028 C 
HETATM   25  C   UNL     1      38.851 -11.961   1.278  1.00  0.00     0.235 C 
ENDBRANCH  17  19
ENDBRANCH   1  17
TORSDOF 3
ENDMDL
MODEL 10
REMARK VINA RESULT:      -7.3      5.698      8.143
REMARK  3 active torsions:
REMARK  status: ('A' for Active; 'I' for Inactive)
REMARK    1  A    between atoms: C_2  and  N_3 
REMARK    2  A    between atoms: C_2  and  C_10 
REMARK    3  A    between atoms: C_13  and  C_14 
ROOT
HETATM    1  C   UNL     1      42.870 -11.535   6.780  1.00  0.00    -0.028 A 
HETATM    2  C   UNL     1      41.848 -12.131   6.023  1.00  0.00     0.010 A 
HETATM    3  C   UNL     1      41.987 -13.435   5.533  1.00  0.00     0.014 A 
HETATM    4  C   UNL     1      43.145 -14.193   5.773  1.00  0.00    -0.006 A 
HETATM    5  C   UNL     1      44.176 -13.575   6.496  1.00  0.00     0.014 A 
HETATM    6  C   UNL     1      44.042 -12.274   6.996  1.00  0.00     0.010 A 
ENDROOT
BRANCH   4   7
HETATM    7  C   UNL     1      43.254 -15.564   5.264  1.00  0.00     0.082 A 
HETATM    8  N   UNL     1      43.394 -16.561   6.179  1.00  0.00    -0.240 NA
HETATM    9  C   UNL     1      43.496 -17.828   5.731  1.00  0.00     0.236 A 
HETATM   10  N   UNL     1      43.486 -18.258   4.460  1.00  0.00    -0.224 NA
HETATM   11  C   UNL     1      43.369 -17.241   3.595  1.00  0.00     0.141 A 
HETATM   12  C   UNL     1      43.254 -15.891   3.897  1.00  0.00     0.041 A 
HETATM   13  N   UNL     1      43.347 -17.383   2.235  1.00  0.00    -0.350 N 
HETATM   14  C   UNL     1      43.191 -15.207   2.647  1.00  0.00     0.034 A 
HETATM   15  C   UNL     1      43.240 -16.152   1.644  1.00  0.00     0.091 A 
HETATM   16  H   UNL     1      43.416 -18.274   1.761  1.00  0.00     0.166 HD
ENDBRANCH   4   7
BRANCH   1  17
HETATM   17  C   UNL     1      42.677 -10.125   7.308  1.00  0.00     0.217 C 
HETATM   18  C   UNL     1      41.301  -9.516   7.016  1.00  0.00     0.045 C 
BRANCH  17  19
HETATM   19  N   UNL     1      43.041 -10.013   8.791  1.00  0.00    -0.063 N 
HETATM   20  H   UNL     1      43.074 -10.993   9.109  1.00  0.00     0.280 HD
HETATM   21  C   UNL     1      44.426  -9.447   9.014  1.00  0.00     0.235 C 
HETATM   22  C   UNL     1      44.815  -9.599  10.478  1.00  0.00     0.028 C 
HETATM   23  C   UNL     1      43.790  -8.952  11.400  1.00  0.00     0.003 C 
HETATM   24  C   UNL     1      42.392  -9.492  11.127  1.00  0.00     0.028 C 
HETATM   25  C   UNL     1      42.005  -9.340   9.661  1.00  0.00     0.235 C 
ENDBRANCH  17  19
ENDBRANCH   1  17
TORSDOF 3
ENDMDL
