MODEL 1
REMARK VINA RESULT:      -8.7      0.000      0.000
REMARK  8 active torsions:
REMARK  status: ('A' for Active; 'I' for Inactive)
REMARK    1  A    between atoms: O_2  and  C_3 
REMARK    2  A    between atoms: C_4  and  O_5 
REMARK    3  A    between atoms: C_6  and  O_7 
REMARK    4  A    between atoms: C_10  and  C_11 
REMARK    5  A    between atoms: C_11  and  N_12 
REMARK    6  A    between atoms: C_16  and  C_17 
REMARK       I    between atoms: C_17  and  N_18 
REMARK    7  A    between atoms: N_21  and  C_23 
REMARK    8  A    between atoms: C_23  and  C_24 
ROOT
HETATM    1  N   UNL     1      40.518  -8.680   5.722  1.00  0.00    -0.067 N 
HETATM    2  H   UNL     1      40.063  -7.940   5.169  1.00  0.00     0.280 HD
HETATM    3  C   UNL     1      41.171  -9.634   4.755  1.00  0.00     0.236 C 
HETATM    4  C   UNL     1      40.120 -10.341   3.901  1.00  0.00     0.042 C 
HETATM    5  C   UNL     1      39.084 -11.080   4.750  1.00  0.00     0.081 C 
HETATM    6  C   UNL     1      38.460 -10.106   5.761  1.00  0.00     0.042 C 
HETATM    7  C   UNL     1      39.468  -9.323   6.594  1.00  0.00     0.236 C 
ENDROOT
BRANCH   5   8
HETATM    8  C   UNL     1      39.755 -12.275   5.435  1.00  0.00     0.224 C 
HETATM    9  N   UNL     1      40.591 -13.113   4.694  1.00  0.00    -0.349 N 
HETATM   10  C   UNL     1      41.224 -14.200   5.458  1.00  0.00     0.153 C 
HETATM   11  C   UNL     1      40.367 -13.397   3.267  1.00  0.00     0.153 C 
HETATM   12  C   UNL     1      42.464 -14.790   4.776  1.00  0.00     0.255 C 
HETATM   13  N   UNL     1      42.127 -15.221   3.357  1.00  0.00    -0.064 N 
HETATM   14  H   UNL     1      41.407 -15.953   3.424  1.00  0.00     0.280 HD
HETATM   15  C   UNL     1      41.571 -14.055   2.559  1.00  0.00     0.255 C 
HETATM   16  O   UNL     1      39.666 -12.394   6.658  1.00  0.00    -0.273 OA
BRANCH  13  17
HETATM   17  C   UNL     1      43.304 -15.858   2.633  1.00  0.00     0.273 C 
BRANCH  17  18
HETATM   18  C   UNL     1      43.466 -17.327   2.916  1.00  0.00    -0.030 A 
HETATM   19  C   UNL     1      43.829 -17.752   4.208  1.00  0.00     0.048 A 
HETATM   20  C   UNL     1      43.915 -19.106   4.448  1.00  0.00     0.105 A 
HETATM   21  C   UNL     1      43.665 -20.034   3.469  1.00  0.00     0.105 A 
HETATM   22  O   UNL     1      44.232 -19.677   5.639  1.00  0.00    -0.323 OA
HETATM   23  O   UNL     1      43.799 -21.308   3.919  1.00  0.00    -0.323 OA
HETATM   24  C   UNL     1      43.317 -19.658   2.190  1.00  0.00     0.040 A 
HETATM   25  C   UNL     1      44.197 -21.081   5.288  1.00  0.00     0.352 A 
HETATM   26  C   UNL     1      43.216 -18.291   1.912  1.00  0.00     0.012 A 
ENDBRANCH  17  18
ENDBRANCH  13  17
ENDBRANCH   5   8
BRANCH   1  27
HETATM   27  C   UNL     1      41.537  -7.970   6.608  1.00  0.00     0.273 C 
BRANCH  27  28
HETATM   28  C   UNL     1      42.154  -8.858   7.653  1.00  0.00    -0.027 A 
HETATM   29  C   UNL     1      41.795  -8.705   8.999  1.00  0.00     0.048 A 
HETATM   30  C   UNL     1      42.381  -9.508   9.971  1.00  0.00     0.104 A 
HETATM   31  C   UNL     1      43.350 -10.445   9.615  1.00  0.00     0.133 A 
HETATM   32  C   UNL     1      43.724 -10.617   8.278  1.00  0.00     0.104 A 
HETATM   33  C   UNL     1      43.118  -9.824   7.300  1.00  0.00     0.048 A 
BRANCH  30  34
HETATM   34  O   UNL     1      42.044  -9.294  11.278  1.00  0.00    -0.353 OA
HETATM   35  C   UNL     1      40.636  -9.461  11.461  1.00  0.00     0.210 C 
ENDBRANCH  30  34
BRANCH  31  36
HETATM   36  O   UNL     1      43.939 -11.209  10.589  1.00  0.00    -0.356 OA
HETATM   37  H   UNL     1      44.515 -10.607  11.099  1.00  0.00     0.218 HD
ENDBRANCH  31  36
BRANCH  32  38
HETATM   38  O   UNL     1      44.690 -11.564   8.064  1.00  0.00    -0.353 OA
HETATM   39  C   UNL     1      45.764 -11.226   7.196  1.00  0.00     0.210 C 
ENDBRANCH  32  38
ENDBRANCH  27  28
ENDBRANCH   1  27
TORSDOF 8
ENDMDL
MODEL 2
REMARK VINA RESULT:      -8.6      2.333      9.335
REMARK  8 active torsions:
REMARK  status: ('A' for Active; 'I' for Inactive)
REMARK    1  A    between atoms: O_2  and  C_3 
REMARK    2  A    between atoms: C_4  and  O_5 
REMARK    3  A    between atoms: C_6  and  O_7 
REMARK    4  A    between atoms: C_10  and  C_11 
REMARK    5  A    between atoms: C_11  and  N_12 
REMARK    6  A    between atoms: C_16  and  C_17 
REMARK       I    between atoms: C_17  and  N_18 
REMARK    7  A    between atoms: N_21  and  C_23 
REMARK    8  A    between atoms: C_23  and  C_24 
ROOT
HETATM    1  N   UNL     1      41.928 -13.865   2.351  1.00  0.00    -0.067 N 
HETATM    2  H   UNL     1      42.397 -13.954   1.439  1.00  0.00     0.280 HD
HETATM    3  C   UNL     1      41.003 -12.678   2.275  1.00  0.00     0.236 C 
HETATM    4  C   UNL     1      41.797 -11.385   2.090  1.00  0.00     0.042 C 
HETATM    5  C   UNL     1      42.831 -11.176   3.198  1.00  0.00     0.081 C 
HETATM    6  C   UNL     1      43.736 -12.413   3.295  1.00  0.00     0.042 C 
HETATM    7  C   UNL     1      42.993 -13.738   3.412  1.00  0.00     0.236 C 
ENDROOT
BRANCH   5   8
HETATM    8  C   UNL     1      42.104 -10.886   4.516  1.00  0.00     0.224 C 
HETATM    9  N   UNL     1      42.846 -10.665   5.677  1.00  0.00    -0.349 N 
HETATM   10  C   UNL     1      42.053 -10.345   6.876  1.00  0.00     0.153 C 
HETATM   11  C   UNL     1      44.132 -11.333   5.937  1.00  0.00     0.153 C 
HETATM   12  C   UNL     1      42.860  -9.655   7.981  1.00  0.00     0.255 C 
HETATM   13  N   UNL     1      44.091 -10.480   8.325  1.00  0.00    -0.064 N 
HETATM   14  H   UNL     1      43.761 -11.389   8.675  1.00  0.00     0.280 HD
HETATM   15  C   UNL     1      44.945 -10.708   7.090  1.00  0.00     0.255 C 
HETATM   16  O   UNL     1      40.885 -10.704   4.502  1.00  0.00    -0.273 OA
BRANCH  13  17
HETATM   17  C   UNL     1      44.918  -9.875   9.448  1.00  0.00     0.273 C 
BRANCH  17  18
HETATM   18  C   UNL     1      44.164  -9.724  10.742  1.00  0.00    -0.030 A 
HETATM   19  C   UNL     1      43.888  -8.438  11.242  1.00  0.00     0.048 A 
HETATM   20  C   UNL     1      43.147  -8.333  12.400  1.00  0.00     0.105 A 
HETATM   21  C   UNL     1      42.686  -9.440  13.068  1.00  0.00     0.105 A 
HETATM   22  O   UNL     1      42.780  -7.171  12.999  1.00  0.00    -0.323 OA
HETATM   23  O   UNL     1      41.975  -9.113  14.177  1.00  0.00    -0.323 OA
HETATM   24  C   UNL     1      42.944 -10.715  12.617  1.00  0.00     0.040 A 
HETATM   25  C   UNL     1      42.067  -7.672  14.154  1.00  0.00     0.352 A 
HETATM   26  C   UNL     1      43.690 -10.858  11.441  1.00  0.00     0.012 A 
ENDBRANCH  17  18
ENDBRANCH  13  17
ENDBRANCH   5   8
BRANCH   1  27
HETATM   27  C   UNL     1      41.170 -15.173   2.557  1.00  0.00     0.273 C 
BRANCH  27  28
HETATM   28  C   UNL     1      41.969 -16.230   3.268  1.00  0.00    -0.027 A 
HETATM   29  C   UNL     1      42.034 -16.233   4.667  1.00  0.00     0.048 A 
HETATM   30  C   UNL     1      42.791 -17.195   5.328  1.00  0.00     0.104 A 
HETATM   31  C   UNL     1      43.514 -18.140   4.599  1.00  0.00     0.133 A 
HETATM   32  C   UNL     1      43.463 -18.158   3.202  1.00  0.00     0.104 A 
HETATM   33  C   UNL     1      42.684 -17.204   2.540  1.00  0.00     0.048 A 
BRANCH  30  34
HETATM   34  O   UNL     1      42.872 -17.133   6.691  1.00  0.00    -0.353 OA
HETATM   35  C   UNL     1      42.166 -15.990   7.178  1.00  0.00     0.210 C 
ENDBRANCH  30  34
BRANCH  31  36
HETATM   36  O   UNL     1      44.277 -19.062   5.264  1.00  0.00    -0.356 OA
HETATM   37  H   UNL     1      44.000 -19.027   6.200  1.00  0.00     0.218 HD
ENDBRANCH  31  36
BRANCH  32  38
HETATM   38  O   UNL     1      44.222 -19.131   2.607  1.00  0.00    -0.353 OA
HETATM   39  C   UNL     1      43.539 -20.216   1.992  1.00  0.00     0.210 C 
ENDBRANCH  32  38
ENDBRANCH  27  28
ENDBRANCH   1  27
TORSDOF 8
ENDMDL
MODEL 3
REMARK VINA RESULT:      -8.5      2.317      9.485
REMARK  8 active torsions:
REMARK  status: ('A' for Active; 'I' for Inactive)
REMARK    1  A    between atoms: O_2  and  C_3 
REMARK    2  A    between atoms: C_4  and  O_5 
REMARK    3  A    between atoms: C_6  and  O_7 
REMARK    4  A    between atoms: C_10  and  C_11 
REMARK    5  A    between atoms: C_11  and  N_12 
REMARK    6  A    between atoms: C_16  and  C_17 
REMARK       I    between atoms: C_17  and  N_18 
REMARK    7  A    between atoms: N_21  and  C_23 
REMARK    8  A    between atoms: C_23  and  C_24 
ROOT
HETATM    1  N   UNL     1      41.955 -13.934   2.211  1.00  0.00    -0.067 N 
HETATM    2  H   UNL     1      42.408 -13.979   1.287  1.00  0.00     0.280 HD
HETATM    3  C   UNL     1      40.976 -12.789   2.183  1.00  0.00     0.236 C 
HETATM    4  C   UNL     1      41.708 -11.457   2.014  1.00  0.00     0.042 C 
HETATM    5  C   UNL     1      42.754 -11.228   3.107  1.00  0.00     0.081 C 
HETATM    6  C   UNL     1      43.716 -12.425   3.154  1.00  0.00     0.042 C 
HETATM    7  C   UNL     1      43.035 -13.784   3.253  1.00  0.00     0.236 C 
ENDROOT
BRANCH   5   8
HETATM    8  C   UNL     1      42.043 -11.002   4.445  1.00  0.00     0.224 C 
HETATM    9  N   UNL     1      42.798 -10.739   5.590  1.00  0.00    -0.349 N 
HETATM   10  C   UNL     1      42.016 -10.488   6.811  1.00  0.00     0.153 C 
HETATM   11  C   UNL     1      44.135 -11.314   5.809  1.00  0.00     0.153 C 
HETATM   12  C   UNL     1      42.800  -9.751   7.903  1.00  0.00     0.255 C 
HETATM   13  N   UNL     1      44.095 -10.487   8.206  1.00  0.00    -0.064 N 
HETATM   14  H   UNL     1      43.841 -11.421   8.555  1.00  0.00     0.280 HD
HETATM   15  C   UNL     1      44.931 -10.642   6.948  1.00  0.00     0.255 C 
HETATM   16  O   UNL     1      40.814 -10.910   4.464  1.00  0.00    -0.273 OA
BRANCH  13  17
HETATM   17  C   UNL     1      44.906  -9.833   9.314  1.00  0.00     0.273 C 
BRANCH  17  18
HETATM   18  C   UNL     1      44.161  -9.708  10.616  1.00  0.00    -0.030 A 
HETATM   19  C   UNL     1      43.784  -8.435  11.083  1.00  0.00     0.048 A 
HETATM   20  C   UNL     1      43.054  -8.358  12.250  1.00  0.00     0.105 A 
HETATM   21  C   UNL     1      42.700  -9.479  12.959  1.00  0.00     0.105 A 
HETATM   22  O   UNL     1      42.598  -7.214  12.821  1.00  0.00    -0.323 OA
HETATM   23  O   UNL     1      41.980  -9.181  14.070  1.00  0.00    -0.323 OA
HETATM   24  C   UNL     1      43.059 -10.741  12.540  1.00  0.00     0.040 A 
HETATM   25  C   UNL     1      41.948  -7.738  14.003  1.00  0.00     0.352 A 
HETATM   26  C   UNL     1      43.796 -10.856  11.356  1.00  0.00     0.012 A 
ENDBRANCH  17  18
ENDBRANCH  13  17
ENDBRANCH   5   8
BRANCH   1  27
HETATM   27  C   UNL     1      41.261 -15.280   2.400  1.00  0.00     0.273 C 
BRANCH  27  28
HETATM   28  C   UNL     1      42.055 -16.261   3.216  1.00  0.00    -0.027 A 
HETATM   29  C   UNL     1      42.837 -17.231   2.576  1.00  0.00     0.048 A 
HETATM   30  C   UNL     1      43.553 -18.156   3.329  1.00  0.00     0.104 A 
HETATM   31  C   UNL     1      43.471 -18.142   4.721  1.00  0.00     0.133 A 
HETATM   32  C   UNL     1      42.698 -17.182   5.383  1.00  0.00     0.104 A 
HETATM   33  C   UNL     1      41.996 -16.240   4.626  1.00  0.00     0.048 A 
BRANCH  30  34
HETATM   34  O   UNL     1      44.263 -19.119   2.668  1.00  0.00    -0.353 OA
HETATM   35  C   UNL     1      43.378 -20.085   2.098  1.00  0.00     0.210 C 
ENDBRANCH  30  34
BRANCH  31  36
HETATM   36  O   UNL     1      44.160 -19.077   5.446  1.00  0.00    -0.356 OA
HETATM   37  H   UNL     1      43.629 -19.250   6.247  1.00  0.00     0.218 HD
ENDBRANCH  31  36
BRANCH  32  38
HETATM   38  O   UNL     1      42.696 -17.281   6.748  1.00  0.00    -0.353 OA
HETATM   39  C   UNL     1      42.855 -16.082   7.497  1.00  0.00     0.210 C 
ENDBRANCH  32  38
ENDBRANCH  27  28
ENDBRANCH   1  27
TORSDOF 8
ENDMDL
MODEL 4
REMARK VINA RESULT:      -8.5      1.491      2.895
REMARK  8 active torsions:
REMARK  status: ('A' for Active; 'I' for Inactive)
REMARK    1  A    between atoms: O_2  and  C_3 
REMARK    2  A    between atoms: C_4  and  O_5 
REMARK    3  A    between atoms: C_6  and  O_7 
REMARK    4  A    between atoms: C_10  and  C_11 
REMARK    5  A    between atoms: C_11  and  N_12 
REMARK    6  A    between atoms: C_16  and  C_17 
REMARK       I    between atoms: C_17  and  N_18 
REMARK    7  A    between atoms: N_21  and  C_23 
REMARK    8  A    between atoms: C_23  and  C_24 
ROOT
HETATM    1  N   UNL     1      40.776  -8.025   7.364  1.00  0.00    -0.067 N 
HETATM    2  H   UNL     1      39.857  -7.562   7.406  1.00  0.00     0.280 HD
HETATM    3  C   UNL     1      41.410  -7.665   6.046  1.00  0.00     0.236 C 
HETATM    4  C   UNL     1      40.602  -8.242   4.883  1.00  0.00     0.042 C 
HETATM    5  C   UNL     1      40.434  -9.759   4.990  1.00  0.00     0.081 C 
HETATM    6  C   UNL     1      39.832 -10.114   6.358  1.00  0.00     0.042 C 
HETATM    7  C   UNL     1      40.560  -9.507   7.551  1.00  0.00     0.236 C 
ENDROOT
BRANCH   5   8
HETATM    8  C   UNL     1      41.792 -10.432   4.764  1.00  0.00     0.224 C 
HETATM    9  N   UNL     1      41.843 -11.705   4.191  1.00  0.00    -0.349 N 
HETATM   10  C   UNL     1      43.197 -12.239   3.971  1.00  0.00     0.153 C 
HETATM   11  C   UNL     1      40.799 -12.718   4.414  1.00  0.00     0.153 C 
HETATM   12  C   UNL     1      43.251 -13.373   2.942  1.00  0.00     0.255 C 
HETATM   13  N   UNL     1      42.268 -14.470   3.318  1.00  0.00    -0.064 N 
HETATM   14  H   UNL     1      42.559 -14.840   4.233  1.00  0.00     0.280 HD
HETATM   15  C   UNL     1      40.861 -13.912   3.438  1.00  0.00     0.255 C 
HETATM   16  O   UNL     1      42.823  -9.784   4.952  1.00  0.00    -0.273 OA
BRANCH  13  17
HETATM   17  C   UNL     1      42.299 -15.652   2.360  1.00  0.00     0.273 C 
BRANCH  17  18
HETATM   18  C   UNL     1      42.842 -16.914   2.975  1.00  0.00    -0.030 A 
HETATM   19  C   UNL     1      42.843 -18.108   2.229  1.00  0.00     0.048 A 
HETATM   20  C   UNL     1      43.398 -19.233   2.800  1.00  0.00     0.105 A 
HETATM   21  C   UNL     1      43.935 -19.216   4.063  1.00  0.00     0.105 A 
HETATM   22  O   UNL     1      43.495 -20.451   2.209  1.00  0.00    -0.323 OA
HETATM   23  O   UNL     1      44.432 -20.425   4.429  1.00  0.00    -0.323 OA
HETATM   24  C   UNL     1      43.943 -18.071   4.829  1.00  0.00     0.040 A 
HETATM   25  C   UNL     1      44.118 -21.220   3.265  1.00  0.00     0.352 A 
HETATM   26  C   UNL     1      43.392 -16.908   4.278  1.00  0.00     0.012 A 
ENDBRANCH  17  18
ENDBRANCH  13  17
ENDBRANCH   5   8
BRANCH   1  27
HETATM   27  C   UNL     1      41.568  -7.483   8.551  1.00  0.00     0.273 C 
BRANCH  27  28
HETATM   28  C   UNL     1      42.232  -8.550   9.374  1.00  0.00    -0.027 A 
HETATM   29  C   UNL     1      43.256  -9.328   8.816  1.00  0.00     0.048 A 
HETATM   30  C   UNL     1      43.856 -10.333   9.568  1.00  0.00     0.104 A 
HETATM   31  C   UNL     1      43.421 -10.592  10.867  1.00  0.00     0.133 A 
HETATM   32  C   UNL     1      42.401  -9.828  11.446  1.00  0.00     0.104 A 
HETATM   33  C   UNL     1      41.815  -8.804  10.697  1.00  0.00     0.048 A 
BRANCH  30  34
HETATM   34  O   UNL     1      44.815 -11.103   8.971  1.00  0.00    -0.353 OA
HETATM   35  C   UNL     1      44.365 -11.551   7.691  1.00  0.00     0.210 C 
ENDBRANCH  30  34
BRANCH  31  36
HETATM   36  O   UNL     1      44.003 -11.604  11.583  1.00  0.00    -0.356 OA
HETATM   37  H   UNL     1      44.920 -11.320  11.766  1.00  0.00     0.218 HD
ENDBRANCH  31  36
BRANCH  32  38
HETATM   38  O   UNL     1      42.063 -10.188  12.723  1.00  0.00    -0.353 OA
HETATM   39  C   UNL     1      42.150  -9.191  13.734  1.00  0.00     0.210 C 
ENDBRANCH  32  38
ENDBRANCH  27  28
ENDBRANCH   1  27
TORSDOF 8
ENDMDL
MODEL 5
REMARK VINA RESULT:      -8.5      3.039      6.027
REMARK  8 active torsions:
REMARK  status: ('A' for Active; 'I' for Inactive)
REMARK    1  A    between atoms: O_2  and  C_3 
REMARK    2  A    between atoms: C_4  and  O_5 
REMARK    3  A    between atoms: C_6  and  O_7 
REMARK    4  A    between atoms: C_10  and  C_11 
REMARK    5  A    between atoms: C_11  and  N_12 
REMARK    6  A    between atoms: C_16  and  C_17 
REMARK       I    between atoms: C_17  and  N_18 
REMARK    7  A    between atoms: N_21  and  C_23 
REMARK    8  A    between atoms: C_23  and  C_24 
ROOT
HETATM    1  N   UNL     1      40.219  -9.590   3.520  1.00  0.00    -0.067 N 
HETATM    2  H   UNL     1      40.606  -8.646   3.661  1.00  0.00     0.280 HD
HETATM    3  C   UNL     1      39.202  -9.832   4.604  1.00  0.00     0.236 C 
HETATM    4  C   UNL     1      39.873  -9.861   5.977  1.00  0.00     0.042 C 
HETATM    5  C   UNL     1      40.987 -10.907   6.057  1.00  0.00     0.081 C 
HETATM    6  C   UNL     1      41.990 -10.676   4.917  1.00  0.00     0.042 C 
HETATM    7  C   UNL     1      41.365 -10.571   3.531  1.00  0.00     0.236 C 
ENDROOT
BRANCH   5   8
HETATM    8  C   UNL     1      40.366 -12.307   6.007  1.00  0.00     0.224 C 
HETATM    9  N   UNL     1      41.183 -13.429   6.158  1.00  0.00    -0.349 N 
HETATM   10  C   UNL     1      40.481 -14.722   6.145  1.00  0.00     0.153 C 
HETATM   11  C   UNL     1      42.575 -13.467   5.679  1.00  0.00     0.153 C 
HETATM   12  C   UNL     1      41.286 -15.866   6.772  1.00  0.00     0.255 C 
HETATM   13  N   UNL     1      42.656 -15.963   6.119  1.00  0.00    -0.064 N 
HETATM   14  H   UNL     1      42.505 -16.173   5.123  1.00  0.00     0.280 HD
HETATM   15  C   UNL     1      43.401 -14.646   6.237  1.00  0.00     0.255 C 
HETATM   16  O   UNL     1      39.139 -12.419   5.983  1.00  0.00    -0.273 OA
BRANCH  13  17
HETATM   17  C   UNL     1      43.495 -17.108   6.664  1.00  0.00     0.273 C 
BRANCH  17  18
HETATM   18  C   UNL     1      43.591 -18.286   5.732  1.00  0.00    -0.030 A 
HETATM   19  C   UNL     1      43.588 -18.076   4.341  1.00  0.00     0.048 A 
HETATM   20  C   UNL     1      43.733 -19.170   3.516  1.00  0.00     0.105 A 
HETATM   21  C   UNL     1      43.870 -20.442   4.014  1.00  0.00     0.105 A 
HETATM   22  O   UNL     1      43.770 -19.136   2.159  1.00  0.00    -0.323 OA
HETATM   23  O   UNL     1      44.005 -21.369   3.032  1.00  0.00    -0.323 OA
HETATM   24  C   UNL     1      43.867 -20.690   5.369  1.00  0.00     0.040 A 
HETATM   25  C   UNL     1      43.903 -20.543   1.852  1.00  0.00     0.352 A 
HETATM   26  C   UNL     1      43.727 -19.601   6.236  1.00  0.00     0.012 A 
ENDBRANCH  17  18
ENDBRANCH  13  17
ENDBRANCH   5   8
BRANCH   1  27
HETATM   27  C   UNL     1      39.587  -9.576   2.131  1.00  0.00     0.273 C 
BRANCH  27  28
HETATM   28  C   UNL     1      39.911 -10.790   1.306  1.00  0.00    -0.027 A 
HETATM   29  C   UNL     1      39.600 -12.067   1.791  1.00  0.00     0.048 A 
HETATM   30  C   UNL     1      39.921 -13.194   1.041  1.00  0.00     0.104 A 
HETATM   31  C   UNL     1      40.580 -13.060  -0.180  1.00  0.00     0.133 A 
HETATM   32  C   UNL     1      40.899 -11.795  -0.686  1.00  0.00     0.104 A 
HETATM   33  C   UNL     1      40.557 -10.663   0.058  1.00  0.00     0.048 A 
BRANCH  30  34
HETATM   34  O   UNL     1      39.649 -14.424   1.571  1.00  0.00    -0.353 OA
HETATM   35  C   UNL     1      40.621 -14.763   2.562  1.00  0.00     0.210 C 
ENDBRANCH  30  34
BRANCH  31  36
HETATM   36  O   UNL     1      40.913 -14.181  -0.893  1.00  0.00    -0.356 OA
HETATM   37  H   UNL     1      41.806 -14.442  -0.593  1.00  0.00     0.218 HD
ENDBRANCH  31  36
BRANCH  32  38
HETATM   38  O   UNL     1      41.550 -11.801  -1.891  1.00  0.00    -0.353 OA
HETATM   39  C   UNL     1      40.772 -11.588  -3.062  1.00  0.00     0.210 C 
ENDBRANCH  32  38
ENDBRANCH  27  28
ENDBRANCH   1  27
TORSDOF 8
ENDMDL
MODEL 6
REMARK VINA RESULT:      -8.5      1.547      2.184
REMARK  8 active torsions:
REMARK  status: ('A' for Active; 'I' for Inactive)
REMARK    1  A    between atoms: O_2  and  C_3 
REMARK    2  A    between atoms: C_4  and  O_5 
REMARK    3  A    between atoms: C_6  and  O_7 
REMARK    4  A    between atoms: C_10  and  C_11 
REMARK    5  A    between atoms: C_11  and  N_12 
REMARK    6  A    between atoms: C_16  and  C_17 
REMARK       I    between atoms: C_17  and  N_18 
REMARK    7  A    between atoms: N_21  and  C_23 
REMARK    8  A    between atoms: C_23  and  C_24 
ROOT
HETATM    1  N   UNL     1      40.201  -8.052   7.832  1.00  0.00    -0.067 N 
HETATM    2  H   UNL     1      39.282  -7.592   7.772  1.00  0.00     0.280 HD
HETATM    3  C   UNL     1      40.978  -7.680   6.596  1.00  0.00     0.236 C 
HETATM    4  C   UNL     1      40.309  -8.252   5.346  1.00  0.00     0.042 C 
HETATM    5  C   UNL     1      40.138  -9.771   5.423  1.00  0.00     0.081 C 
HETATM    6  C   UNL     1      39.386 -10.137   6.711  1.00  0.00     0.042 C 
HETATM    7  C   UNL     1      39.971  -9.536   7.983  1.00  0.00     0.236 C 
ENDROOT
BRANCH   5   8
HETATM    8  C   UNL     1      41.515 -10.437   5.347  1.00  0.00     0.224 C 
HETATM    9  N   UNL     1      41.658 -11.646   4.664  1.00  0.00    -0.349 N 
HETATM   10  C   UNL     1      43.031 -12.175   4.608  1.00  0.00     0.153 C 
HETATM   11  C   UNL     1      40.594 -12.662   4.617  1.00  0.00     0.153 C 
HETATM   12  C   UNL     1      43.249 -13.202   3.491  1.00  0.00     0.255 C 
HETATM   13  N   UNL     1      42.220 -14.318   3.596  1.00  0.00    -0.064 N 
HETATM   14  H   UNL     1      42.364 -14.780   4.504  1.00  0.00     0.280 HD
HETATM   15  C   UNL     1      40.811 -13.754   3.548  1.00  0.00     0.255 C 
HETATM   16  O   UNL     1      42.502  -9.825   5.759  1.00  0.00    -0.273 OA
BRANCH  13  17
HETATM   17  C   UNL     1      42.405 -15.399   2.542  1.00  0.00     0.273 C 
BRANCH  17  18
HETATM   18  C   UNL     1      42.922 -16.700   3.094  1.00  0.00    -0.030 A 
HETATM   19  C   UNL     1      42.854 -17.866   2.309  1.00  0.00     0.048 A 
HETATM   20  C   UNL     1      43.386 -19.029   2.822  1.00  0.00     0.105 A 
HETATM   21  C   UNL     1      43.965 -19.076   4.066  1.00  0.00     0.105 A 
HETATM   22  O   UNL     1      43.419 -20.229   2.186  1.00  0.00    -0.323 OA
HETATM   23  O   UNL     1      44.430 -20.314   4.372  1.00  0.00    -0.323 OA
HETATM   24  C   UNL     1      44.040 -17.959   4.869  1.00  0.00     0.040 A 
HETATM   25  C   UNL     1      44.049 -21.056   3.193  1.00  0.00     0.352 A 
HETATM   26  C   UNL     1      43.514 -16.760   4.377  1.00  0.00     0.012 A 
ENDBRANCH  17  18
ENDBRANCH  13  17
ENDBRANCH   5   8
BRANCH   1  27
HETATM   27  C   UNL     1      40.852  -7.516   9.104  1.00  0.00     0.273 C 
BRANCH  27  28
HETATM   28  C   UNL     1      41.562  -8.567   9.911  1.00  0.00    -0.027 A 
HETATM   29  C   UNL     1      41.062  -8.939  11.166  1.00  0.00     0.048 A 
HETATM   30  C   UNL     1      41.730  -9.894  11.926  1.00  0.00     0.104 A 
HETATM   31  C   UNL     1      42.915 -10.460  11.457  1.00  0.00     0.133 A 
HETATM   32  C   UNL     1      43.432 -10.105  10.206  1.00  0.00     0.104 A 
HETATM   33  C   UNL     1      42.748  -9.162   9.434  1.00  0.00     0.048 A 
BRANCH  30  34
HETATM   34  O   UNL     1      41.241 -10.193  13.166  1.00  0.00    -0.353 OA
HETATM   35  C   UNL     1      39.853 -10.522  13.086  1.00  0.00     0.210 C 
ENDBRANCH  30  34
BRANCH  31  36
HETATM   36  O   UNL     1      43.575 -11.378  12.230  1.00  0.00    -0.356 OA
HETATM   37  H   UNL     1      44.393 -10.941  12.538  1.00  0.00     0.218 HD
ENDBRANCH  31  36
BRANCH  32  38
HETATM   38  O   UNL     1      44.603 -10.728   9.866  1.00  0.00    -0.353 OA
HETATM   39  C   UNL     1      45.201 -10.376   8.625  1.00  0.00     0.210 C 
ENDBRANCH  32  38
ENDBRANCH  27  28
ENDBRANCH   1  27
TORSDOF 8
ENDMDL
MODEL 7
REMARK VINA RESULT:      -8.4      2.374      9.490
REMARK  8 active torsions:
REMARK  status: ('A' for Active; 'I' for Inactive)
REMARK    1  A    between atoms: O_2  and  C_3 
REMARK    2  A    between atoms: C_4  and  O_5 
REMARK    3  A    between atoms: C_6  and  O_7 
REMARK    4  A    between atoms: C_10  and  C_11 
REMARK    5  A    between atoms: C_11  and  N_12 
REMARK    6  A    between atoms: C_16  and  C_17 
REMARK       I    between atoms: C_17  and  N_18 
REMARK    7  A    between atoms: N_21  and  C_23 
REMARK    8  A    between atoms: C_23  and  C_24 
ROOT
HETATM    1  N   UNL     1      40.114 -14.168   2.485  1.00  0.00    -0.067 N 
HETATM    2  H   UNL     1      39.211 -13.877   2.084  1.00  0.00     0.280 HD
HETATM    3  C   UNL     1      40.225 -13.548   3.854  1.00  0.00     0.236 C 
HETATM    4  C   UNL     1      40.289 -12.024   3.753  1.00  0.00     0.042 C 
HETATM    5  C   UNL     1      41.441 -11.550   2.865  1.00  0.00     0.081 C 
HETATM    6  C   UNL     1      41.340 -12.226   1.490  1.00  0.00     0.042 C 
HETATM    7  C   UNL     1      41.206 -13.743   1.535  1.00  0.00     0.236 C 
ENDROOT
BRANCH   5   8
HETATM    8  C   UNL     1      42.771 -11.851   3.563  1.00  0.00     0.224 C 
HETATM    9  N   UNL     1      42.978 -11.407   4.870  1.00  0.00    -0.349 N 
HETATM   10  C   UNL     1      44.268 -11.793   5.466  1.00  0.00     0.153 C 
HETATM   11  C   UNL     1      42.401 -10.154   5.384  1.00  0.00     0.153 C 
HETATM   12  C   UNL     1      44.284 -11.724   6.997  1.00  0.00     0.255 C 
HETATM   13  N   UNL     1      43.838 -10.348   7.465  1.00  0.00    -0.064 N 
HETATM   14  H   UNL     1      44.514  -9.666   7.096  1.00  0.00     0.280 HD
HETATM   15  C   UNL     1      42.459 -10.017   6.921  1.00  0.00     0.255 C 
HETATM   16  O   UNL     1      43.578 -12.606   3.018  1.00  0.00    -0.273 OA
BRANCH  13  17
HETATM   17  C   UNL     1      43.871 -10.194   8.978  1.00  0.00     0.273 C 
BRANCH  17  18
HETATM   18  C   UNL     1      43.253  -8.912   9.470  1.00  0.00    -0.030 A 
HETATM   19  C   UNL     1      42.174  -8.960  10.372  1.00  0.00     0.048 A 
HETATM   20  C   UNL     1      41.668  -7.769  10.846  1.00  0.00     0.105 A 
HETATM   21  C   UNL     1      42.179  -6.557  10.457  1.00  0.00     0.105 A 
HETATM   22  O   UNL     1      40.647  -7.644  11.733  1.00  0.00    -0.323 OA
HETATM   23  O   UNL     1      41.541  -5.514  11.046  1.00  0.00    -0.323 OA
HETATM   24  C   UNL     1      43.227  -6.468   9.567  1.00  0.00     0.040 A 
HETATM   25  C   UNL     1      40.541  -6.204  11.828  1.00  0.00     0.352 A 
HETATM   26  C   UNL     1      43.770  -7.658   9.069  1.00  0.00     0.012 A 
ENDBRANCH  17  18
ENDBRANCH  13  17
ENDBRANCH   5   8
BRANCH   1  27
HETATM   27  C   UNL     1      40.069 -15.692   2.546  1.00  0.00     0.273 C 
BRANCH  27  28
HETATM   28  C   UNL     1      41.186 -16.300   3.348  1.00  0.00    -0.027 A 
HETATM   29  C   UNL     1      42.179 -17.051   2.705  1.00  0.00     0.048 A 
HETATM   30  C   UNL     1      43.201 -17.635   3.447  1.00  0.00     0.104 A 
HETATM   31  C   UNL     1      43.224 -17.501   4.834  1.00  0.00     0.133 A 
HETATM   32  C   UNL     1      42.245 -16.754   5.499  1.00  0.00     0.104 A 
HETATM   33  C   UNL     1      41.232 -16.150   4.750  1.00  0.00     0.048 A 
BRANCH  30  34
HETATM   34  O   UNL     1      44.120 -18.403   2.790  1.00  0.00    -0.353 OA
HETATM   35  C   UNL     1      43.543 -19.656   2.415  1.00  0.00     0.210 C 
ENDBRANCH  30  34
BRANCH  31  36
HETATM   36  O   UNL     1      44.222 -18.106   5.552  1.00  0.00    -0.356 OA
HETATM   37  H   UNL     1      44.013 -17.955   6.495  1.00  0.00     0.218 HD
ENDBRANCH  31  36
BRANCH  32  38
HETATM   38  O   UNL     1      42.378 -16.706   6.860  1.00  0.00    -0.353 OA
HETATM   39  C   UNL     1      42.690 -15.449   7.449  1.00  0.00     0.210 C 
ENDBRANCH  32  38
ENDBRANCH  27  28
ENDBRANCH   1  27
TORSDOF 8
ENDMDL
MODEL 8
REMARK VINA RESULT:      -8.3      6.184     10.666
REMARK  8 active torsions:
REMARK  status: ('A' for Active; 'I' for Inactive)
REMARK    1  A    between atoms: O_2  and  C_3 
REMARK    2  A    between atoms: C_4  and  O_5 
REMARK    3  A    between atoms: C_6  and  O_7 
REMARK    4  A    between atoms: C_10  and  C_11 
REMARK    5  A    between atoms: C_11  and  N_12 
REMARK    6  A    between atoms: C_16  and  C_17 
REMARK       I    between atoms: C_17  and  N_18 
REMARK    7  A    between atoms: N_21  and  C_23 
REMARK    8  A    between atoms: C_23  and  C_24 
ROOT
HETATM    1  N   UNL     1      42.102 -15.044   2.704  1.00  0.00    -0.067 N 
HETATM    2  H   UNL     1      41.941 -15.112   3.718  1.00  0.00     0.280 HD
HETATM    3  C   UNL     1      42.287 -13.587   2.368  1.00  0.00     0.236 C 
HETATM    4  C   UNL     1      41.002 -12.804   2.636  1.00  0.00     0.042 C 
HETATM    5  C   UNL     1      39.805 -13.373   1.871  1.00  0.00     0.081 C 
HETATM    6  C   UNL     1      39.659 -14.869   2.187  1.00  0.00     0.042 C 
HETATM    7  C   UNL     1      40.931 -15.686   2.002  1.00  0.00     0.236 C 
ENDROOT
BRANCH   5   8
HETATM    8  C   UNL     1      39.997 -13.113   0.373  1.00  0.00     0.224 C 
HETATM    9  N   UNL     1      40.440 -11.861  -0.058  1.00  0.00    -0.349 N 
HETATM   10  C   UNL     1      40.639 -11.733  -1.510  1.00  0.00     0.153 C 
HETATM   11  C   UNL     1      40.090 -10.613   0.639  1.00  0.00     0.153 C 
HETATM   12  C   UNL     1      41.550 -10.565  -1.906  1.00  0.00     0.255 C 
HETATM   13  N   UNL     1      41.040  -9.271  -1.291  1.00  0.00    -0.064 N 
HETATM   14  H   UNL     1      40.100  -9.101  -1.674  1.00  0.00     0.280 HD
HETATM   15  C   UNL     1      40.941  -9.396   0.218  1.00  0.00     0.255 C 
HETATM   16  O   UNL     1      39.901 -14.055  -0.417  1.00  0.00    -0.273 OA
BRANCH  13  17
HETATM   17  C   UNL     1      41.874  -8.059  -1.679  1.00  0.00     0.273 C 
BRANCH  17  18
HETATM   18  C   UNL     1      41.675  -7.618  -3.104  1.00  0.00    -0.030 A 
HETATM   19  C   UNL     1      42.780  -7.191  -3.863  1.00  0.00     0.048 A 
HETATM   20  C   UNL     1      42.573  -6.847  -5.181  1.00  0.00     0.105 A 
HETATM   21  C   UNL     1      41.329  -6.903  -5.758  1.00  0.00     0.105 A 
HETATM   22  O   UNL     1      43.533  -6.437  -6.049  1.00  0.00    -0.323 OA
HETATM   23  O   UNL     1      41.348  -6.529  -7.063  1.00  0.00    -0.323 OA
HETATM   24  C   UNL     1      40.220  -7.304  -5.046  1.00  0.00     0.040 A 
HETATM   25  C   UNL     1      42.743  -6.195  -7.238  1.00  0.00     0.352 A 
HETATM   26  C   UNL     1      40.395  -7.667  -3.706  1.00  0.00     0.012 A 
ENDBRANCH  17  18
ENDBRANCH  13  17
ENDBRANCH   5   8
BRANCH   1  27
HETATM   27  C   UNL     1      43.360 -15.862   2.428  1.00  0.00     0.273 C 
BRANCH  27  28
HETATM   28  C   UNL     1      43.534 -17.036   3.351  1.00  0.00    -0.027 A 
HETATM   29  C   UNL     1      43.705 -18.322   2.821  1.00  0.00     0.048 A 
HETATM   30  C   UNL     1      43.841 -19.414   3.672  1.00  0.00     0.104 A 
HETATM   31  C   UNL     1      43.778 -19.238   5.054  1.00  0.00     0.133 A 
HETATM   32  C   UNL     1      43.609 -17.964   5.606  1.00  0.00     0.104 A 
HETATM   33  C   UNL     1      43.494 -16.865   4.750  1.00  0.00     0.048 A 
BRANCH  30  34
HETATM   34  O   UNL     1      43.954 -20.658   3.117  1.00  0.00    -0.353 OA
HETATM   35  C   UNL     1      43.628 -20.612   1.727  1.00  0.00     0.210 C 
ENDBRANCH  30  34
BRANCH  31  36
HETATM   36  O   UNL     1      43.885 -20.327   5.877  1.00  0.00    -0.356 OA
HETATM   37  H   UNL     1      44.842 -20.496   5.987  1.00  0.00     0.218 HD
ENDBRANCH  31  36
BRANCH  32  38
HETATM   38  O   UNL     1      43.557 -17.928   6.974  1.00  0.00    -0.353 OA
HETATM   39  C   UNL     1      43.735 -16.667   7.609  1.00  0.00     0.210 C 
ENDBRANCH  32  38
ENDBRANCH  27  28
ENDBRANCH   1  27
TORSDOF 8
ENDMDL
MODEL 9
REMARK VINA RESULT:      -8.2      2.033      9.188
REMARK  8 active torsions:
REMARK  status: ('A' for Active; 'I' for Inactive)
REMARK    1  A    between atoms: O_2  and  C_3 
REMARK    2  A    between atoms: C_4  and  O_5 
REMARK    3  A    between atoms: C_6  and  O_7 
REMARK    4  A    between atoms: C_10  and  C_11 
REMARK    5  A    between atoms: C_11  and  N_12 
REMARK    6  A    between atoms: C_16  and  C_17 
REMARK       I    between atoms: C_17  and  N_18 
REMARK    7  A    between atoms: N_21  and  C_23 
REMARK    8  A    between atoms: C_23  and  C_24 
ROOT
HETATM    1  N   UNL     1      42.712 -15.146   1.569  1.00  0.00    -0.067 N 
HETATM    2  H   UNL     1      43.264 -14.887   0.739  1.00  0.00     0.280 HD
HETATM    3  C   UNL     1      41.275 -14.789   1.289  1.00  0.00     0.236 C 
HETATM    4  C   UNL     1      41.114 -13.276   1.139  1.00  0.00     0.042 C 
HETATM    5  C   UNL     1      41.616 -12.514   2.368  1.00  0.00     0.081 C 
HETATM    6  C   UNL     1      43.065 -12.924   2.668  1.00  0.00     0.042 C 
HETATM    7  C   UNL     1      43.296 -14.428   2.760  1.00  0.00     0.236 C 
ENDROOT
BRANCH   5   8
HETATM    8  C   UNL     1      40.679 -12.791   3.548  1.00  0.00     0.224 C 
HETATM    9  N   UNL     1      40.595 -11.867   4.591  1.00  0.00    -0.349 N 
HETATM   10  C   UNL     1      39.629 -12.205   5.650  1.00  0.00     0.153 C 
HETATM   11  C   UNL     1      41.741 -11.053   5.026  1.00  0.00     0.153 C 
HETATM   12  C   UNL     1      39.206 -11.003   6.503  1.00  0.00     0.255 C 
HETATM   13  N   UNL     1      40.433 -10.300   7.063  1.00  0.00    -0.064 N 
HETATM   14  H   UNL     1      40.923 -10.975   7.664  1.00  0.00     0.280 HD
HETATM   15  C   UNL     1      41.364  -9.871   5.943  1.00  0.00     0.255 C 
HETATM   16  O   UNL     1      39.906 -13.749   3.490  1.00  0.00    -0.273 OA
BRANCH  13  17
HETATM   17  C   UNL     1      40.086  -9.120   7.958  1.00  0.00     0.273 C 
BRANCH  17  18
HETATM   18  C   UNL     1      40.337  -9.374   9.420  1.00  0.00    -0.030 A 
HETATM   19  C   UNL     1      41.592  -9.066   9.976  1.00  0.00     0.048 A 
HETATM   20  C   UNL     1      41.772  -9.258  11.328  1.00  0.00     0.105 A 
HETATM   21  C   UNL     1      40.770  -9.744  12.131  1.00  0.00     0.105 A 
HETATM   22  O   UNL     1      42.910  -8.992  12.019  1.00  0.00    -0.323 OA
HETATM   23  O   UNL     1      41.154  -9.851  13.428  1.00  0.00    -0.323 OA
HETATM   24  C   UNL     1      39.531 -10.069  11.623  1.00  0.00     0.040 A 
HETATM   25  C   UNL     1      42.527  -9.409  13.351  1.00  0.00     0.352 A 
HETATM   26  C   UNL     1      39.313  -9.880  10.254  1.00  0.00     0.012 A 
ENDBRANCH  17  18
ENDBRANCH  13  17
ENDBRANCH   5   8
BRANCH   1  27
HETATM   27  C   UNL     1      42.907 -16.649   1.746  1.00  0.00     0.273 C 
BRANCH  27  28
HETATM   28  C   UNL     1      43.023 -17.079   3.181  1.00  0.00    -0.027 A 
HETATM   29  C   UNL     1      43.822 -18.180   3.518  1.00  0.00     0.048 A 
HETATM   30  C   UNL     1      43.912 -18.596   4.843  1.00  0.00     0.104 A 
HETATM   31  C   UNL     1      43.183 -17.941   5.834  1.00  0.00     0.133 A 
HETATM   32  C   UNL     1      42.380 -16.839   5.523  1.00  0.00     0.104 A 
HETATM   33  C   UNL     1      42.308 -16.408   4.195  1.00  0.00     0.048 A 
BRANCH  30  34
HETATM   34  O   UNL     1      44.660 -19.705   5.124  1.00  0.00    -0.353 OA
HETATM   35  C   UNL     1      44.000 -20.881   4.652  1.00  0.00     0.210 C 
ENDBRANCH  30  34
BRANCH  31  36
HETATM   36  O   UNL     1      43.261 -18.381   7.129  1.00  0.00    -0.356 OA
HETATM   37  H   UNL     1      43.113 -17.599   7.695  1.00  0.00     0.218 HD
ENDBRANCH  31  36
BRANCH  32  38
HETATM   38  O   UNL     1      41.713 -16.289   6.585  1.00  0.00    -0.353 OA
HETATM   39  C   UNL     1      40.358 -15.904   6.386  1.00  0.00     0.210 C 
ENDBRANCH  32  38
ENDBRANCH  27  28
ENDBRANCH   1  27
TORSDOF 8
ENDMDL
MODEL 10
REMARK VINA RESULT:      -8.2      2.227      8.999
REMARK  8 active torsions:
REMARK  status: ('A' for Active; 'I' for Inactive)
REMARK    1  A    between atoms: O_2  and  C_3 
REMARK    2  A    between atoms: C_4  and  O_5 
REMARK    3  A    between atoms: C_6  and  O_7 
REMARK    4  A    between atoms: C_10  and  C_11 
REMARK    5  A    between atoms: C_11  and  N_12 
REMARK    6  A    between atoms: C_16  and  C_17 
REMARK       I    between atoms: C_17  and  N_18 
REMARK    7  A    between atoms: N_21  and  C_23 
REMARK    8  A    between atoms: C_23  and  C_24 
ROOT
HETATM    1  N   UNL     1      39.966 -14.206   1.957  1.00  0.00    -0.067 N 
HETATM    2  H   UNL     1      39.341 -14.042   1.155  1.00  0.00     0.280 HD
HETATM    3  C   UNL     1      39.480 -13.348   3.097  1.00  0.00     0.236 C 
HETATM    4  C   UNL     1      39.625 -11.865   2.756  1.00  0.00     0.042 C 
HETATM    5  C   UNL     1      41.063 -11.491   2.392  1.00  0.00     0.081 C 
HETATM    6  C   UNL     1      41.560 -12.405   1.261  1.00  0.00     0.042 C 
HETATM    7  C   UNL     1      41.376 -13.895   1.521  1.00  0.00     0.236 C 
ENDROOT
BRANCH   5   8
HETATM    8  C   UNL     1      41.941 -11.589   3.644  1.00  0.00     0.224 C 
HETATM    9  N   UNL     1      41.838 -10.611   4.635  1.00  0.00    -0.349 N 
HETATM   10  C   UNL     1      42.687 -10.826   5.818  1.00  0.00     0.153 C 
HETATM   11  C   UNL     1      41.531  -9.204   4.332  1.00  0.00     0.153 C 
HETATM   12  C   UNL     1      42.228 -10.047   7.055  1.00  0.00     0.255 C 
HETATM   13  N   UNL     1      42.089  -8.569   6.723  1.00  0.00    -0.064 N 
HETATM   14  H   UNL     1      43.021  -8.231   6.446  1.00  0.00     0.280 HD
HETATM   15  C   UNL     1      41.128  -8.367   5.565  1.00  0.00     0.255 C 
HETATM   16  O   UNL     1      42.614 -12.605   3.828  1.00  0.00    -0.273 OA
BRANCH  13  17
HETATM   17  C   UNL     1      41.677  -7.726   7.920  1.00  0.00     0.273 C 
BRANCH  17  18
HETATM   18  C   UNL     1      41.015  -8.515   9.017  1.00  0.00    -0.030 A 
HETATM   19  C   UNL     1      41.682  -8.703  10.241  1.00  0.00     0.048 A 
HETATM   20  C   UNL     1      41.026  -9.383  11.245  1.00  0.00     0.105 A 
HETATM   21  C   UNL     1      39.758  -9.880  11.075  1.00  0.00     0.105 A 
HETATM   22  O   UNL     1      41.520  -9.629  12.485  1.00  0.00    -0.323 OA
HETATM   23  O   UNL     1      39.296 -10.507  12.186  1.00  0.00    -0.323 OA
HETATM   24  C   UNL     1      39.076  -9.727   9.888  1.00  0.00     0.040 A 
HETATM   25  C   UNL     1      40.432 -10.381  13.070  1.00  0.00     0.352 A 
HETATM   26  C   UNL     1      39.711  -9.037   8.849  1.00  0.00     0.012 A 
ENDBRANCH  17  18
ENDBRANCH  13  17
ENDBRANCH   5   8
BRANCH   1  27
HETATM   27  C   UNL     1      39.856 -15.695   2.271  1.00  0.00     0.273 C 
BRANCH  27  28
HETATM   28  C   UNL     1      40.986 -16.222   3.110  1.00  0.00    -0.027 A 
HETATM   29  C   UNL     1      41.999 -16.988   2.518  1.00  0.00     0.048 A 
HETATM   30  C   UNL     1      43.033 -17.498   3.296  1.00  0.00     0.104 A 
HETATM   31  C   UNL     1      43.049 -17.276   4.672  1.00  0.00     0.133 A 
HETATM   32  C   UNL     1      42.050 -16.513   5.287  1.00  0.00     0.104 A 
HETATM   33  C   UNL     1      41.024 -15.983   4.500  1.00  0.00     0.048 A 
BRANCH  30  34
HETATM   34  O   UNL     1      43.973 -18.283   2.690  1.00  0.00    -0.353 OA
HETATM   35  C   UNL     1      43.408 -19.546   2.332  1.00  0.00     0.210 C 
ENDBRANCH  30  34
BRANCH  31  36
HETATM   36  O   UNL     1      44.059 -17.809   5.429  1.00  0.00    -0.356 OA
HETATM   37  H   UNL     1      44.162 -17.222   6.203  1.00  0.00     0.218 HD
ENDBRANCH  31  36
BRANCH  32  38
HETATM   38  O   UNL     1      42.179 -16.375   6.643  1.00  0.00    -0.353 OA
HETATM   39  C   UNL     1      42.531 -15.092   7.145  1.00  0.00     0.210 C 
ENDBRANCH  32  38
ENDBRANCH  27  28
ENDBRANCH   1  27
TORSDOF 8
ENDMDL
