MODEL 1
REMARK VINA RESULT:      -7.6      0.000      0.000
REMARK  2 active torsions:
REMARK  status: ('A' for Active; 'I' for Inactive)
REMARK    1  A    between atoms: C_9  and  C_10 
REMARK       I    between atoms: C_10  and  N_11 
REMARK    2  A    between atoms: N_11  and  C_12 
ROOT
HETATM    1  C   UNL     1      42.165 -14.634   5.102  1.00  0.00     0.276 C 
HETATM    2  N   UNL     1      43.294 -15.313   4.695  1.00  0.00    -0.317 N 
HETATM    3  O   UNL     1      41.008 -15.009   4.940  1.00  0.00    -0.266 OA
HETATM    4  H   UNL     1      44.179 -14.852   4.922  1.00  0.00     0.169 HD
ENDROOT
BRANCH   1   5
HETATM    5  C   UNL     1      42.485 -13.364   5.775  1.00  0.00     0.147 A 
HETATM    6  N   UNL     1      41.528 -12.479   6.122  1.00  0.00    -0.169 NA
HETATM    7  N   UNL     1      42.212 -11.478   6.711  1.00  0.00    -0.275 N 
HETATM    8  C   UNL     1      43.562 -11.679   6.752  1.00  0.00     0.086 A 
HETATM    9  H   UNL     1      41.702 -10.676   7.068  1.00  0.00     0.189 HD
HETATM   10  C   UNL     1      44.453 -10.735   7.337  1.00  0.00     0.103 A 
HETATM   11  C   UNL     1      43.774 -12.896   6.149  1.00  0.00     0.073 A 
HETATM   12  O   UNL     1      44.009  -9.576   7.921  1.00  0.00    -0.320 OA
HETATM   13  C   UNL     1      45.833 -10.779   7.436  1.00  0.00     0.041 A 
HETATM   14  C   UNL     1      45.092  -8.904   8.382  1.00  0.00     0.142 A 
HETATM   15  C   UNL     1      46.243  -9.601   8.107  1.00  0.00     0.027 A 
ENDBRANCH   1   5
BRANCH   2  16
HETATM   16  C   UNL     1      43.391 -16.512   4.029  1.00  0.00     0.102 A 
HETATM   17  C   UNL     1      43.746 -17.720   4.869  1.00  0.00     0.218 A 
HETATM   18  O   UNL     1      43.925 -17.588   6.080  1.00  0.00    -0.284 OA
HETATM   19  C   UNL     1      43.865 -19.047   4.174  1.00  0.00     0.078 A 
HETATM   20 BR   UNL     1      44.299 -20.565   5.156  1.00  0.00    -0.045 Br
HETATM   21  C   UNL     1      43.647 -19.066   2.850  1.00  0.00     0.111 A 
HETATM   22  N   UNL     1      43.327 -17.952   2.122  1.00  0.00    -0.372 N 
HETATM   23  C   UNL     1      43.208 -16.721   2.716  1.00  0.00     0.121 A 
HETATM   24  H   UNL     1      43.177 -18.032   1.120  1.00  0.00     0.164 HD
ENDBRANCH   2  16
TORSDOF 2
ENDMDL
MODEL 2
REMARK VINA RESULT:      -7.5      3.149      8.036
REMARK  2 active torsions:
REMARK  status: ('A' for Active; 'I' for Inactive)
REMARK    1  A    between atoms: C_9  and  C_10 
REMARK       I    between atoms: C_10  and  N_11 
REMARK    2  A    between atoms: N_11  and  C_12 
ROOT
HETATM    1  C   UNL     1      42.867 -13.777   4.842  1.00  0.00     0.276 C 
HETATM    2  N   UNL     1      43.124 -13.224   6.078  1.00  0.00    -0.317 N 
HETATM    3  O   UNL     1      42.420 -13.178   3.870  1.00  0.00    -0.266 OA
HETATM    4  H   UNL     1      43.504 -13.875   6.770  1.00  0.00     0.169 HD
ENDROOT
BRANCH   1   5
HETATM    5  C   UNL     1      43.191 -15.212   4.790  1.00  0.00     0.147 A 
HETATM    6  N   UNL     1      43.707 -15.867   5.852  1.00  0.00    -0.169 NA
HETATM    7  N   UNL     1      43.847 -17.134   5.413  1.00  0.00    -0.275 N 
HETATM    8  C   UNL     1      43.450 -17.319   4.119  1.00  0.00     0.086 A 
HETATM    9  H   UNL     1      44.222 -17.835   6.044  1.00  0.00     0.189 HD
HETATM   10  C   UNL     1      43.519 -18.589   3.479  1.00  0.00     0.103 A 
HETATM   11  C   UNL     1      43.020 -16.088   3.684  1.00  0.00     0.073 A 
HETATM   12  O   UNL     1      43.962 -19.712   4.128  1.00  0.00    -0.320 OA
HETATM   13  C   UNL     1      43.182 -18.933   2.180  1.00  0.00     0.041 A 
HETATM   14  C   UNL     1      43.903 -20.746   3.254  1.00  0.00     0.142 A 
HETATM   15  C   UNL     1      43.430 -20.320   2.038  1.00  0.00     0.027 A 
ENDBRANCH   1   5
BRANCH   2  16
HETATM   16  C   UNL     1      42.937 -11.930   6.505  1.00  0.00     0.102 A 
HETATM   17  C   UNL     1      44.106 -11.282   7.216  1.00  0.00     0.218 A 
HETATM   18  O   UNL     1      45.148 -11.917   7.378  1.00  0.00    -0.284 OA
HETATM   19  C   UNL     1      43.936  -9.870   7.700  1.00  0.00     0.078 A 
HETATM   20 BR   UNL     1      45.338  -9.023   8.581  1.00  0.00    -0.045 Br
HETATM   21  C   UNL     1      42.753  -9.280   7.466  1.00  0.00     0.111 A 
HETATM   22  N   UNL     1      41.718  -9.898   6.817  1.00  0.00    -0.372 N 
HETATM   23  C   UNL     1      41.830 -11.186   6.359  1.00  0.00     0.121 A 
HETATM   24  H   UNL     1      40.844  -9.398   6.673  1.00  0.00     0.164 HD
ENDBRANCH   2  16
TORSDOF 2
ENDMDL
MODEL 3
REMARK VINA RESULT:      -7.2      5.283      8.246
REMARK  2 active torsions:
REMARK  status: ('A' for Active; 'I' for Inactive)
REMARK    1  A    between atoms: C_9  and  C_10 
REMARK       I    between atoms: C_10  and  N_11 
REMARK    2  A    between atoms: N_11  and  C_12 
ROOT
HETATM    1  C   UNL     1      42.199 -13.775   1.903  1.00  0.00     0.276 C 
HETATM    2  N   UNL     1      41.407 -14.036   0.806  1.00  0.00    -0.317 N 
HETATM    3  O   UNL     1      42.496 -12.660   2.322  1.00  0.00    -0.266 OA
HETATM    4  H   UNL     1      41.259 -15.029   0.608  1.00  0.00     0.169 HD
ENDROOT
BRANCH   1   5
HETATM    5  C   UNL     1      42.678 -15.004   2.557  1.00  0.00     0.147 A 
HETATM    6  N   UNL     1      43.154 -15.003   3.820  1.00  0.00    -0.169 NA
HETATM    7  N   UNL     1      43.471 -16.293   4.046  1.00  0.00    -0.275 N 
HETATM    8  C   UNL     1      43.225 -17.118   2.986  1.00  0.00     0.086 A 
HETATM    9  H   UNL     1      43.855 -16.554   4.949  1.00  0.00     0.189 HD
HETATM   10  C   UNL     1      43.492 -18.516   3.035  1.00  0.00     0.103 A 
HETATM   11  C   UNL     1      42.711 -16.311   2.000  1.00  0.00     0.073 A 
HETATM   12  O   UNL     1      43.987 -19.127   4.158  1.00  0.00    -0.320 OA
HETATM   13  C   UNL     1      43.324 -19.473   2.049  1.00  0.00     0.041 A 
HETATM   14  C   UNL     1      44.126 -20.447   3.884  1.00  0.00     0.142 A 
HETATM   15  C   UNL     1      43.731 -20.714   2.597  1.00  0.00     0.027 A 
ENDBRANCH   1   5
BRANCH   2  16
HETATM   16  C   UNL     1      40.798 -13.153  -0.054  1.00  0.00     0.102 A 
HETATM   17  C   UNL     1      39.703 -13.718  -0.934  1.00  0.00     0.218 A 
HETATM   18  O   UNL     1      39.408 -14.909  -0.846  1.00  0.00    -0.284 OA
HETATM   19  C   UNL     1      39.018 -12.782  -1.889  1.00  0.00     0.078 A 
HETATM   20 BR   UNL     1      37.666 -13.421  -2.994  1.00  0.00    -0.045 Br
HETATM   21  C   UNL     1      39.428 -11.504  -1.893  1.00  0.00     0.111 A 
HETATM   22  N   UNL     1      40.421 -11.027  -1.081  1.00  0.00    -0.372 N 
HETATM   23  C   UNL     1      41.073 -11.847  -0.195  1.00  0.00     0.121 A 
HETATM   24  H   UNL     1      40.689 -10.048  -1.135  1.00  0.00     0.164 HD
ENDBRANCH   2  16
TORSDOF 2
ENDMDL
MODEL 4
REMARK VINA RESULT:      -7.2      4.701      7.424
REMARK  2 active torsions:
REMARK  status: ('A' for Active; 'I' for Inactive)
REMARK    1  A    between atoms: C_9  and  C_10 
REMARK       I    between atoms: C_10  and  N_11 
REMARK    2  A    between atoms: N_11  and  C_12 
ROOT
HETATM    1  C   UNL     1      42.160 -14.235   2.326  1.00  0.00     0.276 C 
HETATM    2  N   UNL     1      41.831 -15.248   3.201  1.00  0.00    -0.317 N 
HETATM    3  O   UNL     1      43.243 -13.661   2.272  1.00  0.00    -0.266 OA
HETATM    4  H   UNL     1      40.882 -15.615   3.097  1.00  0.00     0.169 HD
ENDROOT
BRANCH   1   5
HETATM    5  C   UNL     1      41.050 -13.888   1.424  1.00  0.00     0.147 A 
HETATM    6  N   UNL     1      40.141 -12.942   1.741  1.00  0.00    -0.169 NA
HETATM    7  N   UNL     1      39.316 -12.917   0.675  1.00  0.00    -0.275 N 
HETATM    8  C   UNL     1      39.651 -13.807  -0.306  1.00  0.00     0.086 A 
HETATM    9  H   UNL     1      38.535 -12.269   0.672  1.00  0.00     0.189 HD
HETATM   10  C   UNL     1      38.901 -13.926  -1.510  1.00  0.00     0.103 A 
HETATM   11  C   UNL     1      40.773 -14.456   0.151  1.00  0.00     0.073 A 
HETATM   12  O   UNL     1      37.811 -13.138  -1.774  1.00  0.00    -0.320 OA
HETATM   13  C   UNL     1      39.093 -14.786  -2.579  1.00  0.00     0.041 A 
HETATM   14  C   UNL     1      37.327 -13.493  -2.989  1.00  0.00     0.142 A 
HETATM   15  C   UNL     1      38.081 -14.506  -3.528  1.00  0.00     0.027 A 
ENDBRANCH   1   5
BRANCH   2  16
HETATM   16  C   UNL     1      42.597 -15.824   4.188  1.00  0.00     0.102 A 
HETATM   17  C   UNL     1      42.982 -17.273   3.980  1.00  0.00     0.218 A 
HETATM   18  O   UNL     1      42.610 -17.861   2.965  1.00  0.00    -0.284 OA
HETATM   19  C   UNL     1      43.815 -17.936   5.040  1.00  0.00     0.078 A 
HETATM   20 BR   UNL     1      44.318 -19.714   4.837  1.00  0.00    -0.045 Br
HETATM   21  C   UNL     1      44.159 -17.192   6.102  1.00  0.00     0.111 A 
HETATM   22  N   UNL     1      43.793 -15.882   6.257  1.00  0.00    -0.372 N 
HETATM   23  C   UNL     1      43.033 -15.238   5.314  1.00  0.00     0.121 A 
HETATM   24  H   UNL     1      44.083 -15.372   7.087  1.00  0.00     0.164 HD
ENDBRANCH   2  16
TORSDOF 2
ENDMDL
MODEL 5
REMARK VINA RESULT:      -7.1      4.077      7.899
REMARK  2 active torsions:
REMARK  status: ('A' for Active; 'I' for Inactive)
REMARK    1  A    between atoms: C_9  and  C_10 
REMARK       I    between atoms: C_10  and  N_11 
REMARK    2  A    between atoms: N_11  and  C_12 
ROOT
HETATM    1  C   UNL     1      43.009 -14.020   5.197  1.00  0.00     0.276 C 
HETATM    2  N   UNL     1      42.309 -13.507   4.126  1.00  0.00    -0.317 N 
HETATM    3  O   UNL     1      43.364 -13.389   6.188  1.00  0.00    -0.266 OA
HETATM    4  H   UNL     1      42.092 -14.184   3.390  1.00  0.00     0.169 HD
ENDROOT
BRANCH   1   5
HETATM    5  C   UNL     1      43.305 -15.453   5.041  1.00  0.00     0.147 A 
HETATM    6  N   UNL     1      43.816 -16.192   6.049  1.00  0.00    -0.169 NA
HETATM    7  N   UNL     1      43.929 -17.426   5.519  1.00  0.00    -0.275 N 
HETATM    8  C   UNL     1      43.521 -17.511   4.219  1.00  0.00     0.086 A 
HETATM    9  H   UNL     1      44.295 -18.177   6.096  1.00  0.00     0.189 HD
HETATM   10  C   UNL     1      43.562 -18.732   3.489  1.00  0.00     0.103 A 
HETATM   11  C   UNL     1      43.111 -16.244   3.876  1.00  0.00     0.073 A 
HETATM   12  O   UNL     1      43.989 -19.907   4.053  1.00  0.00    -0.320 OA
HETATM   13  C   UNL     1      43.212 -18.976   2.171  1.00  0.00     0.041 A 
HETATM   14  C   UNL     1      43.905 -20.874   3.107  1.00  0.00     0.142 A 
HETATM   15  C   UNL     1      43.433 -20.354   1.928  1.00  0.00     0.027 A 
ENDBRANCH   1   5
BRANCH   2  16
HETATM   16  C   UNL     1      41.872 -12.221   3.912  1.00  0.00     0.102 A 
HETATM   17  C   UNL     1      40.575 -11.830   4.588  1.00  0.00     0.218 A 
HETATM   18  O   UNL     1      39.982 -12.653   5.285  1.00  0.00    -0.284 OA
HETATM   19  C   UNL     1      40.065 -10.434   4.373  1.00  0.00     0.078 A 
HETATM   20 BR   UNL     1      38.477  -9.900   5.178  1.00  0.00    -0.045 Br
HETATM   21  C   UNL     1      40.800  -9.627   3.592  1.00  0.00     0.111 A 
HETATM   22  N   UNL     1      41.971 -10.014   2.997  1.00  0.00    -0.372 N 
HETATM   23  C   UNL     1      42.472 -11.280   3.166  1.00  0.00     0.121 A 
HETATM   24  H   UNL     1      42.480  -9.357   2.412  1.00  0.00     0.164 HD
ENDBRANCH   2  16
TORSDOF 2
ENDMDL
MODEL 6
REMARK VINA RESULT:      -6.9      7.758     12.156
REMARK  2 active torsions:
REMARK  status: ('A' for Active; 'I' for Inactive)
REMARK    1  A    between atoms: C_9  and  C_10 
REMARK       I    between atoms: C_10  and  N_11 
REMARK    2  A    between atoms: N_11  and  C_12 
ROOT
HETATM    1  C   UNL     1      42.029  -8.764  13.640  1.00  0.00     0.276 C 
HETATM    2  N   UNL     1      42.611  -7.562  13.982  1.00  0.00    -0.317 N 
HETATM    3  O   UNL     1      41.030  -9.249  14.160  1.00  0.00    -0.266 OA
HETATM    4  H   UNL     1      43.437  -7.312  13.433  1.00  0.00     0.169 HD
ENDROOT
BRANCH   1   5
HETATM    5  C   UNL     1      42.745  -9.444  12.547  1.00  0.00     0.147 A 
HETATM    6  N   UNL     1      42.660 -10.777  12.358  1.00  0.00    -0.169 NA
HETATM    7  N   UNL     1      43.431 -11.000  11.276  1.00  0.00    -0.275 N 
HETATM    8  C   UNL     1      44.010  -9.873  10.767  1.00  0.00     0.086 A 
HETATM    9  H   UNL     1      43.528 -11.948  10.927  1.00  0.00     0.189 HD
HETATM   10  C   UNL     1      44.858  -9.905   9.623  1.00  0.00     0.103 A 
HETATM   11  C   UNL     1      43.586  -8.843  11.572  1.00  0.00     0.073 A 
HETATM   12  O   UNL     1      45.124 -11.066   8.944  1.00  0.00    -0.320 OA
HETATM   13  C   UNL     1      45.533  -8.866   9.005  1.00  0.00     0.041 A 
HETATM   14  C   UNL     1      45.952 -10.762   7.914  1.00  0.00     0.142 A 
HETATM   15  C   UNL     1      46.235  -9.418   7.907  1.00  0.00     0.027 A 
ENDBRANCH   1   5
BRANCH   2  16
HETATM   16  C   UNL     1      42.237  -6.664  14.953  1.00  0.00     0.102 A 
HETATM   17  C   UNL     1      41.485  -5.438  14.482  1.00  0.00     0.218 A 
HETATM   18  O   UNL     1      41.241  -5.298  13.284  1.00  0.00    -0.284 OA
HETATM   19  C   UNL     1      41.064  -4.432  15.516  1.00  0.00     0.078 A 
HETATM   20 BR   UNL     1      40.137  -2.908  14.994  1.00  0.00    -0.045 Br
HETATM   21  C   UNL     1      41.387  -4.695  16.792  1.00  0.00     0.111 A 
HETATM   22  N   UNL     1      42.068  -5.816  17.183  1.00  0.00    -0.372 N 
HETATM   23  C   UNL     1      42.472  -6.759  16.272  1.00  0.00     0.121 A 
HETATM   24  H   UNL     1      42.286  -5.956  18.166  1.00  0.00     0.164 HD
ENDBRANCH   2  16
TORSDOF 2
ENDMDL
MODEL 7
REMARK VINA RESULT:      -6.8      5.124      6.734
REMARK  2 active torsions:
REMARK  status: ('A' for Active; 'I' for Inactive)
REMARK    1  A    between atoms: C_9  and  C_10 
REMARK       I    between atoms: C_10  and  N_11 
REMARK    2  A    between atoms: N_11  and  C_12 
ROOT
HETATM    1  C   UNL     1      40.822 -15.460   1.578  1.00  0.00     0.276 C 
HETATM    2  N   UNL     1      42.152 -15.815   1.644  1.00  0.00    -0.317 N 
HETATM    3  O   UNL     1      39.935 -15.868   2.321  1.00  0.00    -0.266 OA
HETATM    4  H   UNL     1      42.752 -15.368   0.946  1.00  0.00     0.169 HD
ENDROOT
BRANCH   1   5
HETATM    5  C   UNL     1      40.548 -14.508   0.489  1.00  0.00     0.147 A 
HETATM    6  N   UNL     1      39.708 -14.804  -0.525  1.00  0.00    -0.169 NA
HETATM    7  N   UNL     1      39.720 -13.693  -1.288  1.00  0.00    -0.275 N 
HETATM    8  C   UNL     1      40.532 -12.703  -0.814  1.00  0.00     0.086 A 
HETATM    9  H   UNL     1      39.151 -13.668  -2.129  1.00  0.00     0.189 HD
HETATM   10  C   UNL     1      40.674 -11.453  -1.481  1.00  0.00     0.103 A 
HETATM   11  C   UNL     1      41.087 -13.202   0.341  1.00  0.00     0.073 A 
HETATM   12  O   UNL     1      39.984 -11.154  -2.628  1.00  0.00    -0.320 OA
HETATM   13  C   UNL     1      41.467 -10.368  -1.146  1.00  0.00     0.041 A 
HETATM   14  C   UNL     1      40.335  -9.901  -3.006  1.00  0.00     0.142 A 
HETATM   15  C   UNL     1      41.247  -9.371  -2.128  1.00  0.00     0.027 A 
ENDBRANCH   1   5
BRANCH   2  16
HETATM   16  C   UNL     1      42.776 -16.682   2.510  1.00  0.00     0.102 A 
HETATM   17  C   UNL     1      43.237 -16.099   3.829  1.00  0.00     0.218 A 
HETATM   18  O   UNL     1      43.039 -14.909   4.070  1.00  0.00    -0.284 OA
HETATM   19  C   UNL     1      43.926 -17.017   4.799  1.00  0.00     0.078 A 
HETATM   20 BR   UNL     1      44.514 -16.355   6.434  1.00  0.00    -0.045 Br
HETATM   21  C   UNL     1      44.085 -18.296   4.424  1.00  0.00     0.111 A 
HETATM   22  N   UNL     1      43.654 -18.789   3.222  1.00  0.00    -0.372 N 
HETATM   23  C   UNL     1      43.020 -17.986   2.307  1.00  0.00     0.121 A 
HETATM   24  H   UNL     1      43.807 -19.768   2.995  1.00  0.00     0.164 HD
ENDBRANCH   2  16
TORSDOF 2
ENDMDL
MODEL 8
REMARK VINA RESULT:      -6.8      2.292      2.786
REMARK  2 active torsions:
REMARK  status: ('A' for Active; 'I' for Inactive)
REMARK    1  A    between atoms: C_9  and  C_10 
REMARK       I    between atoms: C_10  and  N_11 
REMARK    2  A    between atoms: N_11  and  C_12 
ROOT
HETATM    1  C   UNL     1      43.554 -11.917   4.342  1.00  0.00     0.276 C 
HETATM    2  N   UNL     1      42.833 -13.090   4.270  1.00  0.00    -0.317 N 
HETATM    3  O   UNL     1      44.359 -11.520   3.505  1.00  0.00    -0.266 OA
HETATM    4  H   UNL     1      42.202 -13.256   5.057  1.00  0.00     0.169 HD
ENDROOT
BRANCH   1   5
HETATM    5  C   UNL     1      43.261 -11.151   5.565  1.00  0.00     0.147 A 
HETATM    6  N   UNL     1      42.134 -10.420   5.696  1.00  0.00    -0.169 NA
HETATM    7  N   UNL     1      42.234  -9.894   6.933  1.00  0.00    -0.275 N 
HETATM    8  C   UNL     1      43.372 -10.250   7.597  1.00  0.00     0.086 A 
HETATM    9  H   UNL     1      41.489  -9.294   7.274  1.00  0.00     0.189 HD
HETATM   10  C   UNL     1      43.655  -9.797   8.917  1.00  0.00     0.103 A 
HETATM   11  C   UNL     1      44.064 -11.066   6.733  1.00  0.00     0.073 A 
HETATM   12  O   UNL     1      42.789  -8.996   9.615  1.00  0.00    -0.320 OA
HETATM   13  C   UNL     1      44.764 -10.045   9.708  1.00  0.00     0.041 A 
HETATM   14  C   UNL     1      43.342  -8.746  10.827  1.00  0.00     0.142 A 
HETATM   15  C   UNL     1      44.561  -9.369  10.936  1.00  0.00     0.027 A 
ENDBRANCH   1   5
BRANCH   2  16
HETATM   16  C   UNL     1      42.851 -14.060   3.295  1.00  0.00     0.102 A 
HETATM   17  C   UNL     1      43.203 -15.461   3.747  1.00  0.00     0.218 A 
HETATM   18  O   UNL     1      43.450 -15.672   4.934  1.00  0.00    -0.284 OA
HETATM   19  C   UNL     1      43.236 -16.545   2.708  1.00  0.00     0.078 A 
HETATM   20 BR   UNL     1      43.663 -18.285   3.206  1.00  0.00    -0.045 Br
HETATM   21  C   UNL     1      42.949 -16.193   1.445  1.00  0.00     0.111 A 
HETATM   22  N   UNL     1      42.633 -14.914   1.073  1.00  0.00    -0.372 N 
HETATM   23  C   UNL     1      42.591 -13.893   1.989  1.00  0.00     0.121 A 
HETATM   24  H   UNL     1      42.428 -14.709   0.098  1.00  0.00     0.164 HD
ENDBRANCH   2  16
TORSDOF 2
ENDMDL
MODEL 9
REMARK VINA RESULT:      -6.6      6.313      8.495
REMARK  2 active torsions:
REMARK  status: ('A' for Active; 'I' for Inactive)
REMARK    1  A    between atoms: C_9  and  C_10 
REMARK       I    between atoms: C_10  and  N_11 
REMARK    2  A    between atoms: N_11  and  C_12 
ROOT
HETATM    1  C   UNL     1      39.816 -14.481   0.180  1.00  0.00     0.276 C 
HETATM    2  N   UNL     1      39.683 -13.109   0.160  1.00  0.00    -0.317 N 
HETATM    3  O   UNL     1      39.480 -15.246  -0.718  1.00  0.00    -0.266 OA
HETATM    4  H   UNL     1      40.027 -12.630   0.996  1.00  0.00     0.169 HD
ENDROOT
BRANCH   1   5
HETATM    5  C   UNL     1      40.425 -14.968   1.430  1.00  0.00     0.147 A 
HETATM    6  N   UNL     1      40.030 -14.517   2.639  1.00  0.00    -0.169 NA
HETATM    7  N   UNL     1      40.804 -15.200   3.506  1.00  0.00    -0.275 N 
HETATM    8  C   UNL     1      41.679 -16.061   2.908  1.00  0.00     0.086 A 
HETATM    9  H   UNL     1      40.691 -15.035   4.501  1.00  0.00     0.189 HD
HETATM   10  C   UNL     1      42.577 -16.873   3.658  1.00  0.00     0.103 A 
HETATM   11  C   UNL     1      41.459 -15.933   1.557  1.00  0.00     0.073 A 
HETATM   12  O   UNL     1      42.602 -16.861   5.029  1.00  0.00    -0.320 OA
HETATM   13  C   UNL     1      43.531 -17.769   3.206  1.00  0.00     0.041 A 
HETATM   14  C   UNL     1      43.555 -17.737   5.433  1.00  0.00     0.142 A 
HETATM   15  C   UNL     1      44.159 -18.323   4.348  1.00  0.00     0.027 A 
ENDBRANCH   1   5
BRANCH   2  16
HETATM   16  C   UNL     1      39.152 -12.304  -0.821  1.00  0.00     0.102 A 
HETATM   17  C   UNL     1      40.143 -11.521  -1.656  1.00  0.00     0.218 A 
HETATM   18  O   UNL     1      41.348 -11.634  -1.435  1.00  0.00    -0.284 OA
HETATM   19  C   UNL     1      39.598 -10.628  -2.735  1.00  0.00     0.078 A 
HETATM   20 BR   UNL     1      40.768  -9.643  -3.792  1.00  0.00    -0.045 Br
HETATM   21  C   UNL     1      38.265 -10.588  -2.882  1.00  0.00     0.111 A 
HETATM   22  N   UNL     1      37.399 -11.312  -2.107  1.00  0.00    -0.372 N 
HETATM   23  C   UNL     1      37.853 -12.139  -1.112  1.00  0.00     0.121 A 
HETATM   24  H   UNL     1      36.397 -11.235  -2.266  1.00  0.00     0.164 HD
ENDBRANCH   2  16
TORSDOF 2
ENDMDL
MODEL 10
REMARK VINA RESULT:      -6.6      4.608      8.238
REMARK  2 active torsions:
REMARK  status: ('A' for Active; 'I' for Inactive)
REMARK    1  A    between atoms: C_9  and  C_10 
REMARK       I    between atoms: C_10  and  N_11 
REMARK    2  A    between atoms: N_11  and  C_12 
ROOT
HETATM    1  C   UNL     1      40.868 -13.939   4.098  1.00  0.00     0.276 C 
HETATM    2  N   UNL     1      41.190 -12.600   4.154  1.00  0.00    -0.317 N 
HETATM    3  O   UNL     1      40.926 -14.728   5.036  1.00  0.00    -0.266 OA
HETATM    4  H   UNL     1      41.073 -12.092   3.273  1.00  0.00     0.169 HD
ENDROOT
BRANCH   1   5
HETATM    5  C   UNL     1      40.429 -14.356   2.756  1.00  0.00     0.147 A 
HETATM    6  N   UNL     1      39.929 -15.587   2.518  1.00  0.00    -0.169 NA
HETATM    7  N   UNL     1      39.642 -15.570   1.202  1.00  0.00    -0.275 N 
HETATM    8  C   UNL     1      39.941 -14.389   0.584  1.00  0.00     0.086 A 
HETATM    9  H   UNL     1      39.242 -16.400   0.774  1.00  0.00     0.189 HD
HETATM   10  C   UNL     1      39.707 -14.178  -0.804  1.00  0.00     0.103 A 
HETATM   11  C   UNL     1      40.457 -13.578   1.567  1.00  0.00     0.073 A 
HETATM   12  O   UNL     1      39.141 -15.137  -1.604  1.00  0.00    -0.320 OA
HETATM   13  C   UNL     1      39.974 -13.060  -1.576  1.00  0.00     0.041 A 
HETATM   14  C   UNL     1      39.052 -14.630  -2.858  1.00  0.00     0.142 A 
HETATM   15  C   UNL     1      39.552 -13.352  -2.896  1.00  0.00     0.027 A 
ENDBRANCH   1   5
BRANCH   2  16
HETATM   16  C   UNL     1      41.646 -11.862   5.220  1.00  0.00     0.102 A 
HETATM   17  C   UNL     1      43.144 -11.854   5.440  1.00  0.00     0.218 A 
HETATM   18  O   UNL     1      43.874 -12.486   4.677  1.00  0.00    -0.284 OA
HETATM   19  C   UNL     1      43.678 -11.061   6.599  1.00  0.00     0.078 A 
HETATM   20 BR   UNL     1      45.509 -11.015   6.917  1.00  0.00    -0.045 Br
HETATM   21  C   UNL     1      42.784 -10.413   7.362  1.00  0.00     0.111 A 
HETATM   22  N   UNL     1      41.435 -10.442   7.132  1.00  0.00    -0.372 N 
HETATM   23  C   UNL     1      40.904 -11.154   6.086  1.00  0.00     0.121 A 
HETATM   24  H   UNL     1      40.808  -9.932   7.749  1.00  0.00     0.164 HD
ENDBRANCH   2  16
TORSDOF 2
ENDMDL
