MODEL 1
REMARK VINA RESULT:      -9.4      0.000      0.000
REMARK  11 active torsions:
REMARK  status: ('A' for Active; 'I' for Inactive)
REMARK    1  A    between atoms: C_3  and  N_4 
REMARK    2  A    between atoms: N_4  and  C_5 
REMARK    3  A    between atoms: C_7  and  C_8 
REMARK    4  A    between atoms: C_18  and  N_19 
REMARK       I    between atoms: N_19  and  C_20 
REMARK    5  A    between atoms: C_20  and  C_21 
REMARK    6  A    between atoms: C_22  and  C_23 
REMARK    7  A    between atoms: C_26  and  O_27 
REMARK    8  A    between atoms: O_27  and  C_28 
REMARK    9  A    between atoms: C_28  and  C_29 
REMARK   10  A    between atoms: C_29  and  C_30 
REMARK   11  A    between atoms: C_30  and  N_31 
ROOT
HETATM    1  C   UNL     1      44.183 -11.896   3.400  1.00  0.00     0.050 C 
HETATM    2  C   UNL     1      43.869 -11.556   4.833  1.00  0.00    -0.035 A 
HETATM    3  C   UNL     1      42.545 -11.553   5.325  1.00  0.00     0.057 A 
HETATM    4  C   UNL     1      42.341 -11.278   6.689  1.00  0.00     0.060 A 
HETATM    5  C   UNL     1      43.401 -11.012   7.557  1.00  0.00     0.037 A 
HETATM    6  C   UNL     1      44.703 -11.027   7.056  1.00  0.00     0.030 A 
HETATM    7  C   UNL     1      44.936 -11.293   5.708  1.00  0.00     0.011 A 
ENDROOT
BRANCH   5   8
HETATM    8  N   UNL     1      43.242 -10.758   8.936  1.00  0.00    -0.324 N 
HETATM    9  C   UNL     1      44.232 -10.497   9.861  1.00  0.00     0.245 C 
HETATM   10  O   UNL     1      45.443 -10.545   9.698  1.00  0.00    -0.268 OA
HETATM   11  H   UNL     1      42.287 -10.766   9.264  1.00  0.00     0.169 HD
BRANCH   9  12
HETATM   12  C   UNL     1      43.651 -10.146  11.184  1.00  0.00     0.075 C 
HETATM   13  C   UNL     1      43.570  -8.867  11.579  1.00  0.00     0.017 C 
BRANCH  13  14
HETATM   14  C   UNL     1      42.978  -8.559  12.877  1.00  0.00    -0.036 A 
HETATM   15  C   UNL     1      41.956  -9.363  13.389  1.00  0.00     0.014 A 
HETATM   16  C   UNL     1      41.310  -9.007  14.576  1.00  0.00     0.037 A 
HETATM   17  C   UNL     1      41.672  -7.834  15.237  1.00  0.00     0.068 A 
HETATM   18  C   UNL     1      42.728  -7.059  14.758  1.00  0.00     0.037 A 
HETATM   19  C   UNL     1      43.376  -7.415  13.576  1.00  0.00     0.014 A 
BRANCH  17  20
HETATM   20  O   UNL     1      41.103  -7.410  16.403  1.00  0.00    -0.351 OA
BRANCH  20  21
HETATM   21  C   UNL     1      41.883  -6.505  17.186  1.00  0.00     0.177 C 
BRANCH  21  22
HETATM   22  C   UNL     1      41.486  -6.707  18.646  1.00  0.00     0.054 C 
BRANCH  22  23
HETATM   23  C   UNL     1      41.973  -8.064  19.149  1.00  0.00     0.236 C 
BRANCH  23  24
HETATM   24  N   UNL     1      40.821  -9.034  19.320  1.00  0.00    -0.079 N 
HETATM   25  H   UNL     1      40.749  -9.598  18.462  1.00  0.00     0.278 HD
HETATM   26  C   UNL     1      41.014  -9.987  20.472  1.00  0.00     0.269 C 
HETATM   27  C   UNL     1      39.515  -8.294  19.457  1.00  0.00     0.269 C 
ENDBRANCH  23  24
ENDBRANCH  22  23
ENDBRANCH  21  22
ENDBRANCH  20  21
ENDBRANCH  17  20
ENDBRANCH  13  14
ENDBRANCH   9  12
ENDBRANCH   5   8
BRANCH   3  28
HETATM   28  N   UNL     1      41.480 -11.906   4.476  1.00  0.00    -0.188 N 
HETATM   29  H   UNL     1      40.649 -11.340   4.541  1.00  0.00     0.184 HD
BRANCH  28  30
HETATM   30  C   UNL     1      41.160 -13.104   3.840  1.00  0.00     0.727 A 
HETATM   31  N   UNL     1      41.916 -14.202   4.004  1.00  0.00    -0.062 NA
HETATM   32  C   UNL     1      41.568 -15.347   3.377  1.00  0.00     0.089 A 
HETATM   33  C   UNL     1      40.453 -15.386   2.564  1.00  0.00     0.053 A 
HETATM   34  C   UNL     1      39.752 -14.212   2.427  1.00  0.00     0.139 A 
HETATM   35  N   UNL     1      40.088 -13.066   3.040  1.00  0.00    -0.075 NA
BRANCH  32  36
HETATM   36  C   UNL     1      42.460 -16.505   3.624  1.00  0.00     0.011 A 
HETATM   37  C   UNL     1      42.900 -16.827   4.915  1.00  0.00     0.130 A 
HETATM   38  N   UNL     1      43.734 -17.855   5.235  1.00  0.00    -0.272 NA
HETATM   39  C   UNL     1      44.157 -18.626   4.218  1.00  0.00     0.116 A 
HETATM   40  C   UNL     1      43.789 -18.419   2.903  1.00  0.00     0.020 A 
HETATM   41  C   UNL     1      42.938 -17.351   2.609  1.00  0.00     0.017 A 
ENDBRANCH  32  36
ENDBRANCH  28  30
ENDBRANCH   3  28
TORSDOF 11
ENDMDL
MODEL 2
REMARK VINA RESULT:      -9.3      1.619      1.888
REMARK  11 active torsions:
REMARK  status: ('A' for Active; 'I' for Inactive)
REMARK    1  A    between atoms: C_3  and  N_4 
REMARK    2  A    between atoms: N_4  and  C_5 
REMARK    3  A    between atoms: C_7  and  C_8 
REMARK    4  A    between atoms: C_18  and  N_19 
REMARK       I    between atoms: N_19  and  C_20 
REMARK    5  A    between atoms: C_20  and  C_21 
REMARK    6  A    between atoms: C_22  and  C_23 
REMARK    7  A    between atoms: C_26  and  O_27 
REMARK    8  A    between atoms: O_27  and  C_28 
REMARK    9  A    between atoms: C_28  and  C_29 
REMARK   10  A    between atoms: C_29  and  C_30 
REMARK   11  A    between atoms: C_30  and  N_31 
ROOT
HETATM    1  C   UNL     1      46.196 -11.544   5.344  1.00  0.00     0.050 C 
HETATM    2  C   UNL     1      45.426 -11.109   6.563  1.00  0.00    -0.035 A 
HETATM    3  C   UNL     1      44.028 -11.277   6.660  1.00  0.00     0.057 A 
HETATM    4  C   UNL     1      43.392 -10.896   7.855  1.00  0.00     0.060 A 
HETATM    5  C   UNL     1      44.100 -10.363   8.934  1.00  0.00     0.037 A 
HETATM    6  C   UNL     1      45.482 -10.211   8.824  1.00  0.00     0.030 A 
HETATM    7  C   UNL     1      46.140 -10.578   7.650  1.00  0.00     0.011 A 
ENDROOT
BRANCH   5   8
HETATM    8  N   UNL     1      43.505  -9.993  10.158  1.00  0.00    -0.324 N 
HETATM    9  C   UNL     1      43.568 -10.668  11.359  1.00  0.00     0.245 C 
HETATM   10  O   UNL     1      44.052 -11.769  11.577  1.00  0.00    -0.268 OA
HETATM   11  H   UNL     1      42.981  -9.129  10.134  1.00  0.00     0.169 HD
BRANCH   9  12
HETATM   12  C   UNL     1      42.925  -9.886  12.449  1.00  0.00     0.075 C 
HETATM   13  C   UNL     1      43.230  -8.593  12.636  1.00  0.00     0.017 C 
BRANCH  13  14
HETATM   14  C   UNL     1      42.566  -7.853  13.704  1.00  0.00    -0.036 A 
HETATM   15  C   UNL     1      41.853  -8.536  14.691  1.00  0.00     0.014 A 
HETATM   16  C   UNL     1      41.123  -7.827  15.650  1.00  0.00     0.037 A 
HETATM   17  C   UNL     1      41.091  -6.434  15.604  1.00  0.00     0.068 A 
HETATM   18  C   UNL     1      41.846  -5.748  14.653  1.00  0.00     0.037 A 
HETATM   19  C   UNL     1      42.577  -6.454  13.699  1.00  0.00     0.014 A 
BRANCH  17  20
HETATM   20  O   UNL     1      40.412  -5.658  16.499  1.00  0.00    -0.351 OA
BRANCH  20  21
HETATM   21  C   UNL     1      41.215  -4.903  17.407  1.00  0.00     0.177 C 
BRANCH  21  22
HETATM   22  C   UNL     1      40.628  -5.097  18.804  1.00  0.00     0.054 C 
BRANCH  22  23
HETATM   23  C   UNL     1      41.473  -6.082  19.607  1.00  0.00     0.236 C 
BRANCH  23  24
HETATM   24  N   UNL     1      41.320  -7.496  19.082  1.00  0.00    -0.079 N 
HETATM   25  H   UNL     1      41.569  -7.494  18.084  1.00  0.00     0.278 HD
HETATM   26  C   UNL     1      42.224  -8.485  19.771  1.00  0.00     0.269 C 
HETATM   27  C   UNL     1      39.882  -7.943  19.165  1.00  0.00     0.269 C 
ENDBRANCH  23  24
ENDBRANCH  22  23
ENDBRANCH  21  22
ENDBRANCH  20  21
ENDBRANCH  17  20
ENDBRANCH  13  14
ENDBRANCH   9  12
ENDBRANCH   5   8
BRANCH   3  28
HETATM   28  N   UNL     1      43.320 -11.894   5.612  1.00  0.00    -0.188 N 
HETATM   29  H   UNL     1      43.059 -11.302   4.839  1.00  0.00     0.184 HD
BRANCH  28  30
HETATM   30  C   UNL     1      42.550 -13.054   5.572  1.00  0.00     0.727 A 
HETATM   31  N   UNL     1      43.040 -14.198   5.070  1.00  0.00    -0.062 NA
HETATM   32  C   UNL     1      42.264 -15.304   5.057  1.00  0.00     0.089 A 
HETATM   33  C   UNL     1      40.972 -15.256   5.543  1.00  0.00     0.053 A 
HETATM   34  C   UNL     1      40.539 -14.039   6.012  1.00  0.00     0.139 A 
HETATM   35  N   UNL     1      41.296 -12.931   6.027  1.00  0.00    -0.075 NA
BRANCH  32  36
HETATM   36  C   UNL     1      42.894 -16.519   4.489  1.00  0.00     0.011 A 
HETATM   37  C   UNL     1      43.488 -17.486   5.311  1.00  0.00     0.130 A 
HETATM   38  N   UNL     1      44.108 -18.621   4.881  1.00  0.00    -0.272 NA
HETATM   39  C   UNL     1      44.138 -18.824   3.552  1.00  0.00     0.116 A 
HETATM   40  C   UNL     1      43.581 -17.951   2.637  1.00  0.00     0.020 A 
HETATM   41  C   UNL     1      42.959 -16.793   3.113  1.00  0.00     0.017 A 
ENDBRANCH  32  36
ENDBRANCH  28  30
ENDBRANCH   3  28
TORSDOF 11
ENDMDL
MODEL 3
REMARK VINA RESULT:      -8.9      2.750      3.653
REMARK  11 active torsions:
REMARK  status: ('A' for Active; 'I' for Inactive)
REMARK    1  A    between atoms: C_3  and  N_4 
REMARK    2  A    between atoms: N_4  and  C_5 
REMARK    3  A    between atoms: C_7  and  C_8 
REMARK    4  A    between atoms: C_18  and  N_19 
REMARK       I    between atoms: N_19  and  C_20 
REMARK    5  A    between atoms: C_20  and  C_21 
REMARK    6  A    between atoms: C_22  and  C_23 
REMARK    7  A    between atoms: C_26  and  O_27 
REMARK    8  A    between atoms: O_27  and  C_28 
REMARK    9  A    between atoms: C_28  and  C_29 
REMARK   10  A    between atoms: C_29  and  C_30 
REMARK   11  A    between atoms: C_30  and  N_31 
ROOT
HETATM    1  C   UNL     1      38.694 -11.971   2.197  1.00  0.00     0.050 C 
HETATM    2  C   UNL     1      39.074 -11.665   3.622  1.00  0.00    -0.035 A 
HETATM    3  C   UNL     1      39.710 -12.620   4.444  1.00  0.00     0.057 A 
HETATM    4  C   UNL     1      40.081 -12.237   5.746  1.00  0.00     0.060 A 
HETATM    5  C   UNL     1      39.841 -10.952   6.237  1.00  0.00     0.037 A 
HETATM    6  C   UNL     1      39.219 -10.019   5.407  1.00  0.00     0.030 A 
HETATM    7  C   UNL     1      38.836 -10.371   4.114  1.00  0.00     0.011 A 
ENDROOT
BRANCH   5   8
HETATM    8  N   UNL     1      40.221 -10.520   7.525  1.00  0.00    -0.324 N 
HETATM    9  C   UNL     1      41.223  -9.629   7.849  1.00  0.00     0.245 C 
HETATM   10  O   UNL     1      42.050  -9.126   7.102  1.00  0.00    -0.268 OA
HETATM   11  H   UNL     1      39.683 -10.915   8.284  1.00  0.00     0.169 HD
BRANCH   9  12
HETATM   12  C   UNL     1      41.223  -9.328   9.305  1.00  0.00     0.075 C 
HETATM   13  C   UNL     1      42.334  -9.488  10.039  1.00  0.00     0.017 C 
BRANCH  13  14
HETATM   14  C   UNL     1      42.300  -9.165  11.461  1.00  0.00    -0.036 A 
HETATM   15  C   UNL     1      41.304  -9.705  12.279  1.00  0.00     0.014 A 
HETATM   16  C   UNL     1      41.202  -9.312  13.616  1.00  0.00     0.037 A 
HETATM   17  C   UNL     1      42.083  -8.360  14.127  1.00  0.00     0.068 A 
HETATM   18  C   UNL     1      43.111  -7.859  13.329  1.00  0.00     0.037 A 
HETATM   19  C   UNL     1      43.217  -8.254  11.996  1.00  0.00     0.014 A 
BRANCH  17  20
HETATM   20  O   UNL     1      42.062  -7.918  15.418  1.00  0.00    -0.351 OA
BRANCH  20  21
HETATM   21  C   UNL     1      42.024  -6.501  15.594  1.00  0.00     0.177 C 
BRANCH  21  22
HETATM   22  C   UNL     1      40.568  -6.063  15.447  1.00  0.00     0.054 C 
BRANCH  22  23
HETATM   23  C   UNL     1      40.430  -5.035  14.328  1.00  0.00     0.236 C 
BRANCH  23  24
HETATM   24  N   UNL     1      39.482  -5.518  13.249  1.00  0.00    -0.079 N 
HETATM   25  H   UNL     1      38.862  -4.736  12.996  1.00  0.00     0.278 HD
HETATM   26  C   UNL     1      40.188  -5.959  11.993  1.00  0.00     0.269 C 
HETATM   27  C   UNL     1      38.592  -6.617  13.772  1.00  0.00     0.269 C 
ENDBRANCH  23  24
ENDBRANCH  22  23
ENDBRANCH  21  22
ENDBRANCH  20  21
ENDBRANCH  17  20
ENDBRANCH  13  14
ENDBRANCH   9  12
ENDBRANCH   5   8
BRANCH   3  28
HETATM   28  N   UNL     1      40.034 -13.888   3.928  1.00  0.00    -0.188 N 
HETATM   29  H   UNL     1      39.515 -14.668   4.298  1.00  0.00     0.184 HD
BRANCH  28  30
HETATM   30  C   UNL     1      41.184 -14.367   3.304  1.00  0.00     0.727 A 
HETATM   31  N   UNL     1      41.636 -15.609   3.536  1.00  0.00    -0.062 NA
HETATM   32  C   UNL     1      42.751 -16.040   2.905  1.00  0.00     0.089 A 
HETATM   33  C   UNL     1      43.428 -15.205   2.039  1.00  0.00     0.053 A 
HETATM   34  C   UNL     1      42.916 -13.939   1.880  1.00  0.00     0.139 A 
HETATM   35  N   UNL     1      41.813 -13.496   2.503  1.00  0.00    -0.075 NA
BRANCH  32  36
HETATM   36  C   UNL     1      43.168 -17.426   3.221  1.00  0.00     0.011 A 
HETATM   37  C   UNL     1      43.625 -17.778   4.498  1.00  0.00     0.130 A 
HETATM   38  N   UNL     1      44.048 -19.018   4.875  1.00  0.00    -0.272 NA
HETATM   39  C   UNL     1      44.010 -19.979   3.935  1.00  0.00     0.116 A 
HETATM   40  C   UNL     1      43.572 -19.761   2.643  1.00  0.00     0.020 A 
HETATM   41  C   UNL     1      43.152 -18.477   2.289  1.00  0.00     0.017 A 
ENDBRANCH  32  36
ENDBRANCH  28  30
ENDBRANCH   3  28
TORSDOF 11
ENDMDL
MODEL 4
REMARK VINA RESULT:      -8.7      2.033      2.780
REMARK  11 active torsions:
REMARK  status: ('A' for Active; 'I' for Inactive)
REMARK    1  A    between atoms: C_3  and  N_4 
REMARK    2  A    between atoms: N_4  and  C_5 
REMARK    3  A    between atoms: C_7  and  C_8 
REMARK    4  A    between atoms: C_18  and  N_19 
REMARK       I    between atoms: N_19  and  C_20 
REMARK    5  A    between atoms: C_20  and  C_21 
REMARK    6  A    between atoms: C_22  and  C_23 
REMARK    7  A    between atoms: C_26  and  O_27 
REMARK    8  A    between atoms: O_27  and  C_28 
REMARK    9  A    between atoms: C_28  and  C_29 
REMARK   10  A    between atoms: C_29  and  C_30 
REMARK   11  A    between atoms: C_30  and  N_31 
ROOT
HETATM    1  C   UNL     1      38.770 -11.979   2.364  1.00  0.00     0.050 C 
HETATM    2  C   UNL     1      39.177 -11.659   3.778  1.00  0.00    -0.035 A 
HETATM    3  C   UNL     1      39.814 -12.611   4.603  1.00  0.00     0.057 A 
HETATM    4  C   UNL     1      40.211 -12.216   5.893  1.00  0.00     0.060 A 
HETATM    5  C   UNL     1      39.995 -10.923   6.372  1.00  0.00     0.037 A 
HETATM    6  C   UNL     1      39.371  -9.992   5.540  1.00  0.00     0.030 A 
HETATM    7  C   UNL     1      38.963 -10.356   4.257  1.00  0.00     0.011 A 
ENDROOT
BRANCH   5   8
HETATM    8  N   UNL     1      40.401 -10.480   7.648  1.00  0.00    -0.324 N 
HETATM    9  C   UNL     1      41.450  -9.636   7.948  1.00  0.00     0.245 C 
HETATM   10  O   UNL     1      42.301  -9.196   7.188  1.00  0.00    -0.268 OA
HETATM   11  H   UNL     1      39.845 -10.826   8.417  1.00  0.00     0.169 HD
BRANCH   9  12
HETATM   12  C   UNL     1      41.470  -9.298   9.396  1.00  0.00     0.075 C 
HETATM   13  C   UNL     1      42.631  -9.124  10.044  1.00  0.00     0.017 C 
BRANCH  13  14
HETATM   14  C   UNL     1      42.611  -8.776  11.461  1.00  0.00    -0.036 A 
HETATM   15  C   UNL     1      42.265  -9.738  12.413  1.00  0.00     0.014 A 
HETATM   16  C   UNL     1      42.135  -9.381  13.758  1.00  0.00     0.037 A 
HETATM   17  C   UNL     1      42.330  -8.056  14.145  1.00  0.00     0.068 A 
HETATM   18  C   UNL     1      42.729  -7.105  13.205  1.00  0.00     0.037 A 
HETATM   19  C   UNL     1      42.862  -7.461  11.864  1.00  0.00     0.014 A 
BRANCH  17  20
HETATM   20  O   UNL     1      42.231  -7.615  15.433  1.00  0.00    -0.351 OA
BRANCH  20  21
HETATM   21  C   UNL     1      41.829  -6.254  15.598  1.00  0.00     0.177 C 
BRANCH  21  22
HETATM   22  C   UNL     1      41.716  -5.991  17.098  1.00  0.00     0.054 C 
BRANCH  22  23
HETATM   23  C   UNL     1      40.377  -6.497  17.629  1.00  0.00     0.236 C 
BRANCH  23  24
HETATM   24  N   UNL     1      40.548  -7.234  18.943  1.00  0.00    -0.079 N 
HETATM   25  H   UNL     1      40.434  -6.555  19.706  1.00  0.00     0.278 HD
HETATM   26  C   UNL     1      39.525  -8.322  19.149  1.00  0.00     0.269 C 
HETATM   27  C   UNL     1      41.945  -7.788  19.066  1.00  0.00     0.269 C 
ENDBRANCH  23  24
ENDBRANCH  22  23
ENDBRANCH  21  22
ENDBRANCH  20  21
ENDBRANCH  17  20
ENDBRANCH  13  14
ENDBRANCH   9  12
ENDBRANCH   5   8
BRANCH   3  28
HETATM   28  N   UNL     1      40.113 -13.890   4.098  1.00  0.00    -0.188 N 
HETATM   29  H   UNL     1      39.632 -14.665   4.526  1.00  0.00     0.184 HD
BRANCH  28  30
HETATM   30  C   UNL     1      41.220 -14.375   3.404  1.00  0.00     0.727 A 
HETATM   31  N   UNL     1      41.662 -15.629   3.586  1.00  0.00    -0.062 NA
HETATM   32  C   UNL     1      42.733 -16.065   2.887  1.00  0.00     0.089 A 
HETATM   33  C   UNL     1      43.377 -15.224   2.003  1.00  0.00     0.053 A 
HETATM   34  C   UNL     1      42.880 -13.947   1.897  1.00  0.00     0.139 A 
HETATM   35  N   UNL     1      41.819 -13.499   2.587  1.00  0.00    -0.075 NA
BRANCH  32  36
HETATM   36  C   UNL     1      43.142 -17.464   3.153  1.00  0.00     0.011 A 
HETATM   37  C   UNL     1      43.654 -17.852   4.399  1.00  0.00     0.130 A 
HETATM   38  N   UNL     1      44.074 -19.106   4.728  1.00  0.00    -0.272 NA
HETATM   39  C   UNL     1      43.975 -20.045   3.771  1.00  0.00     0.116 A 
HETATM   40  C   UNL     1      43.479 -19.792   2.507  1.00  0.00     0.020 A 
HETATM   41  C   UNL     1      43.064 -18.494   2.200  1.00  0.00     0.017 A 
ENDBRANCH  32  36
ENDBRANCH  28  30
ENDBRANCH   3  28
TORSDOF 11
ENDMDL
MODEL 5
REMARK VINA RESULT:      -8.7      3.048      5.392
REMARK  11 active torsions:
REMARK  status: ('A' for Active; 'I' for Inactive)
REMARK    1  A    between atoms: C_3  and  N_4 
REMARK    2  A    between atoms: N_4  and  C_5 
REMARK    3  A    between atoms: C_7  and  C_8 
REMARK    4  A    between atoms: C_18  and  N_19 
REMARK       I    between atoms: N_19  and  C_20 
REMARK    5  A    between atoms: C_20  and  C_21 
REMARK    6  A    between atoms: C_22  and  C_23 
REMARK    7  A    between atoms: C_26  and  O_27 
REMARK    8  A    between atoms: O_27  and  C_28 
REMARK    9  A    between atoms: C_28  and  C_29 
REMARK   10  A    between atoms: C_29  and  C_30 
REMARK   11  A    between atoms: C_30  and  N_31 
ROOT
HETATM    1  C   UNL     1      43.315 -17.483   3.430  1.00  0.00     0.050 C 
HETATM    2  C   UNL     1      43.304 -16.243   4.284  1.00  0.00    -0.035 A 
HETATM    3  C   UNL     1      42.846 -15.003   3.790  1.00  0.00     0.057 A 
HETATM    4  C   UNL     1      42.816 -13.905   4.669  1.00  0.00     0.060 A 
HETATM    5  C   UNL     1      43.222 -14.011   6.000  1.00  0.00     0.037 A 
HETATM    6  C   UNL     1      43.664 -15.246   6.474  1.00  0.00     0.030 A 
HETATM    7  C   UNL     1      43.708 -16.351   5.625  1.00  0.00     0.011 A 
ENDROOT
BRANCH   5   8
HETATM    8  N   UNL     1      43.182 -12.942   6.920  1.00  0.00    -0.324 N 
HETATM    9  C   UNL     1      44.152 -11.984   7.136  1.00  0.00     0.245 C 
HETATM   10  O   UNL     1      45.277 -11.935   6.660  1.00  0.00    -0.268 OA
HETATM   11  H   UNL     1      42.337 -12.883   7.471  1.00  0.00     0.169 HD
BRANCH   9  12
HETATM   12  C   UNL     1      43.679 -10.947   8.091  1.00  0.00     0.075 C 
HETATM   13  C   UNL     1      44.532 -10.357   8.940  1.00  0.00     0.017 C 
BRANCH  13  14
HETATM   14  C   UNL     1      44.035  -9.330   9.851  1.00  0.00    -0.036 A 
HETATM   15  C   UNL     1      44.152  -9.504  11.232  1.00  0.00     0.014 A 
HETATM   16  C   UNL     1      43.578  -8.578  12.108  1.00  0.00     0.037 A 
HETATM   17  C   UNL     1      42.867  -7.492  11.599  1.00  0.00     0.068 A 
HETATM   18  C   UNL     1      42.796  -7.287  10.221  1.00  0.00     0.037 A 
HETATM   19  C   UNL     1      43.371  -8.208   9.347  1.00  0.00     0.014 A 
BRANCH  17  20
HETATM   20  O   UNL     1      42.278  -6.536  12.375  1.00  0.00    -0.351 OA
BRANCH  20  21
HETATM   21  C   UNL     1      42.390  -6.722  13.787  1.00  0.00     0.177 C 
BRANCH  21  22
HETATM   22  C   UNL     1      41.118  -7.424  14.257  1.00  0.00     0.054 C 
BRANCH  22  23
HETATM   23  C   UNL     1      39.888  -6.787  13.616  1.00  0.00     0.236 C 
BRANCH  23  24
HETATM   24  N   UNL     1      39.154  -7.772  12.728  1.00  0.00    -0.079 N 
HETATM   25  H   UNL     1      38.192  -7.863  13.080  1.00  0.00     0.278 HD
HETATM   26  C   UNL     1      39.069  -7.326  11.291  1.00  0.00     0.269 C 
HETATM   27  C   UNL     1      39.777  -9.142  12.824  1.00  0.00     0.269 C 
ENDBRANCH  23  24
ENDBRANCH  22  23
ENDBRANCH  21  22
ENDBRANCH  20  21
ENDBRANCH  17  20
ENDBRANCH  13  14
ENDBRANCH   9  12
ENDBRANCH   5   8
BRANCH   3  28
HETATM   28  N   UNL     1      42.354 -14.909   2.475  1.00  0.00    -0.188 N 
HETATM   29  H   UNL     1      42.701 -15.589   1.818  1.00  0.00     0.184 HD
BRANCH  28  30
HETATM   30  C   UNL     1      41.793 -13.846   1.771  1.00  0.00     0.727 A 
HETATM   31  N   UNL     1      40.982 -14.057   0.721  1.00  0.00    -0.062 NA
HETATM   32  C   UNL     1      40.450 -13.000   0.069  1.00  0.00     0.089 A 
HETATM   33  C   UNL     1      40.749 -11.712   0.469  1.00  0.00     0.053 A 
HETATM   34  C   UNL     1      41.609 -11.584   1.532  1.00  0.00     0.139 A 
HETATM   35  N   UNL     1      42.149 -12.624   2.187  1.00  0.00    -0.075 NA
BRANCH  32  36
HETATM   36  C   UNL     1      39.564 -13.333  -1.071  1.00  0.00     0.011 A 
HETATM   37  C   UNL     1      39.970 -14.221  -2.076  1.00  0.00     0.130 A 
HETATM   38  N   UNL     1      39.236 -14.572  -3.169  1.00  0.00    -0.272 NA
HETATM   39  C   UNL     1      38.015 -14.018  -3.277  1.00  0.00     0.116 A 
HETATM   40  C   UNL     1      37.497 -13.135  -2.350  1.00  0.00     0.020 A 
HETATM   41  C   UNL     1      38.279 -12.793  -1.244  1.00  0.00     0.017 A 
ENDBRANCH  32  36
ENDBRANCH  28  30
ENDBRANCH   3  28
TORSDOF 11
ENDMDL
MODEL 6
REMARK VINA RESULT:      -8.5      2.647      3.410
REMARK  11 active torsions:
REMARK  status: ('A' for Active; 'I' for Inactive)
REMARK    1  A    between atoms: C_3  and  N_4 
REMARK    2  A    between atoms: N_4  and  C_5 
REMARK    3  A    between atoms: C_7  and  C_8 
REMARK    4  A    between atoms: C_18  and  N_19 
REMARK       I    between atoms: N_19  and  C_20 
REMARK    5  A    between atoms: C_20  and  C_21 
REMARK    6  A    between atoms: C_22  and  C_23 
REMARK    7  A    between atoms: C_26  and  O_27 
REMARK    8  A    between atoms: O_27  and  C_28 
REMARK    9  A    between atoms: C_28  and  C_29 
REMARK   10  A    between atoms: C_29  and  C_30 
REMARK   11  A    between atoms: C_30  and  N_31 
ROOT
HETATM    1  C   UNL     1      43.973 -11.950   3.402  1.00  0.00     0.050 C 
HETATM    2  C   UNL     1      43.769 -11.531   4.834  1.00  0.00    -0.035 A 
HETATM    3  C   UNL     1      42.855 -10.515   5.189  1.00  0.00     0.057 A 
HETATM    4  C   UNL     1      42.683 -10.222   6.554  1.00  0.00     0.060 A 
HETATM    5  C   UNL     1      43.383 -10.901   7.552  1.00  0.00     0.037 A 
HETATM    6  C   UNL     1      44.275 -11.908   7.183  1.00  0.00     0.030 A 
HETATM    7  C   UNL     1      44.470 -12.218   5.838  1.00  0.00     0.011 A 
ENDROOT
BRANCH   5   8
HETATM    8  N   UNL     1      43.219 -10.656   8.932  1.00  0.00    -0.324 N 
HETATM    9  C   UNL     1      44.210 -10.456   9.872  1.00  0.00     0.245 C 
HETATM   10  O   UNL     1      45.418 -10.564   9.722  1.00  0.00    -0.268 OA
HETATM   11  H   UNL     1      42.261 -10.620   9.249  1.00  0.00     0.169 HD
BRANCH   9  12
HETATM   12  C   UNL     1      43.631 -10.092  11.192  1.00  0.00     0.075 C 
HETATM   13  C   UNL     1      43.551  -8.809  11.574  1.00  0.00     0.017 C 
BRANCH  13  14
HETATM   14  C   UNL     1      42.960  -8.487  12.869  1.00  0.00    -0.036 A 
HETATM   15  C   UNL     1      41.839  -9.187  13.321  1.00  0.00     0.014 A 
HETATM   16  C   UNL     1      41.204  -8.808  14.507  1.00  0.00     0.037 A 
HETATM   17  C   UNL     1      41.679  -7.714  15.228  1.00  0.00     0.068 A 
HETATM   18  C   UNL     1      42.831  -7.048  14.808  1.00  0.00     0.037 A 
HETATM   19  C   UNL     1      43.467  -7.427  13.627  1.00  0.00     0.014 A 
BRANCH  17  20
HETATM   20  O   UNL     1      41.129  -7.274  16.397  1.00  0.00    -0.351 OA
BRANCH  20  21
HETATM   21  C   UNL     1      41.232  -5.871  16.647  1.00  0.00     0.177 C 
BRANCH  21  22
HETATM   22  C   UNL     1      41.490  -5.693  18.142  1.00  0.00     0.054 C 
BRANCH  22  23
HETATM   23  C   UNL     1      41.933  -7.012  18.768  1.00  0.00     0.236 C 
BRANCH  23  24
HETATM   24  N   UNL     1      41.074  -7.372  19.964  1.00  0.00    -0.079 N 
HETATM   25  H   UNL     1      41.667  -7.862  20.647  1.00  0.00     0.278 HD
HETATM   26  C   UNL     1      40.489  -6.168  20.657  1.00  0.00     0.269 C 
HETATM   27  C   UNL     1      39.986  -8.338  19.568  1.00  0.00     0.269 C 
ENDBRANCH  23  24
ENDBRANCH  22  23
ENDBRANCH  21  22
ENDBRANCH  20  21
ENDBRANCH  17  20
ENDBRANCH  13  14
ENDBRANCH   9  12
ENDBRANCH   5   8
BRANCH   3  28
HETATM   28  N   UNL     1      42.082  -9.886   4.196  1.00  0.00    -0.188 N 
HETATM   29  H   UNL     1      42.247  -8.902   4.057  1.00  0.00     0.184 HD
BRANCH  28  30
HETATM   30  C   UNL     1      40.857 -10.224   3.624  1.00  0.00     0.727 A 
HETATM   31  N   UNL     1      40.775 -11.134   2.641  1.00  0.00    -0.062 NA
HETATM   32  C   UNL     1      39.567 -11.440   2.119  1.00  0.00     0.089 A 
HETATM   33  C   UNL     1      38.427 -10.814   2.582  1.00  0.00     0.053 A 
HETATM   34  C   UNL     1      38.603  -9.874   3.569  1.00  0.00     0.139 A 
HETATM   35  N   UNL     1      39.796  -9.556   4.095  1.00  0.00    -0.075 NA
BRANCH  32  36
HETATM   36  C   UNL     1      39.577 -12.459   1.042  1.00  0.00     0.011 A 
HETATM   37  C   UNL     1      39.102 -12.168  -0.244  1.00  0.00     0.130 A 
HETATM   38  N   UNL     1      39.052 -13.042  -1.288  1.00  0.00    -0.272 NA
HETATM   39  C   UNL     1      39.510 -14.285  -1.055  1.00  0.00     0.116 A 
HETATM   40  C   UNL     1      40.011 -14.694   0.166  1.00  0.00     0.020 A 
HETATM   41  C   UNL     1      40.041 -13.773   1.217  1.00  0.00     0.017 A 
ENDBRANCH  32  36
ENDBRANCH  28  30
ENDBRANCH   3  28
TORSDOF 11
ENDMDL
MODEL 7
REMARK VINA RESULT:      -8.4      3.149      5.340
REMARK  11 active torsions:
REMARK  status: ('A' for Active; 'I' for Inactive)
REMARK    1  A    between atoms: C_3  and  N_4 
REMARK    2  A    between atoms: N_4  and  C_5 
REMARK    3  A    between atoms: C_7  and  C_8 
REMARK    4  A    between atoms: C_18  and  N_19 
REMARK       I    between atoms: N_19  and  C_20 
REMARK    5  A    between atoms: C_20  and  C_21 
REMARK    6  A    between atoms: C_22  and  C_23 
REMARK    7  A    between atoms: C_26  and  O_27 
REMARK    8  A    between atoms: O_27  and  C_28 
REMARK    9  A    between atoms: C_28  and  C_29 
REMARK   10  A    between atoms: C_29  and  C_30 
REMARK   11  A    between atoms: C_30  and  N_31 
ROOT
HETATM    1  C   UNL     1      43.762 -18.220   4.608  1.00  0.00     0.050 C 
HETATM    2  C   UNL     1      43.711 -16.860   5.254  1.00  0.00    -0.035 A 
HETATM    3  C   UNL     1      43.427 -15.693   4.512  1.00  0.00     0.057 A 
HETATM    4  C   UNL     1      43.343 -14.470   5.200  1.00  0.00     0.060 A 
HETATM    5  C   UNL     1      43.531 -14.382   6.581  1.00  0.00     0.037 A 
HETATM    6  C   UNL     1      43.802 -15.546   7.299  1.00  0.00     0.030 A 
HETATM    7  C   UNL     1      43.895 -16.773   6.644  1.00  0.00     0.011 A 
ENDROOT
BRANCH   5   8
HETATM    8  N   UNL     1      43.429 -13.179   7.311  1.00  0.00    -0.324 N 
HETATM    9  C   UNL     1      44.277 -12.092   7.259  1.00  0.00     0.245 C 
HETATM   10  O   UNL     1      45.338 -11.996   6.661  1.00  0.00    -0.268 OA
HETATM   11  H   UNL     1      42.636 -13.124   7.935  1.00  0.00     0.169 HD
BRANCH   9  12
HETATM   12  C   UNL     1      43.754 -10.965   8.078  1.00  0.00     0.075 C 
HETATM   13  C   UNL     1      44.509 -10.406   9.035  1.00  0.00     0.017 C 
BRANCH  13  14
HETATM   14  C   UNL     1      43.969  -9.291   9.806  1.00  0.00    -0.036 A 
HETATM   15  C   UNL     1      43.570  -9.484  11.131  1.00  0.00     0.014 A 
HETATM   16  C   UNL     1      42.950  -8.449  11.836  1.00  0.00     0.037 A 
HETATM   17  C   UNL     1      42.709  -7.228  11.207  1.00  0.00     0.068 A 
HETATM   18  C   UNL     1      43.156  -7.015   9.902  1.00  0.00     0.037 A 
HETATM   19  C   UNL     1      43.778  -8.046   9.199  1.00  0.00     0.014 A 
BRANCH  17  20
HETATM   20  O   UNL     1      42.116  -6.160  11.815  1.00  0.00    -0.351 OA
BRANCH  20  21
HETATM   21  C   UNL     1      42.290  -6.072  13.230  1.00  0.00     0.177 C 
BRANCH  21  22
HETATM   22  C   UNL     1      40.934  -6.350  13.875  1.00  0.00     0.054 C 
BRANCH  22  23
HETATM   23  C   UNL     1      39.876  -5.397  13.326  1.00  0.00     0.236 C 
BRANCH  23  24
HETATM   24  N   UNL     1      38.702  -6.156  12.739  1.00  0.00    -0.079 N 
HETATM   25  H   UNL     1      37.882  -5.986  13.337  1.00  0.00     0.278 HD
HETATM   26  C   UNL     1      38.344  -5.708  11.345  1.00  0.00     0.269 C 
HETATM   27  C   UNL     1      38.956  -7.641  12.771  1.00  0.00     0.269 C 
ENDBRANCH  23  24
ENDBRANCH  22  23
ENDBRANCH  21  22
ENDBRANCH  20  21
ENDBRANCH  17  20
ENDBRANCH  13  14
ENDBRANCH   9  12
ENDBRANCH   5   8
BRANCH   3  28
HETATM   28  N   UNL     1      43.150 -15.786   3.136  1.00  0.00    -0.188 N 
HETATM   29  H   UNL     1      43.940 -15.943   2.530  1.00  0.00     0.184 HD
BRANCH  28  30
HETATM   30  C   UNL     1      42.082 -15.319   2.372  1.00  0.00     0.727 A 
HETATM   31  N   UNL     1      42.113 -14.105   1.801  1.00  0.00    -0.062 NA
HETATM   32  C   UNL     1      41.061 -13.692   1.061  1.00  0.00     0.089 A 
HETATM   33  C   UNL     1      39.956 -14.504   0.905  1.00  0.00     0.053 A 
HETATM   34  C   UNL     1      39.992 -15.719   1.547  1.00  0.00     0.139 A 
HETATM   35  N   UNL     1      41.028 -16.142   2.288  1.00  0.00    -0.075 NA
BRANCH  32  36
HETATM   36  C   UNL     1      41.191 -12.340   0.467  1.00  0.00     0.011 A 
HETATM   37  C   UNL     1      41.619 -11.245   1.229  1.00  0.00     0.130 A 
HETATM   38  N   UNL     1      41.749  -9.966   0.777  1.00  0.00    -0.272 NA
HETATM   39  C   UNL     1      41.445  -9.751  -0.515  1.00  0.00     0.116 A 
HETATM   40  C   UNL     1      41.020 -10.747  -1.373  1.00  0.00     0.020 A 
HETATM   41  C   UNL     1      40.892 -12.046  -0.874  1.00  0.00     0.017 A 
ENDBRANCH  32  36
ENDBRANCH  28  30
ENDBRANCH   3  28
TORSDOF 11
ENDMDL
MODEL 8
REMARK VINA RESULT:      -8.3      2.911      5.837
REMARK  11 active torsions:
REMARK  status: ('A' for Active; 'I' for Inactive)
REMARK    1  A    between atoms: C_3  and  N_4 
REMARK    2  A    between atoms: N_4  and  C_5 
REMARK    3  A    between atoms: C_7  and  C_8 
REMARK    4  A    between atoms: C_18  and  N_19 
REMARK       I    between atoms: N_19  and  C_20 
REMARK    5  A    between atoms: C_20  and  C_21 
REMARK    6  A    between atoms: C_22  and  C_23 
REMARK    7  A    between atoms: C_26  and  O_27 
REMARK    8  A    between atoms: O_27  and  C_28 
REMARK    9  A    between atoms: C_28  and  C_29 
REMARK   10  A    between atoms: C_29  and  C_30 
REMARK   11  A    between atoms: C_30  and  N_31 
ROOT
HETATM    1  C   UNL     1      42.795 -17.404   2.173  1.00  0.00     0.050 C 
HETATM    2  C   UNL     1      42.905 -16.179   3.042  1.00  0.00    -0.035 A 
HETATM    3  C   UNL     1      42.549 -14.897   2.571  1.00  0.00     0.057 A 
HETATM    4  C   UNL     1      42.627 -13.813   3.463  1.00  0.00     0.060 A 
HETATM    5  C   UNL     1      43.043 -13.971   4.786  1.00  0.00     0.037 A 
HETATM    6  C   UNL     1      43.383 -15.246   5.238  1.00  0.00     0.030 A 
HETATM    7  C   UNL     1      43.318 -16.340   4.375  1.00  0.00     0.011 A 
ENDROOT
BRANCH   5   8
HETATM    8  N   UNL     1      43.111 -12.916   5.720  1.00  0.00    -0.324 N 
HETATM    9  C   UNL     1      43.806 -11.730   5.596  1.00  0.00     0.245 C 
HETATM   10  O   UNL     1      44.587 -11.406   4.713  1.00  0.00    -0.268 OA
HETATM   11  H   UNL     1      42.579 -13.059   6.566  1.00  0.00     0.169 HD
BRANCH   9  12
HETATM   12  C   UNL     1      43.515 -10.817   6.734  1.00  0.00     0.075 C 
HETATM   13  C   UNL     1      44.263 -10.849   7.846  1.00  0.00     0.017 C 
BRANCH  13  14
HETATM   14  C   UNL     1      43.959  -9.926   8.935  1.00  0.00    -0.036 A 
HETATM   15  C   UNL     1      44.628 -10.040  10.157  1.00  0.00     0.014 A 
HETATM   16  C   UNL     1      44.261  -9.232  11.237  1.00  0.00     0.037 A 
HETATM   17  C   UNL     1      43.209  -8.327  11.099  1.00  0.00     0.068 A 
HETATM   18  C   UNL     1      42.576  -8.174   9.866  1.00  0.00     0.037 A 
HETATM   19  C   UNL     1      42.944  -8.976   8.787  1.00  0.00     0.014 A 
BRANCH  17  20
HETATM   20  O   UNL     1      42.785  -7.496  12.095  1.00  0.00    -0.351 OA
BRANCH  20  21
HETATM   21  C   UNL     1      43.237  -7.815  13.412  1.00  0.00     0.177 C 
BRANCH  21  22
HETATM   22  C   UNL     1      42.044  -8.383  14.178  1.00  0.00     0.054 C 
BRANCH  22  23
HETATM   23  C   UNL     1      40.747  -7.734  13.704  1.00  0.00     0.236 C 
BRANCH  23  24
HETATM   24  N   UNL     1      39.838  -8.744  13.031  1.00  0.00    -0.079 N 
HETATM   25  H   UNL     1      38.994  -8.847  13.610  1.00  0.00     0.278 HD
HETATM   26  C   UNL     1      39.393  -8.317  11.656  1.00  0.00     0.269 C 
HETATM   27  C   UNL     1      40.492 -10.101  12.981  1.00  0.00     0.269 C 
ENDBRANCH  23  24
ENDBRANCH  22  23
ENDBRANCH  21  22
ENDBRANCH  20  21
ENDBRANCH  17  20
ENDBRANCH  13  14
ENDBRANCH   9  12
ENDBRANCH   5   8
BRANCH   3  28
HETATM   28  N   UNL     1      42.046 -14.743   1.265  1.00  0.00    -0.188 N 
HETATM   29  H   UNL     1      42.680 -14.961   0.513  1.00  0.00     0.184 HD
BRANCH  28  30
HETATM   30  C   UNL     1      40.994 -13.980   0.763  1.00  0.00     0.727 A 
HETATM   31  N   UNL     1      40.490 -12.946   1.456  1.00  0.00    -0.062 NA
HETATM   32  C   UNL     1      39.476 -12.226   0.930  1.00  0.00     0.089 A 
HETATM   33  C   UNL     1      38.951 -12.556  -0.303  1.00  0.00     0.053 A 
HETATM   34  C   UNL     1      39.504 -13.645  -0.933  1.00  0.00     0.139 A 
HETATM   35  N   UNL     1      40.509 -14.374  -0.422  1.00  0.00    -0.075 NA
BRANCH  32  36
HETATM   36  C   UNL     1      38.991 -11.102   1.766  1.00  0.00     0.011 A 
HETATM   37  C   UNL     1      38.265 -10.039   1.212  1.00  0.00     0.130 A 
HETATM   38  N   UNL     1      37.798  -8.956   1.895  1.00  0.00    -0.272 NA
HETATM   39  C   UNL     1      38.055  -8.920   3.215  1.00  0.00     0.116 A 
HETATM   40  C   UNL     1      38.752  -9.909   3.881  1.00  0.00     0.020 A 
HETATM   41  C   UNL     1      39.222 -11.003   3.148  1.00  0.00     0.017 A 
ENDBRANCH  32  36
ENDBRANCH  28  30
ENDBRANCH   3  28
TORSDOF 11
ENDMDL
MODEL 9
REMARK VINA RESULT:      -8.2      8.098     14.013
REMARK  11 active torsions:
REMARK  status: ('A' for Active; 'I' for Inactive)
REMARK    1  A    between atoms: C_3  and  N_4 
REMARK    2  A    between atoms: N_4  and  C_5 
REMARK    3  A    between atoms: C_7  and  C_8 
REMARK    4  A    between atoms: C_18  and  N_19 
REMARK       I    between atoms: N_19  and  C_20 
REMARK    5  A    between atoms: C_20  and  C_21 
REMARK    6  A    between atoms: C_22  and  C_23 
REMARK    7  A    between atoms: C_26  and  O_27 
REMARK    8  A    between atoms: O_27  and  C_28 
REMARK    9  A    between atoms: C_28  and  C_29 
REMARK   10  A    between atoms: C_29  and  C_30 
REMARK   11  A    between atoms: C_30  and  N_31 
ROOT
HETATM    1  C   UNL     1      40.202 -13.854   6.328  1.00  0.00     0.050 C 
HETATM    2  C   UNL     1      40.593 -13.159   5.050  1.00  0.00    -0.035 A 
HETATM    3  C   UNL     1      41.942 -13.026   4.657  1.00  0.00     0.057 A 
HETATM    4  C   UNL     1      42.220 -12.412   3.423  1.00  0.00     0.060 A 
HETATM    5  C   UNL     1      41.207 -11.938   2.587  1.00  0.00     0.037 A 
HETATM    6  C   UNL     1      39.879 -12.084   2.987  1.00  0.00     0.030 A 
HETATM    7  C   UNL     1      39.573 -12.686   4.207  1.00  0.00     0.011 A 
ENDROOT
BRANCH   5   8
HETATM    8  N   UNL     1      41.442 -11.340   1.331  1.00  0.00    -0.324 N 
HETATM    9  C   UNL     1      41.028 -11.795   0.095  1.00  0.00     0.245 C 
HETATM   10  O   UNL     1      40.477 -12.854  -0.169  1.00  0.00    -0.268 OA
HETATM   11  H   UNL     1      41.970 -10.480   1.359  1.00  0.00     0.169 HD
BRANCH   9  12
HETATM   12  C   UNL     1      41.355 -10.815  -0.974  1.00  0.00     0.075 C 
HETATM   13  C   UNL     1      41.766  -9.576  -0.666  1.00  0.00     0.017 C 
BRANCH  13  14
HETATM   14  C   UNL     1      42.095  -8.647  -1.741  1.00  0.00    -0.036 A 
HETATM   15  C   UNL     1      43.099  -7.692  -1.560  1.00  0.00     0.014 A 
HETATM   16  C   UNL     1      43.340  -6.729  -2.544  1.00  0.00     0.037 A 
HETATM   17  C   UNL     1      42.560  -6.709  -3.699  1.00  0.00     0.068 A 
HETATM   18  C   UNL     1      41.594  -7.694  -3.907  1.00  0.00     0.037 A 
HETATM   19  C   UNL     1      41.355  -8.657  -2.928  1.00  0.00     0.014 A 
BRANCH  17  20
HETATM   20  O   UNL     1      42.725  -5.812  -4.715  1.00  0.00    -0.351 OA
BRANCH  20  21
HETATM   21  C   UNL     1      41.529  -5.378  -5.365  1.00  0.00     0.177 C 
BRANCH  21  22
HETATM   22  C   UNL     1      41.794  -5.400  -6.868  1.00  0.00     0.054 C 
BRANCH  22  23
HETATM   23  C   UNL     1      41.631  -6.815  -7.418  1.00  0.00     0.236 C 
BRANCH  23  24
HETATM   24  N   UNL     1      42.813  -7.210  -8.281  1.00  0.00    -0.079 N 
HETATM   25  H   UNL     1      43.076  -8.175  -8.038  1.00  0.00     0.278 HD
HETATM   26  C   UNL     1      42.505  -7.184  -9.756  1.00  0.00     0.269 C 
HETATM   27  C   UNL     1      44.011  -6.348  -7.973  1.00  0.00     0.269 C 
ENDBRANCH  23  24
ENDBRANCH  22  23
ENDBRANCH  21  22
ENDBRANCH  20  21
ENDBRANCH  17  20
ENDBRANCH  13  14
ENDBRANCH   9  12
ENDBRANCH   5   8
BRANCH   3  28
HETATM   28  N   UNL     1      42.963 -13.579   5.453  1.00  0.00    -0.188 N 
HETATM   29  H   UNL     1      43.824 -13.058   5.501  1.00  0.00     0.184 HD
BRANCH  28  30
HETATM   30  C   UNL     1      43.200 -14.884   5.878  1.00  0.00     0.727 A 
HETATM   31  N   UNL     1      43.259 -15.901   5.003  1.00  0.00    -0.062 NA
HETATM   32  C   UNL     1      43.500 -17.152   5.454  1.00  0.00     0.089 A 
HETATM   33  C   UNL     1      43.670 -17.386   6.804  1.00  0.00     0.053 A 
HETATM   34  C   UNL     1      43.566 -16.295   7.634  1.00  0.00     0.139 A 
HETATM   35  N   UNL     1      43.323 -15.048   7.201  1.00  0.00    -0.075 NA
BRANCH  32  36
HETATM   36  C   UNL     1      43.553 -18.206   4.414  1.00  0.00     0.011 A 
HETATM   37  C   UNL     1      43.955 -19.513   4.718  1.00  0.00     0.130 A 
HETATM   38  N   UNL     1      44.054 -20.540   3.828  1.00  0.00    -0.272 NA
HETATM   39  C   UNL     1      43.726 -20.266   2.553  1.00  0.00     0.116 A 
HETATM   40  C   UNL     1      43.307 -19.020   2.128  1.00  0.00     0.020 A 
HETATM   41  C   UNL     1      43.223 -17.988   3.066  1.00  0.00     0.017 A 
ENDBRANCH  32  36
ENDBRANCH  28  30
ENDBRANCH   3  28
TORSDOF 11
ENDMDL
MODEL 10
REMARK VINA RESULT:      -8.1      2.610      3.605
REMARK  11 active torsions:
REMARK  status: ('A' for Active; 'I' for Inactive)
REMARK    1  A    between atoms: C_3  and  N_4 
REMARK    2  A    between atoms: N_4  and  C_5 
REMARK    3  A    between atoms: C_7  and  C_8 
REMARK    4  A    between atoms: C_18  and  N_19 
REMARK       I    between atoms: N_19  and  C_20 
REMARK    5  A    between atoms: C_20  and  C_21 
REMARK    6  A    between atoms: C_22  and  C_23 
REMARK    7  A    between atoms: C_26  and  O_27 
REMARK    8  A    between atoms: O_27  and  C_28 
REMARK    9  A    between atoms: C_28  and  C_29 
REMARK   10  A    between atoms: C_29  and  C_30 
REMARK   11  A    between atoms: C_30  and  N_31 
ROOT
HETATM    1  C   UNL     1      41.245 -10.357   0.616  1.00  0.00     0.050 C 
HETATM    2  C   UNL     1      41.098 -10.221   2.108  1.00  0.00    -0.035 A 
HETATM    3  C   UNL     1      41.532 -11.231   2.995  1.00  0.00     0.057 A 
HETATM    4  C   UNL     1      41.409 -11.003   4.377  1.00  0.00     0.060 A 
HETATM    5  C   UNL     1      40.876  -9.818   4.888  1.00  0.00     0.037 A 
HETATM    6  C   UNL     1      40.460  -8.828   3.998  1.00  0.00     0.030 A 
HETATM    7  C   UNL     1      40.566  -9.027   2.622  1.00  0.00     0.011 A 
ENDROOT
BRANCH   5   8
HETATM    8  N   UNL     1      40.760  -9.539   6.265  1.00  0.00    -0.324 N 
HETATM    9  C   UNL     1      39.645  -9.701   7.063  1.00  0.00     0.245 C 
HETATM   10  O   UNL     1      38.513 -10.007   6.717  1.00  0.00    -0.268 OA
HETATM   11  H   UNL     1      41.600  -9.188   6.702  1.00  0.00     0.169 HD
BRANCH   9  12
HETATM   12  C   UNL     1      39.963  -9.427   8.490  1.00  0.00     0.075 C 
HETATM   13  C   UNL     1      41.213  -9.122   8.867  1.00  0.00     0.017 C 
BRANCH  13  14
HETATM   14  C   UNL     1      41.484  -8.842  10.274  1.00  0.00    -0.036 A 
HETATM   15  C   UNL     1      42.545  -8.007  10.630  1.00  0.00     0.014 A 
HETATM   16  C   UNL     1      42.877  -7.826  11.975  1.00  0.00     0.037 A 
HETATM   17  C   UNL     1      42.159  -8.501  12.962  1.00  0.00     0.068 A 
HETATM   18  C   UNL     1      41.065  -9.292  12.613  1.00  0.00     0.037 A 
HETATM   19  C   UNL     1      40.731  -9.470  11.271  1.00  0.00     0.014 A 
BRANCH  17  20
HETATM   20  O   UNL     1      42.407  -8.383  14.299  1.00  0.00    -0.351 OA
BRANCH  20  21
HETATM   21  C   UNL     1      41.260  -8.407  15.151  1.00  0.00     0.177 C 
BRANCH  21  22
HETATM   22  C   UNL     1      41.629  -7.663  16.433  1.00  0.00     0.054 C 
BRANCH  22  23
HETATM   23  C   UNL     1      40.816  -6.377  16.556  1.00  0.00     0.236 C 
BRANCH  23  24
HETATM   24  N   UNL     1      41.638  -5.164  16.166  1.00  0.00    -0.079 N 
HETATM   25  H   UNL     1      42.631  -5.430  16.195  1.00  0.00     0.278 HD
HETATM   26  C   UNL     1      41.343  -4.671  14.773  1.00  0.00     0.269 C 
HETATM   27  C   UNL     1      41.461  -4.054  17.171  1.00  0.00     0.269 C 
ENDBRANCH  23  24
ENDBRANCH  22  23
ENDBRANCH  21  22
ENDBRANCH  20  21
ENDBRANCH  17  20
ENDBRANCH  13  14
ENDBRANCH   9  12
ENDBRANCH   5   8
BRANCH   3  28
HETATM   28  N   UNL     1      42.150 -12.390   2.490  1.00  0.00    -0.188 N 
HETATM   29  H   UNL     1      42.937 -12.247   1.876  1.00  0.00     0.184 HD
BRANCH  28  30
HETATM   30  C   UNL     1      41.683 -13.693   2.329  1.00  0.00     0.727 A 
HETATM   31  N   UNL     1      42.393 -14.746   2.763  1.00  0.00    -0.062 NA
HETATM   32  C   UNL     1      41.901 -15.993   2.595  1.00  0.00     0.089 A 
HETATM   33  C   UNL     1      40.685 -16.185   1.970  1.00  0.00     0.053 A 
HETATM   34  C   UNL     1      40.037 -15.056   1.530  1.00  0.00     0.139 A 
HETATM   35  N   UNL     1      40.514 -13.812   1.685  1.00  0.00    -0.075 NA
BRANCH  32  36
HETATM   36  C   UNL     1      42.754 -17.090   3.111  1.00  0.00     0.011 A 
HETATM   37  C   UNL     1      43.317 -17.035   4.394  1.00  0.00     0.130 A 
HETATM   38  N   UNL     1      44.127 -17.982   4.945  1.00  0.00    -0.272 NA
HETATM   39  C   UNL     1      44.395 -19.060   4.187  1.00  0.00     0.116 A 
HETATM   40  C   UNL     1      43.895 -19.236   2.912  1.00  0.00     0.020 A 
HETATM   41  C   UNL     1      43.072 -18.243   2.375  1.00  0.00     0.017 A 
ENDBRANCH  32  36
ENDBRANCH  28  30
ENDBRANCH   3  28
TORSDOF 11
ENDMDL
