MODEL 1
REMARK VINA RESULT:      -9.0      0.000      0.000
REMARK  7 active torsions:
REMARK  status: ('A' for Active; 'I' for Inactive)
REMARK    1  A    between atoms: C_2  and  O_3 
REMARK    2  A    between atoms: O_3  and  C_4 
REMARK    3  A    between atoms: C_4  and  C_5 
REMARK    4  A    between atoms: C_8  and  N_9 
REMARK       I    between atoms: N_9  and  C_10 
REMARK    5  A    between atoms: C_10  and  C_11 
REMARK    6  A    between atoms: C_11  and  N_12 
REMARK    7  A    between atoms: C_18  and  C_19 
ROOT
HETATM    1  N   UNL     1      43.265 -12.181   5.479  1.00  0.00    -0.063 N 
HETATM    2  H   UNL     1      42.946 -13.163   5.373  1.00  0.00     0.280 HD
HETATM    3  C   UNL     1      44.403 -12.252   6.480  1.00  0.00     0.240 C 
HETATM    4  C   UNL     1      44.014 -11.631   7.807  1.00  0.00     0.083 C 
HETATM    5  C   UNL     1      43.506 -10.194   7.629  1.00  0.00     0.131 A 
HETATM    6  N   UNL     1      42.797  -9.830   8.882  1.00  0.00    -0.251 NA
HETATM    7  C   UNL     1      43.431  -8.808   9.398  1.00  0.00     0.132 A 
HETATM    8  C   UNL     1      44.583  -8.366   8.525  1.00  0.00     0.272 A 
HETATM    9  O   UNL     1      45.307  -7.411   8.664  1.00  0.00    -0.266 OA
HETATM   10  N   UNL     1      44.593  -9.270   7.509  1.00  0.00    -0.327 N 
HETATM   11  C   UNL     1      42.525 -10.036   6.457  1.00  0.00     0.083 C 
HETATM   12  C   UNL     1      42.071 -11.382   5.927  1.00  0.00     0.240 C 
HETATM   13  H   UNL     1      45.229  -9.137   6.733  1.00  0.00     0.165 HD
ENDROOT
BRANCH   1  14
HETATM   14  C   UNL     1      43.759 -11.833   4.054  1.00  0.00     0.337 C 
BRANCH  14  15
HETATM   15  C   UNL     1      42.589 -11.812   3.076  1.00  0.00     0.248 C 
HETATM   16  N   UNL     1      42.007 -12.943   2.597  1.00  0.00    -0.326 N 
HETATM   17  H   UNL     1      41.169 -12.728   2.060  1.00  0.00     0.169 HD
HETATM   18  O   UNL     1      42.120 -10.711   2.762  1.00  0.00    -0.271 OA
BRANCH  16  19
HETATM   19  C   UNL     1      42.317 -14.311   2.706  1.00  0.00     0.034 A 
HETATM   20  C   UNL     1      41.872 -15.163   3.715  1.00  0.00     0.030 A 
HETATM   21  C   UNL     1      42.239 -16.518   3.713  1.00  0.00     0.020 A 
HETATM   22  C   UNL     1      43.068 -17.039   2.712  1.00  0.00     0.039 A 
HETATM   23  C   UNL     1      43.540 -16.181   1.717  1.00  0.00     0.020 A 
HETATM   24  C   UNL     1      43.171 -14.830   1.721  1.00  0.00     0.030 A 
BRANCH  22  25
HETATM   25  C   UNL     1      43.417 -18.484   2.766  1.00  0.00     0.293 C 
HETATM   26  O   UNL     1      42.848 -19.327   2.092  1.00  0.00    -0.259 OA
BRANCH  25  27
HETATM   27  O   UNL     1      44.431 -18.697   3.638  1.00  0.00    -0.318 OA
BRANCH  27  28
HETATM   28  C   UNL     1      44.228 -19.755   4.590  1.00  0.00     0.174 C 
HETATM   29  C   UNL     1      43.642 -19.194   5.872  1.00  0.00     0.034 C 
ENDBRANCH  27  28
ENDBRANCH  25  27
ENDBRANCH  22  25
ENDBRANCH  16  19
ENDBRANCH  14  15
ENDBRANCH   1  14
BRANCH   7  30
HETATM   30  C   UNL     1      43.062  -8.173  10.679  1.00  0.00    -0.002 A 
HETATM   31  C   UNL     1      42.222  -7.053  10.743  1.00  0.00     0.016 A 
HETATM   32  C   UNL     1      41.915  -6.471  11.978  1.00  0.00     0.024 A 
HETATM   33  C   UNL     1      42.444  -7.003  13.151  1.00  0.00     0.034 A 
HETATM   34 CL   UNL     1      42.068  -6.281  14.664  1.00  0.00    -0.084 Cl
HETATM   35  C   UNL     1      43.283  -8.114  13.100  1.00  0.00     0.024 A 
HETATM   36  C   UNL     1      43.593  -8.696  11.867  1.00  0.00     0.016 A 
ENDBRANCH   7  30
TORSDOF 7
ENDMDL
MODEL 2
REMARK VINA RESULT:      -8.9      4.122     10.701
REMARK  7 active torsions:
REMARK  status: ('A' for Active; 'I' for Inactive)
REMARK    1  A    between atoms: C_2  and  O_3 
REMARK    2  A    between atoms: O_3  and  C_4 
REMARK    3  A    between atoms: C_4  and  C_5 
REMARK    4  A    between atoms: C_8  and  N_9 
REMARK       I    between atoms: N_9  and  C_10 
REMARK    5  A    between atoms: C_10  and  C_11 
REMARK    6  A    between atoms: C_11  and  N_12 
REMARK    7  A    between atoms: C_18  and  C_19 
ROOT
HETATM    1  N   UNL     1      42.928 -10.239   6.314  1.00  0.00    -0.063 N 
HETATM    2  H   UNL     1      43.616  -9.476   6.165  1.00  0.00     0.280 HD
HETATM    3  C   UNL     1      43.651 -11.240   7.194  1.00  0.00     0.240 C 
HETATM    4  C   UNL     1      43.982 -12.510   6.433  1.00  0.00     0.083 C 
HETATM    5  C   UNL     1      42.732 -13.122   5.787  1.00  0.00     0.131 A 
HETATM    6  N   UNL     1      43.206 -14.094   4.769  1.00  0.00    -0.251 NA
HETATM    7  C   UNL     1      42.755 -15.270   5.124  1.00  0.00     0.132 A 
HETATM    8  C   UNL     1      41.907 -15.190   6.372  1.00  0.00     0.272 A 
HETATM    9  O   UNL     1      41.275 -16.067   6.908  1.00  0.00    -0.266 OA
HETATM   10  N   UNL     1      41.977 -13.882   6.736  1.00  0.00    -0.327 N 
HETATM   11  C   UNL     1      41.841 -12.085   5.084  1.00  0.00     0.083 C 
HETATM   12  C   UNL     1      42.543 -10.748   4.951  1.00  0.00     0.240 C 
HETATM   13  H   UNL     1      41.410 -13.550   7.506  1.00  0.00     0.165 HD
ENDROOT
BRANCH   1  14
HETATM   14  C   UNL     1      41.784  -9.517   7.065  1.00  0.00     0.337 C 
BRANCH  14  15
HETATM   15  C   UNL     1      41.928  -8.004   6.926  1.00  0.00     0.248 C 
HETATM   16  N   UNL     1      42.294  -7.199   7.957  1.00  0.00    -0.326 N 
HETATM   17  H   UNL     1      42.457  -6.245   7.642  1.00  0.00     0.169 HD
HETATM   18  O   UNL     1      41.760  -7.511   5.803  1.00  0.00    -0.271 OA
BRANCH  16  19
HETATM   19  C   UNL     1      42.501  -7.421   9.331  1.00  0.00     0.034 A 
HETATM   20  C   UNL     1      43.341  -8.391   9.877  1.00  0.00     0.030 A 
HETATM   21  C   UNL     1      43.475  -8.511  11.269  1.00  0.00     0.020 A 
HETATM   22  C   UNL     1      42.762  -7.676  12.137  1.00  0.00     0.039 A 
HETATM   23  C   UNL     1      41.898  -6.723  11.594  1.00  0.00     0.020 A 
HETATM   24  C   UNL     1      41.766  -6.605  10.205  1.00  0.00     0.030 A 
BRANCH  22  25
HETATM   25  C   UNL     1      42.953  -7.852  13.602  1.00  0.00     0.293 C 
HETATM   26  O   UNL     1      43.510  -7.022  14.301  1.00  0.00    -0.259 OA
BRANCH  25  27
HETATM   27  O   UNL     1      42.421  -9.028  14.013  1.00  0.00    -0.318 OA
BRANCH  27  28
HETATM   28  C   UNL     1      41.004  -9.024  14.258  1.00  0.00     0.174 C 
HETATM   29  C   UNL     1      40.316 -10.017  13.341  1.00  0.00     0.034 C 
ENDBRANCH  27  28
ENDBRANCH  25  27
ENDBRANCH  22  25
ENDBRANCH  16  19
ENDBRANCH  14  15
ENDBRANCH   1  14
BRANCH   7  30
HETATM   30  C   UNL     1      43.047 -16.518   4.391  1.00  0.00    -0.002 A 
HETATM   31  C   UNL     1      43.958 -17.469   4.867  1.00  0.00     0.016 A 
HETATM   32  C   UNL     1      44.219 -18.629   4.129  1.00  0.00     0.024 A 
HETATM   33  C   UNL     1      43.574 -18.842   2.914  1.00  0.00     0.034 A 
HETATM   34 CL   UNL     1      43.901 -20.265   2.008  1.00  0.00    -0.084 Cl
HETATM   35  C   UNL     1      42.668 -17.902   2.427  1.00  0.00     0.024 A 
HETATM   36  C   UNL     1      42.407 -16.742   3.162  1.00  0.00     0.016 A 
ENDBRANCH   7  30
TORSDOF 7
ENDMDL
MODEL 3
REMARK VINA RESULT:      -8.8      1.694      2.568
REMARK  7 active torsions:
REMARK  status: ('A' for Active; 'I' for Inactive)
REMARK    1  A    between atoms: C_2  and  O_3 
REMARK    2  A    between atoms: O_3  and  C_4 
REMARK    3  A    between atoms: C_4  and  C_5 
REMARK    4  A    between atoms: C_8  and  N_9 
REMARK       I    between atoms: N_9  and  C_10 
REMARK    5  A    between atoms: C_10  and  C_11 
REMARK    6  A    between atoms: C_11  and  N_12 
REMARK    7  A    between atoms: C_18  and  C_19 
ROOT
HETATM    1  N   UNL     1      40.918 -11.578   3.469  1.00  0.00    -0.063 N 
HETATM    2  H   UNL     1      39.953 -11.672   3.098  1.00  0.00     0.280 HD
HETATM    3  C   UNL     1      40.998 -12.594   4.591  1.00  0.00     0.240 C 
HETATM    4  C   UNL     1      41.062 -11.918   5.947  1.00  0.00     0.083 C 
HETATM    5  C   UNL     1      42.212 -10.904   6.018  1.00  0.00     0.131 A 
HETATM    6  N   UNL     1      41.950 -10.037   7.195  1.00  0.00    -0.251 NA
HETATM    7  C   UNL     1      42.955 -10.195   8.017  1.00  0.00     0.132 A 
HETATM    8  C   UNL     1      43.997 -11.134   7.454  1.00  0.00     0.272 A 
HETATM    9  O   UNL     1      45.075 -11.422   7.912  1.00  0.00    -0.266 OA
HETATM   10  N   UNL     1      43.461 -11.553   6.277  1.00  0.00    -0.327 N 
HETATM   11  C   UNL     1      42.310 -10.008   4.773  1.00  0.00     0.083 C 
HETATM   12  C   UNL     1      41.083 -10.144   3.892  1.00  0.00     0.240 C 
HETATM   13  H   UNL     1      44.015 -12.132   5.657  1.00  0.00     0.165 HD
ENDROOT
BRANCH   1  14
HETATM   14  C   UNL     1      41.784 -11.981   2.251  1.00  0.00     0.337 C 
BRANCH  14  15
HETATM   15  C   UNL     1      40.963 -12.804   1.263  1.00  0.00     0.248 C 
HETATM   16  N   UNL     1      40.983 -14.163   1.240  1.00  0.00    -0.326 N 
HETATM   17  H   UNL     1      40.281 -14.532   0.601  1.00  0.00     0.169 HD
HETATM   18  O   UNL     1      40.205 -12.197   0.497  1.00  0.00    -0.271 OA
BRANCH  16  19
HETATM   19  C   UNL     1      41.748 -15.131   1.915  1.00  0.00     0.034 A 
HETATM   20  C   UNL     1      42.988 -15.617   1.500  1.00  0.00     0.030 A 
HETATM   21  C   UNL     1      43.665 -16.579   2.265  1.00  0.00     0.020 A 
HETATM   22  C   UNL     1      43.110 -17.082   3.447  1.00  0.00     0.039 A 
HETATM   23  C   UNL     1      41.855 -16.620   3.850  1.00  0.00     0.020 A 
HETATM   24  C   UNL     1      41.182 -15.660   3.086  1.00  0.00     0.030 A 
BRANCH  22  25
HETATM   25  C   UNL     1      43.881 -18.098   4.213  1.00  0.00     0.293 C 
HETATM   26  O   UNL     1      43.978 -18.075   5.429  1.00  0.00    -0.259 OA
BRANCH  25  27
HETATM   27  O   UNL     1      44.423 -19.015   3.377  1.00  0.00    -0.318 OA
BRANCH  27  28
HETATM   28  C   UNL     1      43.638 -20.197   3.148  1.00  0.00     0.174 C 
HETATM   29  C   UNL     1      43.528 -20.467   1.660  1.00  0.00     0.034 C 
ENDBRANCH  27  28
ENDBRANCH  25  27
ENDBRANCH  22  25
ENDBRANCH  16  19
ENDBRANCH  14  15
ENDBRANCH   1  14
BRANCH   7  30
HETATM   30  C   UNL     1      43.051  -9.534   9.335  1.00  0.00    -0.002 A 
HETATM   31  C   UNL     1      42.892  -8.151   9.490  1.00  0.00     0.016 A 
HETATM   32  C   UNL     1      43.011  -7.565  10.755  1.00  0.00     0.024 A 
HETATM   33  C   UNL     1      43.291  -8.355  11.867  1.00  0.00     0.034 A 
HETATM   34 CL   UNL     1      43.442  -7.630  13.417  1.00  0.00    -0.084 Cl
HETATM   35  C   UNL     1      43.455  -9.731  11.725  1.00  0.00     0.024 A 
HETATM   36  C   UNL     1      43.338 -10.319  10.462  1.00  0.00     0.016 A 
ENDBRANCH   7  30
TORSDOF 7
ENDMDL
MODEL 4
REMARK VINA RESULT:      -8.4      4.121     10.894
REMARK  7 active torsions:
REMARK  status: ('A' for Active; 'I' for Inactive)
REMARK    1  A    between atoms: C_2  and  O_3 
REMARK    2  A    between atoms: O_3  and  C_4 
REMARK    3  A    between atoms: C_4  and  C_5 
REMARK    4  A    between atoms: C_8  and  N_9 
REMARK       I    between atoms: N_9  and  C_10 
REMARK    5  A    between atoms: C_10  and  C_11 
REMARK    6  A    between atoms: C_11  and  N_12 
REMARK    7  A    between atoms: C_18  and  C_19 
ROOT
HETATM    1  N   UNL     1      42.906 -11.208   7.634  1.00  0.00    -0.063 N 
HETATM    2  H   UNL     1      42.473 -11.106   8.572  1.00  0.00     0.280 HD
HETATM    3  C   UNL     1      41.742 -11.489   6.703  1.00  0.00     0.240 C 
HETATM    4  C   UNL     1      41.768 -12.919   6.201  1.00  0.00     0.083 C 
HETATM    5  C   UNL     1      43.112 -13.263   5.546  1.00  0.00     0.131 A 
HETATM    6  N   UNL     1      43.181 -14.744   5.457  1.00  0.00    -0.251 NA
HETATM    7  C   UNL     1      43.269 -15.047   4.187  1.00  0.00     0.132 A 
HETATM    8  C   UNL     1      43.317 -13.810   3.319  1.00  0.00     0.272 A 
HETATM    9  O   UNL     1      43.484 -13.735   2.127  1.00  0.00    -0.266 OA
HETATM   10  N   UNL     1      43.172 -12.784   4.199  1.00  0.00    -0.327 N 
HETATM   11  C   UNL     1      44.325 -12.773   6.354  1.00  0.00     0.083 C 
HETATM   12  C   UNL     1      43.920 -12.314   7.741  1.00  0.00     0.240 C 
HETATM   13  H   UNL     1      43.260 -11.831   3.869  1.00  0.00     0.165 HD
ENDROOT
BRANCH   1  14
HETATM   14  C   UNL     1      43.522  -9.808   7.396  1.00  0.00     0.337 C 
BRANCH  14  15
HETATM   15  C   UNL     1      44.839  -9.671   8.153  1.00  0.00     0.248 C 
HETATM   16  N   UNL     1      44.904  -9.550   9.505  1.00  0.00    -0.326 N 
HETATM   17  H   UNL     1      45.867  -9.596   9.834  1.00  0.00     0.169 HD
HETATM   18  O   UNL     1      45.888  -9.736   7.500  1.00  0.00    -0.271 OA
BRANCH  16  19
HETATM   19  C   UNL     1      43.933  -9.393  10.510  1.00  0.00     0.034 A 
HETATM   20  C   UNL     1      43.464 -10.406  11.347  1.00  0.00     0.030 A 
HETATM   21  C   UNL     1      42.497 -10.126  12.325  1.00  0.00     0.020 A 
HETATM   22  C   UNL     1      41.972  -8.837  12.473  1.00  0.00     0.039 A 
HETATM   23  C   UNL     1      42.418  -7.828  11.617  1.00  0.00     0.020 A 
HETATM   24  C   UNL     1      43.383  -8.109  10.643  1.00  0.00     0.030 A 
BRANCH  22  25
HETATM   25  C   UNL     1      40.952  -8.606  13.532  1.00  0.00     0.293 C 
HETATM   26  O   UNL     1      39.841  -8.163  13.293  1.00  0.00    -0.259 OA
BRANCH  25  27
HETATM   27  O   UNL     1      41.436  -8.964  14.745  1.00  0.00    -0.318 OA
BRANCH  27  28
HETATM   28  C   UNL     1      41.290  -7.989  15.791  1.00  0.00     0.174 C 
HETATM   29  C   UNL     1      42.286  -6.863  15.594  1.00  0.00     0.034 C 
ENDBRANCH  27  28
ENDBRANCH  25  27
ENDBRANCH  22  25
ENDBRANCH  16  19
ENDBRANCH  14  15
ENDBRANCH   1  14
BRANCH   7  30
HETATM   30  C   UNL     1      43.314 -16.430   3.672  1.00  0.00    -0.002 A 
HETATM   31  C   UNL     1      42.582 -16.834   2.549  1.00  0.00     0.016 A 
HETATM   32  C   UNL     1      42.640 -18.161   2.108  1.00  0.00     0.024 A 
HETATM   33  C   UNL     1      43.426 -19.088   2.787  1.00  0.00     0.034 A 
HETATM   34 CL   UNL     1      43.489 -20.717   2.246  1.00  0.00    -0.084 Cl
HETATM   35  C   UNL     1      44.156 -18.700   3.908  1.00  0.00     0.024 A 
HETATM   36  C   UNL     1      44.099 -17.375   4.351  1.00  0.00     0.016 A 
ENDBRANCH   7  30
TORSDOF 7
ENDMDL
MODEL 5
REMARK VINA RESULT:      -8.1      4.273     10.897
REMARK  7 active torsions:
REMARK  status: ('A' for Active; 'I' for Inactive)
REMARK    1  A    between atoms: C_2  and  O_3 
REMARK    2  A    between atoms: O_3  and  C_4 
REMARK    3  A    between atoms: C_4  and  C_5 
REMARK    4  A    between atoms: C_8  and  N_9 
REMARK       I    between atoms: N_9  and  C_10 
REMARK    5  A    between atoms: C_10  and  C_11 
REMARK    6  A    between atoms: C_11  and  N_12 
REMARK    7  A    between atoms: C_18  and  C_19 
ROOT
HETATM    1  N   UNL     1      40.830 -10.032   5.659  1.00  0.00    -0.063 N 
HETATM    2  H   UNL     1      41.345  -9.152   5.465  1.00  0.00     0.280 HD
HETATM    3  C   UNL     1      41.735 -10.806   6.598  1.00  0.00     0.240 C 
HETATM    4  C   UNL     1      42.334 -12.020   5.915  1.00  0.00     0.083 C 
HETATM    5  C   UNL     1      41.250 -12.918   5.306  1.00  0.00     0.131 A 
HETATM    6  N   UNL     1      41.930 -13.827   4.349  1.00  0.00    -0.251 NA
HETATM    7  C   UNL     1      41.731 -15.048   4.773  1.00  0.00     0.132 A 
HETATM    8  C   UNL     1      40.868 -15.076   6.013  1.00  0.00     0.272 A 
HETATM    9  O   UNL     1      40.427 -16.033   6.601  1.00  0.00    -0.266 OA
HETATM   10  N   UNL     1      40.657 -13.763   6.298  1.00  0.00    -0.327 N 
HETATM   11  C   UNL     1      40.170 -12.135   4.542  1.00  0.00     0.083 C 
HETATM   12  C   UNL     1      40.578 -10.690   4.329  1.00  0.00     0.240 C 
HETATM   13  H   UNL     1      40.024 -13.513   7.047  1.00  0.00     0.165 HD
ENDROOT
BRANCH   1  14
HETATM   14  C   UNL     1      39.550  -9.524   6.365  1.00  0.00     0.337 C 
BRANCH  14  15
HETATM   15  C   UNL     1      39.110 -10.510   7.443  1.00  0.00     0.248 C 
HETATM   16  N   UNL     1      39.246 -10.260   8.771  1.00  0.00    -0.326 N 
HETATM   17  H   UNL     1      38.784 -10.974   9.331  1.00  0.00     0.169 HD
HETATM   18  O   UNL     1      38.550 -11.551   7.077  1.00  0.00    -0.271 OA
BRANCH  16  19
HETATM   19  C   UNL     1      39.868  -9.232   9.504  1.00  0.00     0.034 A 
HETATM   20  C   UNL     1      41.242  -9.089   9.691  1.00  0.00     0.030 A 
HETATM   21  C   UNL     1      41.749  -8.012  10.435  1.00  0.00     0.020 A 
HETATM   22  C   UNL     1      40.891  -7.071  11.017  1.00  0.00     0.039 A 
HETATM   23  C   UNL     1      39.513  -7.228  10.856  1.00  0.00     0.020 A 
HETATM   24  C   UNL     1      39.011  -8.302  10.112  1.00  0.00     0.030 A 
BRANCH  22  25
HETATM   25  C   UNL     1      41.492  -5.951  11.790  1.00  0.00     0.293 C 
HETATM   26  O   UNL     1      42.116  -5.044  11.264  1.00  0.00    -0.259 OA
BRANCH  25  27
HETATM   27  O   UNL     1      41.234  -6.093  13.112  1.00  0.00    -0.318 OA
BRANCH  27  28
HETATM   28  C   UNL     1      42.363  -5.954  13.991  1.00  0.00     0.174 C 
HETATM   29  C   UNL     1      43.107  -7.271  14.092  1.00  0.00     0.034 C 
ENDBRANCH  27  28
ENDBRANCH  25  27
ENDBRANCH  22  25
ENDBRANCH  16  19
ENDBRANCH  14  15
ENDBRANCH   1  14
BRANCH   7  30
HETATM   30  C   UNL     1      42.288 -16.248   4.116  1.00  0.00    -0.002 A 
HETATM   31  C   UNL     1      41.874 -16.664   2.844  1.00  0.00     0.016 A 
HETATM   32  C   UNL     1      42.415 -17.819   2.268  1.00  0.00     0.024 A 
HETATM   33  C   UNL     1      43.367 -18.562   2.960  1.00  0.00     0.034 A 
HETATM   34 CL   UNL     1      44.024 -19.983   2.251  1.00  0.00    -0.084 Cl
HETATM   35  C   UNL     1      43.785 -18.162   4.227  1.00  0.00     0.024 A 
HETATM   36  C   UNL     1      43.245 -17.009   4.805  1.00  0.00     0.016 A 
ENDBRANCH   7  30
TORSDOF 7
ENDMDL
MODEL 6
REMARK VINA RESULT:      -8.0      2.496      3.929
REMARK  7 active torsions:
REMARK  status: ('A' for Active; 'I' for Inactive)
REMARK    1  A    between atoms: C_2  and  O_3 
REMARK    2  A    between atoms: O_3  and  C_4 
REMARK    3  A    between atoms: C_4  and  C_5 
REMARK    4  A    between atoms: C_8  and  N_9 
REMARK       I    between atoms: N_9  and  C_10 
REMARK    5  A    between atoms: C_10  and  C_11 
REMARK    6  A    between atoms: C_11  and  N_12 
REMARK    7  A    between atoms: C_18  and  C_19 
ROOT
HETATM    1  N   UNL     1      40.630 -11.989   1.467  1.00  0.00    -0.063 N 
HETATM    2  H   UNL     1      39.877 -11.699   0.814  1.00  0.00     0.280 HD
HETATM    3  C   UNL     1      39.897 -12.508   2.690  1.00  0.00     0.240 C 
HETATM    4  C   UNL     1      40.064 -11.575   3.873  1.00  0.00     0.083 C 
HETATM    5  C   UNL     1      41.544 -11.303   4.173  1.00  0.00     0.131 A 
HETATM    6  N   UNL     1      41.593 -10.108   5.053  1.00  0.00    -0.251 NA
HETATM    7  C   UNL     1      42.146 -10.483   6.178  1.00  0.00     0.132 A 
HETATM    8  C   UNL     1      42.559 -11.936   6.140  1.00  0.00     0.272 A 
HETATM    9  O   UNL     1      43.168 -12.566   6.970  1.00  0.00    -0.266 OA
HETATM   10  N   UNL     1      42.125 -12.372   4.927  1.00  0.00    -0.327 N 
HETATM   11  C   UNL     1      42.376 -11.009   2.914  1.00  0.00     0.083 C 
HETATM   12  C   UNL     1      41.490 -10.779   1.705  1.00  0.00     0.240 C 
HETATM   13  H   UNL     1      42.363 -13.307   4.622  1.00  0.00     0.165 HD
ENDROOT
BRANCH   1  14
HETATM   14  C   UNL     1      41.335 -13.122   0.683  1.00  0.00     0.337 C 
BRANCH  14  15
HETATM   15  C   UNL     1      40.363 -14.266   0.411  1.00  0.00     0.248 C 
HETATM   16  N   UNL     1      40.343 -15.408   1.147  1.00  0.00    -0.326 N 
HETATM   17  H   UNL     1      39.549 -15.995   0.897  1.00  0.00     0.169 HD
HETATM   18  O   UNL     1      39.521 -14.107  -0.482  1.00  0.00    -0.271 OA
BRANCH  16  19
HETATM   19  C   UNL     1      41.170 -15.918   2.165  1.00  0.00     0.034 A 
HETATM   20  C   UNL     1      40.903 -15.853   3.532  1.00  0.00     0.030 A 
HETATM   21  C   UNL     1      41.801 -16.409   4.457  1.00  0.00     0.020 A 
HETATM   22  C   UNL     1      42.985 -17.023   4.033  1.00  0.00     0.039 A 
HETATM   23  C   UNL     1      43.270 -17.063   2.666  1.00  0.00     0.020 A 
HETATM   24  C   UNL     1      42.372 -16.509   1.746  1.00  0.00     0.030 A 
BRANCH  22  25
HETATM   25  C   UNL     1      43.892 -17.596   5.064  1.00  0.00     0.293 C 
HETATM   26  O   UNL     1      44.280 -18.752   5.034  1.00  0.00    -0.259 OA
BRANCH  25  27
HETATM   27  O   UNL     1      44.210 -16.661   5.991  1.00  0.00    -0.318 OA
BRANCH  27  28
HETATM   28  C   UNL     1      43.852 -16.975   7.347  1.00  0.00     0.174 C 
HETATM   29  C   UNL     1      43.054 -15.835   7.950  1.00  0.00     0.034 C 
ENDBRANCH  27  28
ENDBRANCH  25  27
ENDBRANCH  22  25
ENDBRANCH  16  19
ENDBRANCH  14  15
ENDBRANCH   1  14
BRANCH   7  30
HETATM   30  C   UNL     1      42.337  -9.590   7.338  1.00  0.00    -0.002 A 
HETATM   31  C   UNL     1      43.600  -9.118   7.718  1.00  0.00     0.016 A 
HETATM   32  C   UNL     1      43.737  -8.289   8.837  1.00  0.00     0.024 A 
HETATM   33  C   UNL     1      42.616  -7.931   9.580  1.00  0.00     0.034 A 
HETATM   34 CL   UNL     1      42.790  -6.917  10.957  1.00  0.00    -0.084 Cl
HETATM   35  C   UNL     1      41.355  -8.396   9.215  1.00  0.00     0.024 A 
HETATM   36  C   UNL     1      41.216  -9.226   8.099  1.00  0.00     0.016 A 
ENDBRANCH   7  30
TORSDOF 7
ENDMDL
MODEL 7
REMARK VINA RESULT:      -8.0      4.170      9.901
REMARK  7 active torsions:
REMARK  status: ('A' for Active; 'I' for Inactive)
REMARK    1  A    between atoms: C_2  and  O_3 
REMARK    2  A    between atoms: O_3  and  C_4 
REMARK    3  A    between atoms: C_4  and  C_5 
REMARK    4  A    between atoms: C_8  and  N_9 
REMARK       I    between atoms: N_9  and  C_10 
REMARK    5  A    between atoms: C_10  and  C_11 
REMARK    6  A    between atoms: C_11  and  N_12 
REMARK    7  A    between atoms: C_18  and  C_19 
ROOT
HETATM    1  N   UNL     1      39.193 -11.227   4.838  1.00  0.00    -0.063 N 
HETATM    2  H   UNL     1      38.204 -11.130   5.136  1.00  0.00     0.280 HD
HETATM    3  C   UNL     1      39.117 -11.779   3.427  1.00  0.00     0.240 C 
HETATM    4  C   UNL     1      39.592 -13.218   3.369  1.00  0.00     0.083 C 
HETATM    5  C   UNL     1      40.999 -13.372   3.961  1.00  0.00     0.131 A 
HETATM    6  N   UNL     1      41.202 -14.820   4.220  1.00  0.00    -0.251 NA
HETATM    7  C   UNL     1      42.217 -15.201   3.488  1.00  0.00     0.132 A 
HETATM    8  C   UNL     1      42.814 -14.047   2.716  1.00  0.00     0.272 A 
HETATM    9  O   UNL     1      43.803 -14.037   2.024  1.00  0.00    -0.266 OA
HETATM   10  N   UNL     1      42.005 -12.996   3.015  1.00  0.00    -0.327 N 
HETATM   11  C   UNL     1      41.187 -12.615   5.286  1.00  0.00     0.083 C 
HETATM   12  C   UNL     1      39.863 -12.127   5.840  1.00  0.00     0.240 C 
HETATM   13  H   UNL     1      42.250 -12.071   2.684  1.00  0.00     0.165 HD
ENDROOT
BRANCH   1  14
HETATM   14  C   UNL     1      39.697  -9.764   4.867  1.00  0.00     0.337 C 
BRANCH  14  15
HETATM   15  C   UNL     1      38.810  -8.914   5.771  1.00  0.00     0.248 C 
HETATM   16  N   UNL     1      39.265  -8.320   6.905  1.00  0.00    -0.326 N 
HETATM   17  H   UNL     1      38.564  -7.697   7.303  1.00  0.00     0.169 HD
HETATM   18  O   UNL     1      37.643  -8.714   5.409  1.00  0.00    -0.271 OA
BRANCH  16  19
HETATM   19  C   UNL     1      40.481  -8.384   7.609  1.00  0.00     0.034 A 
HETATM   20  C   UNL     1      41.625  -7.643   7.315  1.00  0.00     0.030 A 
HETATM   21  C   UNL     1      42.781  -7.783   8.099  1.00  0.00     0.020 A 
HETATM   22  C   UNL     1      42.818  -8.675   9.177  1.00  0.00     0.039 A 
HETATM   23  C   UNL     1      41.684  -9.440   9.456  1.00  0.00     0.020 A 
HETATM   24  C   UNL     1      40.531  -9.298   8.673  1.00  0.00     0.030 A 
BRANCH  22  25
HETATM   25  C   UNL     1      44.073  -8.774   9.970  1.00  0.00     0.293 C 
HETATM   26  O   UNL     1      44.093  -8.702  11.188  1.00  0.00    -0.259 OA
BRANCH  25  27
HETATM   27  O   UNL     1      45.138  -8.958   9.154  1.00  0.00    -0.318 OA
BRANCH  27  28
HETATM   28  C   UNL     1      45.491 -10.324   8.881  1.00  0.00     0.174 C 
HETATM   29  C   UNL     1      45.664 -10.526   7.387  1.00  0.00     0.034 C 
ENDBRANCH  27  28
ENDBRANCH  25  27
ENDBRANCH  22  25
ENDBRANCH  16  19
ENDBRANCH  14  15
ENDBRANCH   1  14
BRANCH   7  30
HETATM   30  C   UNL     1      42.712 -16.591   3.427  1.00  0.00    -0.002 A 
HETATM   31  C   UNL     1      42.501 -17.411   2.311  1.00  0.00     0.016 A 
HETATM   32  C   UNL     1      42.971 -18.730   2.305  1.00  0.00     0.024 A 
HETATM   33  C   UNL     1      43.649 -19.233   3.412  1.00  0.00     0.034 A 
HETATM   34 CL   UNL     1      44.218 -20.854   3.402  1.00  0.00    -0.084 Cl
HETATM   35  C   UNL     1      43.862 -18.429   4.529  1.00  0.00     0.024 A 
HETATM   36  C   UNL     1      43.392 -17.112   4.538  1.00  0.00     0.016 A 
ENDBRANCH   7  30
TORSDOF 7
ENDMDL
MODEL 8
REMARK VINA RESULT:      -7.9      2.558      3.109
REMARK  7 active torsions:
REMARK  status: ('A' for Active; 'I' for Inactive)
REMARK    1  A    between atoms: C_2  and  O_3 
REMARK    2  A    between atoms: O_3  and  C_4 
REMARK    3  A    between atoms: C_4  and  C_5 
REMARK    4  A    between atoms: C_8  and  N_9 
REMARK       I    between atoms: N_9  and  C_10 
REMARK    5  A    between atoms: C_10  and  C_11 
REMARK    6  A    between atoms: C_11  and  N_12 
REMARK    7  A    between atoms: C_18  and  C_19 
ROOT
HETATM    1  N   UNL     1      39.875 -12.834   3.629  1.00  0.00    -0.063 N 
HETATM    2  H   UNL     1      39.250 -13.611   3.341  1.00  0.00     0.280 HD
HETATM    3  C   UNL     1      40.544 -13.330   4.897  1.00  0.00     0.240 C 
HETATM    4  C   UNL     1      40.049 -12.576   6.116  1.00  0.00     0.083 C 
HETATM    5  C   UNL     1      40.211 -11.060   5.946  1.00  0.00     0.131 A 
HETATM    6  N   UNL     1      39.359 -10.418   6.979  1.00  0.00    -0.251 NA
HETATM    7  C   UNL     1      40.153  -9.721   7.751  1.00  0.00     0.132 A 
HETATM    8  C   UNL     1      41.588  -9.791   7.285  1.00  0.00     0.272 A 
HETATM    9  O   UNL     1      42.548  -9.200   7.716  1.00  0.00    -0.266 OA
HETATM   10  N   UNL     1      41.552 -10.646   6.229  1.00  0.00    -0.327 N 
HETATM   11  C   UNL     1      39.762 -10.551   4.567  1.00  0.00     0.083 C 
HETATM   12  C   UNL     1      39.005 -11.618   3.800  1.00  0.00     0.240 C 
HETATM   13  H   UNL     1      42.389 -10.793   5.679  1.00  0.00     0.165 HD
ENDROOT
BRANCH   1  14
HETATM   14  C   UNL     1      40.864 -12.742   2.442  1.00  0.00     0.337 C 
BRANCH  14  15
HETATM   15  C   UNL     1      42.270 -12.430   2.945  1.00  0.00     0.248 C 
HETATM   16  N   UNL     1      43.246 -13.371   3.038  1.00  0.00    -0.326 N 
HETATM   17  H   UNL     1      44.143 -12.950   3.272  1.00  0.00     0.169 HD
HETATM   18  O   UNL     1      42.537 -11.253   3.218  1.00  0.00    -0.271 OA
BRANCH  16  19
HETATM   19  C   UNL     1      43.264 -14.767   2.865  1.00  0.00     0.034 A 
HETATM   20  C   UNL     1      43.260 -15.430   1.638  1.00  0.00     0.030 A 
HETATM   21  C   UNL     1      43.290 -16.832   1.590  1.00  0.00     0.020 A 
HETATM   22  C   UNL     1      43.309 -17.594   2.764  1.00  0.00     0.039 A 
HETATM   23  C   UNL     1      43.283 -16.934   3.994  1.00  0.00     0.020 A 
HETATM   24  C   UNL     1      43.253 -15.535   4.039  1.00  0.00     0.030 A 
BRANCH  22  25
HETATM   25  C   UNL     1      43.345 -19.077   2.644  1.00  0.00     0.293 C 
HETATM   26  O   UNL     1      42.608 -19.697   1.895  1.00  0.00    -0.259 OA
BRANCH  25  27
HETATM   27  O   UNL     1      44.294 -19.598   3.457  1.00  0.00    -0.318 OA
BRANCH  27  28
HETATM   28  C   UNL     1      43.960 -20.843   4.094  1.00  0.00     0.174 C 
HETATM   29  C   UNL     1      43.880 -20.653   5.596  1.00  0.00     0.034 C 
ENDBRANCH  27  28
ENDBRANCH  25  27
ENDBRANCH  22  25
ENDBRANCH  16  19
ENDBRANCH  14  15
ENDBRANCH   1  14
BRANCH   7  30
HETATM   30  C   UNL     1      39.694  -8.964   8.933  1.00  0.00    -0.002 A 
HETATM   31  C   UNL     1      39.130  -7.686   8.829  1.00  0.00     0.016 A 
HETATM   32  C   UNL     1      38.727  -6.996   9.978  1.00  0.00     0.024 A 
HETATM   33  C   UNL     1      38.887  -7.579  11.233  1.00  0.00     0.034 A 
HETATM   34 CL   UNL     1      38.396  -6.726  12.641  1.00  0.00    -0.084 Cl
HETATM   35  C   UNL     1      39.449  -8.847  11.350  1.00  0.00     0.024 A 
HETATM   36  C   UNL     1      39.855  -9.538  10.203  1.00  0.00     0.016 A 
ENDBRANCH   7  30
TORSDOF 7
ENDMDL
MODEL 9
REMARK VINA RESULT:      -7.9      2.968      4.175
REMARK  7 active torsions:
REMARK  status: ('A' for Active; 'I' for Inactive)
REMARK    1  A    between atoms: C_2  and  O_3 
REMARK    2  A    between atoms: O_3  and  C_4 
REMARK    3  A    between atoms: C_4  and  C_5 
REMARK    4  A    between atoms: C_8  and  N_9 
REMARK       I    between atoms: N_9  and  C_10 
REMARK    5  A    between atoms: C_10  and  C_11 
REMARK    6  A    between atoms: C_11  and  N_12 
REMARK    7  A    between atoms: C_18  and  C_19 
ROOT
HETATM    1  N   UNL     1      40.906  -9.131   7.474  1.00  0.00    -0.063 N 
HETATM    2  H   UNL     1      40.889  -8.473   6.671  1.00  0.00     0.280 HD
HETATM    3  C   UNL     1      39.514  -9.044   8.070  1.00  0.00     0.240 C 
HETATM    4  C   UNL     1      39.532  -8.353   9.420  1.00  0.00     0.083 C 
HETATM    5  C   UNL     1      40.519  -9.023  10.383  1.00  0.00     0.131 A 
HETATM    6  N   UNL     1      40.754  -8.066  11.494  1.00  0.00    -0.251 NA
HETATM    7  C   UNL     1      40.352  -8.649  12.594  1.00  0.00     0.132 A 
HETATM    8  C   UNL     1      39.861 -10.055  12.334  1.00  0.00     0.272 A 
HETATM    9  O   UNL     1      39.509 -10.888  13.132  1.00  0.00    -0.266 OA
HETATM   10  N   UNL     1      39.949 -10.190  10.984  1.00  0.00    -0.327 N 
HETATM   11  C   UNL     1      41.875  -9.349   9.736  1.00  0.00     0.083 C 
HETATM   12  C   UNL     1      42.018  -8.683   8.381  1.00  0.00     0.240 C 
HETATM   13  H   UNL     1      39.757 -11.090  10.561  1.00  0.00     0.165 HD
ENDROOT
BRANCH   1  14
HETATM   14  C   UNL     1      41.163 -10.493   6.784  1.00  0.00     0.337 C 
BRANCH  14  15
HETATM   15  C   UNL     1      41.911 -10.290   5.470  1.00  0.00     0.248 C 
HETATM   16  N   UNL     1      42.568 -11.294   4.832  1.00  0.00    -0.326 N 
HETATM   17  H   UNL     1      42.896 -10.997   3.914  1.00  0.00     0.169 HD
HETATM   18  O   UNL     1      41.856  -9.172   4.942  1.00  0.00    -0.271 OA
BRANCH  16  19
HETATM   19  C   UNL     1      42.862 -12.627   5.172  1.00  0.00     0.034 A 
HETATM   20  C   UNL     1      43.475 -13.044   6.354  1.00  0.00     0.030 A 
HETATM   21  C   UNL     1      43.709 -14.408   6.588  1.00  0.00     0.020 A 
HETATM   22  C   UNL     1      43.349 -15.375   5.642  1.00  0.00     0.039 A 
HETATM   23  C   UNL     1      42.763 -14.958   4.445  1.00  0.00     0.020 A 
HETATM   24  C   UNL     1      42.530 -13.597   4.214  1.00  0.00     0.030 A 
BRANCH  22  25
HETATM   25  C   UNL     1      43.622 -16.804   5.953  1.00  0.00     0.293 C 
HETATM   26  O   UNL     1      42.982 -17.434   6.779  1.00  0.00    -0.259 OA
BRANCH  25  27
HETATM   27  O   UNL     1      44.643 -17.270   5.196  1.00  0.00    -0.318 OA
BRANCH  27  28
HETATM   28  C   UNL     1      44.420 -18.536   4.553  1.00  0.00     0.174 C 
HETATM   29  C   UNL     1      43.651 -18.334   3.261  1.00  0.00     0.034 C 
ENDBRANCH  27  28
ENDBRANCH  25  27
ENDBRANCH  22  25
ENDBRANCH  16  19
ENDBRANCH  14  15
ENDBRANCH   1  14
BRANCH   7  30
HETATM   30  C   UNL     1      40.376  -8.006  13.923  1.00  0.00    -0.002 A 
HETATM   31  C   UNL     1      39.553  -6.917  14.241  1.00  0.00     0.016 A 
HETATM   32  C   UNL     1      39.624  -6.326  15.507  1.00  0.00     0.024 A 
HETATM   33  C   UNL     1      40.515  -6.816  16.458  1.00  0.00     0.034 A 
HETATM   34 CL   UNL     1      40.601  -6.083  18.009  1.00  0.00    -0.084 Cl
HETATM   35  C   UNL     1      41.340  -7.896  16.153  1.00  0.00     0.024 A 
HETATM   36  C   UNL     1      41.273  -8.488  14.888  1.00  0.00     0.016 A 
ENDBRANCH   7  30
TORSDOF 7
ENDMDL
MODEL 10
REMARK VINA RESULT:      -7.7     18.979     22.977
REMARK  7 active torsions:
REMARK  status: ('A' for Active; 'I' for Inactive)
REMARK    1  A    between atoms: C_2  and  O_3 
REMARK    2  A    between atoms: O_3  and  C_4 
REMARK    3  A    between atoms: C_4  and  C_5 
REMARK    4  A    between atoms: C_8  and  N_9 
REMARK       I    between atoms: N_9  and  C_10 
REMARK    5  A    between atoms: C_10  and  C_11 
REMARK    6  A    between atoms: C_11  and  N_12 
REMARK    7  A    between atoms: C_18  and  C_19 
ROOT
HETATM    1  N   UNL     1      48.624 -29.389   0.910  1.00  0.00    -0.063 N 
HETATM    2  H   UNL     1      48.641 -28.473   1.398  1.00  0.00     0.280 HD
HETATM    3  C   UNL     1      49.644 -30.235   1.647  1.00  0.00     0.240 C 
HETATM    4  C   UNL     1      50.872 -30.490   0.794  1.00  0.00     0.083 C 
HETATM    5  C   UNL     1      50.499 -31.105  -0.561  1.00  0.00     0.131 A 
HETATM    6  N   UNL     1      51.681 -30.946  -1.447  1.00  0.00    -0.251 NA
HETATM    7  C   UNL     1      52.070 -32.148  -1.785  1.00  0.00     0.132 A 
HETATM    8  C   UNL     1      51.167 -33.212  -1.206  1.00  0.00     0.272 A 
HETATM    9  O   UNL     1      51.192 -34.403  -1.395  1.00  0.00    -0.266 OA
HETATM   10  N   UNL     1      50.279 -32.515  -0.449  1.00  0.00    -0.327 N 
HETATM   11  C   UNL     1      49.299 -30.417  -1.232  1.00  0.00     0.083 C 
HETATM   12  C   UNL     1      48.942 -29.119  -0.535  1.00  0.00     0.240 C 
HETATM   13  H   UNL     1      49.503 -33.002  -0.019  1.00  0.00     0.165 HD
ENDROOT
BRANCH   1  14
HETATM   14  C   UNL     1      47.174 -29.872   1.158  1.00  0.00     0.337 C 
BRANCH  14  15
HETATM   15  C   UNL     1      46.217 -28.685   1.200  1.00  0.00     0.248 C 
HETATM   16  N   UNL     1      45.345 -28.405   0.197  1.00  0.00    -0.326 N 
HETATM   17  H   UNL     1      44.708 -27.654   0.459  1.00  0.00     0.169 HD
HETATM   18  O   UNL     1      46.204 -27.991   2.225  1.00  0.00    -0.271 OA
BRANCH  16  19
HETATM   19  C   UNL     1      45.143 -28.941  -1.088  1.00  0.00     0.034 A 
HETATM   20  C   UNL     1      44.510 -30.151  -1.370  1.00  0.00     0.030 A 
HETATM   21  C   UNL     1      44.357 -30.579  -2.698  1.00  0.00     0.020 A 
HETATM   22  C   UNL     1      44.847 -29.813  -3.764  1.00  0.00     0.039 A 
HETATM   23  C   UNL     1      45.508 -28.616  -3.483  1.00  0.00     0.020 A 
HETATM   24  C   UNL     1      45.658 -28.191  -2.157  1.00  0.00     0.030 A 
BRANCH  22  25
HETATM   25  C   UNL     1      44.649 -30.322  -5.148  1.00  0.00     0.293 C 
HETATM   26  O   UNL     1      43.565 -30.313  -5.707  1.00  0.00    -0.259 OA
BRANCH  25  27
HETATM   27  O   UNL     1      45.820 -30.765  -5.664  1.00  0.00    -0.318 OA
BRANCH  27  28
HETATM   28  C   UNL     1      45.794 -32.083  -6.239  1.00  0.00     0.174 C 
HETATM   29  C   UNL     1      46.124 -33.117  -5.180  1.00  0.00     0.034 C 
ENDBRANCH  27  28
ENDBRANCH  25  27
ENDBRANCH  22  25
ENDBRANCH  16  19
ENDBRANCH  14  15
ENDBRANCH   1  14
BRANCH   7  30
HETATM   30  C   UNL     1      53.250 -32.423  -2.630  1.00  0.00    -0.002 A 
HETATM   31  C   UNL     1      53.247 -32.202  -4.013  1.00  0.00     0.016 A 
HETATM   32  C   UNL     1      54.382 -32.496  -4.777  1.00  0.00     0.024 A 
HETATM   33  C   UNL     1      55.521 -33.011  -4.164  1.00  0.00     0.034 A 
HETATM   34 CL   UNL     1      56.910 -33.375  -5.108  1.00  0.00    -0.084 Cl
HETATM   35  C   UNL     1      55.536 -33.238  -2.790  1.00  0.00     0.024 A 
HETATM   36  C   UNL     1      54.402 -32.948  -2.025  1.00  0.00     0.016 A 
ENDBRANCH   7  30
TORSDOF 7
ENDMDL
