MODEL 1
REMARK VINA RESULT:      -8.8      0.000      0.000
REMARK  6 active torsions:
REMARK  status: ('A' for Active; 'I' for Inactive)
REMARK    1  A    between atoms: C_7  and  C_8 
REMARK    2  A    between atoms: N_9  and  N_10 
REMARK       I    between atoms: N_10  and  C_11 
REMARK    3  A    between atoms: C_11  and  C_12 
REMARK    4  A    between atoms: C_12  and  N_13 
REMARK       I    between atoms: N_13  and  C_14 
REMARK    5  A    between atoms: C_14  and  C_15 
REMARK    6  A    between atoms: C_16  and  O_17 
ROOT
HETATM    1  N   UNL     1      41.201 -14.362   2.224  1.00  0.00    -0.246 N 
HETATM    2  C   UNL     1      40.317 -14.709   1.216  1.00  0.00     0.255 C 
HETATM    3  O   UNL     1      39.845 -15.836   1.054  1.00  0.00    -0.270 OA
HETATM    4  H   UNL     1      41.590 -13.424   2.279  1.00  0.00     0.192 HD
ENDROOT
BRANCH   1   5
HETATM    5  N   UNL     1      41.617 -15.325   3.095  1.00  0.00    -0.184 NA
HETATM    6  C   UNL     1      42.831 -15.748   2.955  1.00  0.00     0.153 C 
BRANCH   6   7
HETATM    7  C   UNL     1      43.326 -16.800   3.825  1.00  0.00     0.018 A 
HETATM    8  C   UNL     1      43.722 -16.667   5.152  1.00  0.00     0.018 A 
HETATM    9  C   UNL     1      43.776 -15.476   6.044  1.00  0.00     0.069 C 
HETATM   10  N   UNL     1      44.098 -17.907   5.604  1.00  0.00    -0.358 N 
HETATM   11  H   UNL     1      44.426 -18.107   6.537  1.00  0.00     0.166 HD
HETATM   12  C   UNL     1      43.952 -18.849   4.615  1.00  0.00     0.043 A 
HETATM   13  C   UNL     1      43.476 -18.185   3.483  1.00  0.00     0.004 A 
HETATM   14  C   UNL     1      44.198 -20.226   4.644  1.00  0.00     0.030 A 
HETATM   15  C   UNL     1      43.231 -18.947   2.319  1.00  0.00     0.014 A 
HETATM   16  C   UNL     1      43.469 -20.327   2.332  1.00  0.00     0.001 A 
HETATM   17  C   UNL     1      43.946 -20.955   3.479  1.00  0.00     0.002 A 
ENDBRANCH   6   7
ENDBRANCH   1   5
BRANCH   2  18
HETATM   18  C   UNL     1      40.106 -13.630   0.154  1.00  0.00     0.227 C 
BRANCH  18  19
HETATM   19  N   UNL     1      40.668 -13.891  -1.165  1.00  0.00    -0.348 N 
HETATM   20  C   UNL     1      40.271 -13.458  -2.401  1.00  0.00     0.254 C 
HETATM   21  O   UNL     1      40.944 -13.724  -3.391  1.00  0.00    -0.268 OA
HETATM   22  H   UNL     1      41.524 -14.435  -1.196  1.00  0.00     0.163 HD
BRANCH  20  23
HETATM   23  C   UNL     1      39.005 -12.717  -2.553  1.00  0.00     0.065 A 
HETATM   24  C   UNL     1      39.006 -11.323  -2.432  1.00  0.00     0.084 A 
HETATM   25  C   UNL     1      37.820 -10.603  -2.583  1.00  0.00     0.038 A 
HETATM   26  C   UNL     1      36.625 -11.286  -2.813  1.00  0.00     0.003 A 
HETATM   27  C   UNL     1      36.615 -12.680  -2.895  1.00  0.00     0.001 A 
HETATM   28  C   UNL     1      37.804 -13.400  -2.757  1.00  0.00     0.020 A 
BRANCH  24  29
HETATM   29  O   UNL     1      40.178 -10.633  -2.257  1.00  0.00    -0.355 OA
HETATM   30  C   UNL     1      40.558 -10.009  -3.491  1.00  0.00     0.210 C 
ENDBRANCH  24  29
ENDBRANCH  20  23
ENDBRANCH  18  19
ENDBRANCH   2  18
TORSDOF 6
ENDMDL
MODEL 2
REMARK VINA RESULT:      -8.6      5.835      9.133
REMARK  6 active torsions:
REMARK  status: ('A' for Active; 'I' for Inactive)
REMARK    1  A    between atoms: C_7  and  C_8 
REMARK    2  A    between atoms: N_9  and  N_10 
REMARK       I    between atoms: N_10  and  C_11 
REMARK    3  A    between atoms: C_11  and  C_12 
REMARK    4  A    between atoms: C_12  and  N_13 
REMARK       I    between atoms: N_13  and  C_14 
REMARK    5  A    between atoms: C_14  and  C_15 
REMARK    6  A    between atoms: C_16  and  O_17 
ROOT
HETATM    1  N   UNL     1      43.431 -13.705   6.418  1.00  0.00    -0.246 N 
HETATM    2  C   UNL     1      43.707 -12.361   6.233  1.00  0.00     0.255 C 
HETATM    3  O   UNL     1      43.773 -11.803   5.137  1.00  0.00    -0.270 OA
HETATM    4  H   UNL     1      43.434 -14.118   7.347  1.00  0.00     0.192 HD
ENDROOT
BRANCH   1   5
HETATM    5  N   UNL     1      43.243 -14.495   5.322  1.00  0.00    -0.184 NA
HETATM    6  C   UNL     1      43.677 -15.710   5.403  1.00  0.00     0.153 C 
BRANCH   6   7
HETATM    7  C   UNL     1      43.543 -16.594   4.257  1.00  0.00     0.018 A 
HETATM    8  C   UNL     1      43.278 -16.222   2.944  1.00  0.00     0.018 A 
HETATM    9  C   UNL     1      43.048 -14.884   2.331  1.00  0.00     0.069 C 
HETATM   10  N   UNL     1      43.255 -17.362   2.181  1.00  0.00    -0.358 N 
HETATM   11  H   UNL     1      43.091 -17.389   1.186  1.00  0.00     0.166 HD
HETATM   12  C   UNL     1      43.505 -18.469   2.956  1.00  0.00     0.043 A 
HETATM   13  C   UNL     1      43.682 -18.022   4.266  1.00  0.00     0.004 A 
HETATM   14  C   UNL     1      43.592 -19.817   2.592  1.00  0.00     0.030 A 
HETATM   15  C   UNL     1      43.965 -18.981   5.263  1.00  0.00     0.014 A 
HETATM   16  C   UNL     1      44.059 -20.334   4.917  1.00  0.00     0.001 A 
HETATM   17  C   UNL     1      43.874 -20.744   3.599  1.00  0.00     0.002 A 
ENDBRANCH   6   7
ENDBRANCH   1   5
BRANCH   2  18
HETATM   18  C   UNL     1      44.142 -11.621   7.498  1.00  0.00     0.227 C 
BRANCH  18  19
HETATM   19  N   UNL     1      45.190 -10.620   7.343  1.00  0.00    -0.348 N 
HETATM   20  C   UNL     1      45.517  -9.547   8.128  1.00  0.00     0.254 C 
HETATM   21  O   UNL     1      46.506  -8.871   7.863  1.00  0.00    -0.268 OA
HETATM   22  H   UNL     1      45.830 -10.746   6.565  1.00  0.00     0.163 HD
BRANCH  20  23
HETATM   23  C   UNL     1      44.652  -9.170   9.260  1.00  0.00     0.065 A 
HETATM   24  C   UNL     1      43.695  -8.163   9.088  1.00  0.00     0.084 A 
HETATM   25  C   UNL     1      42.859  -7.799  10.144  1.00  0.00     0.038 A 
HETATM   26  C   UNL     1      43.011  -8.416  11.387  1.00  0.00     0.003 A 
HETATM   27  C   UNL     1      43.992  -9.394  11.572  1.00  0.00     0.001 A 
HETATM   28  C   UNL     1      44.820  -9.767  10.512  1.00  0.00     0.020 A 
BRANCH  24  29
HETATM   29  O   UNL     1      43.498  -7.582   7.861  1.00  0.00    -0.355 OA
HETATM   30  C   UNL     1      42.270  -8.060   7.295  1.00  0.00     0.210 C 
ENDBRANCH  24  29
ENDBRANCH  20  23
ENDBRANCH  18  19
ENDBRANCH   2  18
TORSDOF 6
ENDMDL
MODEL 3
REMARK VINA RESULT:      -8.6      6.118      9.314
REMARK  6 active torsions:
REMARK  status: ('A' for Active; 'I' for Inactive)
REMARK    1  A    between atoms: C_7  and  C_8 
REMARK    2  A    between atoms: N_9  and  N_10 
REMARK       I    between atoms: N_10  and  C_11 
REMARK    3  A    between atoms: C_11  and  C_12 
REMARK    4  A    between atoms: C_12  and  N_13 
REMARK       I    between atoms: N_13  and  C_14 
REMARK    5  A    between atoms: C_14  and  C_15 
REMARK    6  A    between atoms: C_16  and  O_17 
ROOT
HETATM    1  N   UNL     1      42.659 -12.609   5.932  1.00  0.00    -0.246 N 
HETATM    2  C   UNL     1      43.478 -11.498   5.823  1.00  0.00     0.255 C 
HETATM    3  O   UNL     1      44.124 -11.199   4.817  1.00  0.00    -0.270 OA
HETATM    4  H   UNL     1      42.186 -12.827   6.805  1.00  0.00     0.192 HD
ENDROOT
BRANCH   1   5
HETATM    5  N   UNL     1      42.566 -13.465   4.874  1.00  0.00    -0.184 NA
HETATM    6  C   UNL     1      42.090 -14.641   5.120  1.00  0.00     0.153 C 
BRANCH   6   7
HETATM    7  C   UNL     1      41.999 -15.615   4.046  1.00  0.00     0.018 A 
HETATM    8  C   UNL     1      41.134 -15.576   2.957  1.00  0.00     0.018 A 
HETATM    9  C   UNL     1      40.081 -14.594   2.576  1.00  0.00     0.069 C 
HETATM   10  N   UNL     1      41.394 -16.673   2.175  1.00  0.00    -0.358 N 
HETATM   11  H   UNL     1      40.917 -16.896   1.314  1.00  0.00     0.166 HD
HETATM   12  C   UNL     1      42.409 -17.424   2.716  1.00  0.00     0.043 A 
HETATM   13  C   UNL     1      42.806 -16.791   3.895  1.00  0.00     0.004 A 
HETATM   14  C   UNL     1      43.001 -18.602   2.247  1.00  0.00     0.030 A 
HETATM   15  C   UNL     1      43.856 -17.371   4.641  1.00  0.00     0.014 A 
HETATM   16  C   UNL     1      44.462 -18.548   4.184  1.00  0.00     0.001 A 
HETATM   17  C   UNL     1      44.038 -19.153   3.004  1.00  0.00     0.002 A 
ENDBRANCH   6   7
ENDBRANCH   1   5
BRANCH   2  18
HETATM   18  C   UNL     1      43.706 -10.744   7.133  1.00  0.00     0.227 C 
BRANCH  18  19
HETATM   19  N   UNL     1      44.989 -10.069   7.284  1.00  0.00    -0.348 N 
HETATM   20  C   UNL     1      45.461  -9.275   8.296  1.00  0.00     0.254 C 
HETATM   21  O   UNL     1      46.619  -8.872   8.270  1.00  0.00    -0.268 OA
HETATM   22  H   UNL     1      45.683 -10.241   6.565  1.00  0.00     0.163 HD
BRANCH  20  23
HETATM   23  C   UNL     1      44.563  -8.859   9.388  1.00  0.00     0.065 A 
HETATM   24  C   UNL     1      43.684  -7.789   9.185  1.00  0.00     0.084 A 
HETATM   25  C   UNL     1      42.819  -7.387  10.203  1.00  0.00     0.038 A 
HETATM   26  C   UNL     1      42.863  -8.031  11.440  1.00  0.00     0.003 A 
HETATM   27  C   UNL     1      43.768  -9.074  11.658  1.00  0.00     0.001 A 
HETATM   28  C   UNL     1      44.625  -9.485  10.635  1.00  0.00     0.020 A 
BRANCH  24  29
HETATM   29  O   UNL     1      43.590  -7.178   7.961  1.00  0.00    -0.355 OA
HETATM   30  C   UNL     1      42.229  -7.208   7.511  1.00  0.00     0.210 C 
ENDBRANCH  24  29
ENDBRANCH  20  23
ENDBRANCH  18  19
ENDBRANCH   2  18
TORSDOF 6
ENDMDL
MODEL 4
REMARK VINA RESULT:      -8.3      5.934      9.385
REMARK  6 active torsions:
REMARK  status: ('A' for Active; 'I' for Inactive)
REMARK    1  A    between atoms: C_7  and  C_8 
REMARK    2  A    between atoms: N_9  and  N_10 
REMARK       I    between atoms: N_10  and  C_11 
REMARK    3  A    between atoms: C_11  and  C_12 
REMARK    4  A    between atoms: C_12  and  N_13 
REMARK       I    between atoms: N_13  and  C_14 
REMARK    5  A    between atoms: C_14  and  C_15 
REMARK    6  A    between atoms: C_16  and  O_17 
ROOT
HETATM    1  N   UNL     1      43.084 -13.478   6.385  1.00  0.00    -0.246 N 
HETATM    2  C   UNL     1      43.664 -12.236   6.186  1.00  0.00     0.255 C 
HETATM    3  O   UNL     1      43.996 -11.785   5.089  1.00  0.00    -0.270 OA
HETATM    4  H   UNL     1      42.872 -13.812   7.322  1.00  0.00     0.192 HD
ENDROOT
BRANCH   1   5
HETATM    5  N   UNL     1      42.883 -14.290   5.309  1.00  0.00    -0.184 NA
HETATM    6  C   UNL     1      43.611 -15.358   5.245  1.00  0.00     0.153 C 
BRANCH   6   7
HETATM    7  C   UNL     1      43.475 -16.248   4.105  1.00  0.00     0.018 A 
HETATM    8  C   UNL     1      43.187 -15.884   2.793  1.00  0.00     0.018 A 
HETATM    9  C   UNL     1      42.929 -14.553   2.179  1.00  0.00     0.069 C 
HETATM   10  N   UNL     1      43.171 -17.028   2.035  1.00  0.00    -0.358 N 
HETATM   11  H   UNL     1      42.994 -17.061   1.042  1.00  0.00     0.166 HD
HETATM   12  C   UNL     1      43.447 -18.128   2.811  1.00  0.00     0.043 A 
HETATM   13  C   UNL     1      43.636 -17.673   4.116  1.00  0.00     0.004 A 
HETATM   14  C   UNL     1      43.550 -19.476   2.451  1.00  0.00     0.030 A 
HETATM   15  C   UNL     1      43.946 -18.624   5.114  1.00  0.00     0.014 A 
HETATM   16  C   UNL     1      44.055 -19.977   4.771  1.00  0.00     0.001 A 
HETATM   17  C   UNL     1      43.858 -20.395   3.457  1.00  0.00     0.002 A 
ENDBRANCH   6   7
ENDBRANCH   1   5
BRANCH   2  18
HETATM   18  C   UNL     1      44.069 -11.510   7.469  1.00  0.00     0.227 C 
BRANCH  18  19
HETATM   19  N   UNL     1      45.307 -10.742   7.422  1.00  0.00    -0.348 N 
HETATM   20  C   UNL     1      45.680  -9.615   8.104  1.00  0.00     0.254 C 
HETATM   21  O   UNL     1      46.817  -9.172   7.984  1.00  0.00    -0.268 OA
HETATM   22  H   UNL     1      46.052 -11.111   6.839  1.00  0.00     0.163 HD
BRANCH  20  23
HETATM   23  C   UNL     1      44.699  -8.900   8.941  1.00  0.00     0.065 A 
HETATM   24  C   UNL     1      44.290  -9.464  10.155  1.00  0.00     0.084 A 
HETATM   25  C   UNL     1      43.371  -8.799  10.966  1.00  0.00     0.038 A 
HETATM   26  C   UNL     1      42.829  -7.585  10.540  1.00  0.00     0.003 A 
HETATM   27  C   UNL     1      43.205  -7.039   9.311  1.00  0.00     0.001 A 
HETATM   28  C   UNL     1      44.135  -7.699   8.504  1.00  0.00     0.020 A 
BRANCH  24  29
HETATM   29  O   UNL     1      44.851 -10.630  10.613  1.00  0.00    -0.355 OA
HETATM   30  C   UNL     1      44.006 -11.208  11.617  1.00  0.00     0.210 C 
ENDBRANCH  24  29
ENDBRANCH  20  23
ENDBRANCH  18  19
ENDBRANCH   2  18
TORSDOF 6
ENDMDL
MODEL 5
REMARK VINA RESULT:      -8.3      1.567      2.099
REMARK  6 active torsions:
REMARK  status: ('A' for Active; 'I' for Inactive)
REMARK    1  A    between atoms: C_7  and  C_8 
REMARK    2  A    between atoms: N_9  and  N_10 
REMARK       I    between atoms: N_10  and  C_11 
REMARK    3  A    between atoms: C_11  and  C_12 
REMARK    4  A    between atoms: C_12  and  N_13 
REMARK       I    between atoms: N_13  and  C_14 
REMARK    5  A    between atoms: C_14  and  C_15 
REMARK    6  A    between atoms: C_16  and  O_17 
ROOT
HETATM    1  N   UNL     1      41.930 -14.730   0.949  1.00  0.00    -0.246 N 
HETATM    2  C   UNL     1      40.591 -14.790   0.600  1.00  0.00     0.255 C 
HETATM    3  O   UNL     1      39.830 -15.712   0.899  1.00  0.00    -0.270 OA
HETATM    4  H   UNL     1      42.519 -13.963   0.635  1.00  0.00     0.192 HD
ENDROOT
BRANCH   1   5
HETATM    5  N   UNL     1      42.476 -15.766   1.648  1.00  0.00    -0.184 NA
HETATM    6  C   UNL     1      42.554 -15.621   2.931  1.00  0.00     0.153 C 
BRANCH   6   7
HETATM    7  C   UNL     1      43.159 -16.670   3.733  1.00  0.00     0.018 A 
HETATM    8  C   UNL     1      43.665 -16.547   5.023  1.00  0.00     0.018 A 
HETATM    9  C   UNL     1      43.755 -15.372   5.932  1.00  0.00     0.069 C 
HETATM   10  N   UNL     1      44.121 -17.781   5.413  1.00  0.00    -0.358 N 
HETATM   11  H   UNL     1      44.536 -17.987   6.310  1.00  0.00     0.166 HD
HETATM   12  C   UNL     1      43.922 -18.709   4.420  1.00  0.00     0.043 A 
HETATM   13  C   UNL     1      43.326 -18.042   3.349  1.00  0.00     0.004 A 
HETATM   14  C   UNL     1      44.217 -20.077   4.398  1.00  0.00     0.030 A 
HETATM   15  C   UNL     1      43.008 -18.791   2.194  1.00  0.00     0.014 A 
HETATM   16  C   UNL     1      43.294 -20.161   2.156  1.00  0.00     0.001 A 
HETATM   17  C   UNL     1      43.890 -20.792   3.244  1.00  0.00     0.002 A 
ENDBRANCH   6   7
ENDBRANCH   1   5
BRANCH   2  18
HETATM   18  C   UNL     1      40.140 -13.711  -0.384  1.00  0.00     0.227 C 
BRANCH  18  19
HETATM   19  N   UNL     1      38.933 -13.990  -1.152  1.00  0.00    -0.348 N 
HETATM   20  C   UNL     1      38.165 -13.165  -1.929  1.00  0.00     0.254 C 
HETATM   21  O   UNL     1      37.227 -13.624  -2.572  1.00  0.00    -0.268 OA
HETATM   22  H   UNL     1      38.621 -14.955  -1.178  1.00  0.00     0.163 HD
BRANCH  20  23
HETATM   23  C   UNL     1      38.428 -11.715  -1.951  1.00  0.00     0.065 A 
HETATM   24  C   UNL     1      37.939 -10.911  -0.914  1.00  0.00     0.084 A 
HETATM   25  C   UNL     1      38.187  -9.539  -0.911  1.00  0.00     0.038 A 
HETATM   26  C   UNL     1      38.891  -8.963  -1.970  1.00  0.00     0.003 A 
HETATM   27  C   UNL     1      39.346  -9.757  -3.026  1.00  0.00     0.001 A 
HETATM   28  C   UNL     1      39.109 -11.133  -3.023  1.00  0.00     0.020 A 
BRANCH  24  29
HETATM   29  O   UNL     1      37.291 -11.467   0.160  1.00  0.00    -0.355 OA
HETATM   30  C   UNL     1      37.991 -11.137   1.367  1.00  0.00     0.210 C 
ENDBRANCH  24  29
ENDBRANCH  20  23
ENDBRANCH  18  19
ENDBRANCH   2  18
TORSDOF 6
ENDMDL
MODEL 6
REMARK VINA RESULT:      -8.0      6.402      9.715
REMARK  6 active torsions:
REMARK  status: ('A' for Active; 'I' for Inactive)
REMARK    1  A    between atoms: C_7  and  C_8 
REMARK    2  A    between atoms: N_9  and  N_10 
REMARK       I    between atoms: N_10  and  C_11 
REMARK    3  A    between atoms: C_11  and  C_12 
REMARK    4  A    between atoms: C_12  and  N_13 
REMARK       I    between atoms: N_13  and  C_14 
REMARK    5  A    between atoms: C_14  and  C_15 
REMARK    6  A    between atoms: C_16  and  O_17 
ROOT
HETATM    1  N   UNL     1      43.462 -12.989   7.296  1.00  0.00    -0.246 N 
HETATM    2  C   UNL     1      43.964 -11.715   7.092  1.00  0.00     0.255 C 
HETATM    3  O   UNL     1      44.510 -11.334   6.055  1.00  0.00    -0.270 OA
HETATM    4  H   UNL     1      43.061 -13.257   8.191  1.00  0.00     0.192 HD
ENDROOT
BRANCH   1   5
HETATM    5  N   UNL     1      43.594 -13.915   6.303  1.00  0.00    -0.184 NA
HETATM    6  C   UNL     1      43.069 -15.076   6.522  1.00  0.00     0.153 C 
BRANCH   6   7
HETATM    7  C   UNL     1      43.205 -16.121   5.521  1.00  0.00     0.018 A 
HETATM    8  C   UNL     1      43.365 -17.483   5.755  1.00  0.00     0.018 A 
HETATM    9  C   UNL     1      43.457 -18.256   7.024  1.00  0.00     0.069 C 
HETATM   10  N   UNL     1      43.433 -18.112   4.537  1.00  0.00    -0.358 N 
HETATM   11  H   UNL     1      43.542 -19.107   4.405  1.00  0.00     0.166 HD
HETATM   12  C   UNL     1      43.314 -17.203   3.514  1.00  0.00     0.043 A 
HETATM   13  C   UNL     1      43.177 -15.943   4.098  1.00  0.00     0.004 A 
HETATM   14  C   UNL     1      43.310 -17.406   2.130  1.00  0.00     0.030 A 
HETATM   15  C   UNL     1      43.026 -14.827   3.245  1.00  0.00     0.014 A 
HETATM   16  C   UNL     1      43.017 -15.012   1.857  1.00  0.00     0.001 A 
HETATM   17  C   UNL     1      43.158 -16.285   1.310  1.00  0.00     0.002 A 
ENDBRANCH   6   7
ENDBRANCH   1   5
BRANCH   2  18
HETATM   18  C   UNL     1      43.988 -10.833   8.340  1.00  0.00     0.227 C 
BRANCH  18  19
HETATM   19  N   UNL     1      44.443  -9.459   8.162  1.00  0.00    -0.348 N 
HETATM   20  C   UNL     1      44.275  -8.357   8.957  1.00  0.00     0.254 C 
HETATM   21  O   UNL     1      44.822  -7.299   8.665  1.00  0.00    -0.268 OA
HETATM   22  H   UNL     1      45.028  -9.273   7.354  1.00  0.00     0.163 HD
BRANCH  20  23
HETATM   23  C   UNL     1      43.392  -8.425  10.135  1.00  0.00     0.065 A 
HETATM   24  C   UNL     1      42.015  -8.233   9.975  1.00  0.00     0.084 A 
HETATM   25  C   UNL     1      41.161  -8.304  11.076  1.00  0.00     0.038 A 
HETATM   26  C   UNL     1      41.693  -8.528  12.347  1.00  0.00     0.003 A 
HETATM   27  C   UNL     1      43.072  -8.681  12.515  1.00  0.00     0.001 A 
HETATM   28  C   UNL     1      43.925  -8.622  11.412  1.00  0.00     0.020 A 
BRANCH  24  29
HETATM   29  O   UNL     1      41.469  -8.064   8.727  1.00  0.00    -0.355 OA
HETATM   30  C   UNL     1      40.601  -9.165   8.429  1.00  0.00     0.210 C 
ENDBRANCH  24  29
ENDBRANCH  20  23
ENDBRANCH  18  19
ENDBRANCH   2  18
TORSDOF 6
ENDMDL
MODEL 7
REMARK VINA RESULT:      -7.9      1.969      2.562
REMARK  6 active torsions:
REMARK  status: ('A' for Active; 'I' for Inactive)
REMARK    1  A    between atoms: C_7  and  C_8 
REMARK    2  A    between atoms: N_9  and  N_10 
REMARK       I    between atoms: N_10  and  C_11 
REMARK    3  A    between atoms: C_11  and  C_12 
REMARK    4  A    between atoms: C_12  and  N_13 
REMARK       I    between atoms: N_13  and  C_14 
REMARK    5  A    between atoms: C_14  and  C_15 
REMARK    6  A    between atoms: C_16  and  O_17 
ROOT
HETATM    1  N   UNL     1      39.224 -14.142   2.323  1.00  0.00    -0.246 N 
HETATM    2  C   UNL     1      39.188 -12.759   2.387  1.00  0.00     0.255 C 
HETATM    3  O   UNL     1      39.927 -12.071   3.094  1.00  0.00    -0.270 OA
HETATM    4  H   UNL     1      38.558 -14.657   1.753  1.00  0.00     0.192 HD
ENDROOT
BRANCH   1   5
HETATM    5  N   UNL     1      40.111 -14.815   3.111  1.00  0.00    -0.184 NA
HETATM    6  C   UNL     1      41.318 -14.926   2.660  1.00  0.00     0.153 C 
BRANCH   6   7
HETATM    7  C   UNL     1      42.303 -15.663   3.431  1.00  0.00     0.018 A 
HETATM    8  C   UNL     1      42.956 -15.231   4.581  1.00  0.00     0.018 A 
HETATM    9  C   UNL     1      42.869 -13.949   5.334  1.00  0.00     0.069 C 
HETATM   10  N   UNL     1      43.785 -16.241   4.998  1.00  0.00    -0.358 N 
HETATM   11  H   UNL     1      44.377 -16.204   5.815  1.00  0.00     0.166 HD
HETATM   12  C   UNL     1      43.688 -17.325   4.159  1.00  0.00     0.043 A 
HETATM   13  C   UNL     1      42.772 -16.992   3.161  1.00  0.00     0.004 A 
HETATM   14  C   UNL     1      44.334 -18.565   4.219  1.00  0.00     0.030 A 
HETATM   15  C   UNL     1      42.488 -17.957   2.170  1.00  0.00     0.014 A 
HETATM   16  C   UNL     1      43.123 -19.204   2.215  1.00  0.00     0.001 A 
HETATM   17  C   UNL     1      44.034 -19.501   3.226  1.00  0.00     0.002 A 
ENDBRANCH   6   7
ENDBRANCH   1   5
BRANCH   2  18
HETATM   18  C   UNL     1      38.007 -12.118   1.660  1.00  0.00     0.227 C 
BRANCH  18  19
HETATM   19  N   UNL     1      38.303 -10.961   0.824  1.00  0.00    -0.348 N 
HETATM   20  C   UNL     1      38.492 -10.868  -0.529  1.00  0.00     0.254 C 
HETATM   21  O   UNL     1      38.644  -9.770  -1.054  1.00  0.00    -0.268 OA
HETATM   22  H   UNL     1      38.323 -10.058   1.286  1.00  0.00     0.163 HD
BRANCH  20  23
HETATM   23  C   UNL     1      38.568 -12.090  -1.350  1.00  0.00     0.065 A 
HETATM   24  C   UNL     1      39.792 -12.757  -1.479  1.00  0.00     0.084 A 
HETATM   25  C   UNL     1      39.883 -13.921  -2.242  1.00  0.00     0.038 A 
HETATM   26  C   UNL     1      38.754 -14.395  -2.911  1.00  0.00     0.003 A 
HETATM   27  C   UNL     1      37.540 -13.709  -2.817  1.00  0.00     0.001 A 
HETATM   28  C   UNL     1      37.446 -12.551  -2.043  1.00  0.00     0.020 A 
BRANCH  24  29
HETATM   29  O   UNL     1      40.899 -12.334  -0.786  1.00  0.00    -0.355 OA
HETATM   30  C   UNL     1      41.667 -11.443  -1.606  1.00  0.00     0.210 C 
ENDBRANCH  24  29
ENDBRANCH  20  23
ENDBRANCH  18  19
ENDBRANCH   2  18
TORSDOF 6
ENDMDL
MODEL 8
REMARK VINA RESULT:      -7.8      4.610      7.718
REMARK  6 active torsions:
REMARK  status: ('A' for Active; 'I' for Inactive)
REMARK    1  A    between atoms: C_7  and  C_8 
REMARK    2  A    between atoms: N_9  and  N_10 
REMARK       I    between atoms: N_10  and  C_11 
REMARK    3  A    between atoms: C_11  and  C_12 
REMARK    4  A    between atoms: C_12  and  N_13 
REMARK       I    between atoms: N_13  and  C_14 
REMARK    5  A    between atoms: C_14  and  C_15 
REMARK    6  A    between atoms: C_16  and  O_17 
ROOT
HETATM    1  N   UNL     1      40.316 -13.296   6.449  1.00  0.00    -0.246 N 
HETATM    2  C   UNL     1      39.606 -12.190   6.011  1.00  0.00     0.255 C 
HETATM    3  O   UNL     1      39.065 -12.096   4.908  1.00  0.00    -0.270 OA
HETATM    4  H   UNL     1      40.777 -13.296   7.356  1.00  0.00     0.192 HD
ENDROOT
BRANCH   1   5
HETATM    5  N   UNL     1      40.466 -14.358   5.607  1.00  0.00    -0.184 NA
HETATM    6  C   UNL     1      41.499 -14.339   4.830  1.00  0.00     0.153 C 
BRANCH   6   7
HETATM    7  C   UNL     1      41.699 -15.421   3.882  1.00  0.00     0.018 A 
HETATM    8  C   UNL     1      41.030 -15.608   2.677  1.00  0.00     0.018 A 
HETATM    9  C   UNL     1      39.952 -14.816   2.021  1.00  0.00     0.069 C 
HETATM   10  N   UNL     1      41.538 -16.736   2.085  1.00  0.00    -0.358 N 
HETATM   11  H   UNL     1      41.240 -17.107   1.195  1.00  0.00     0.166 HD
HETATM   12  C   UNL     1      42.525 -17.290   2.864  1.00  0.00     0.043 A 
HETATM   13  C   UNL     1      42.646 -16.492   4.002  1.00  0.00     0.004 A 
HETATM   14  C   UNL     1      43.316 -18.422   2.639  1.00  0.00     0.030 A 
HETATM   15  C   UNL     1      43.614 -16.850   4.966  1.00  0.00     0.014 A 
HETATM   16  C   UNL     1      44.416 -17.979   4.756  1.00  0.00     0.001 A 
HETATM   17  C   UNL     1      44.266 -18.753   3.608  1.00  0.00     0.002 A 
ENDBRANCH   6   7
ENDBRANCH   1   5
BRANCH   2  18
HETATM   18  C   UNL     1      39.703 -10.968   6.924  1.00  0.00     0.227 C 
BRANCH  18  19
HETATM   19  N   UNL     1      40.203  -9.739   6.321  1.00  0.00    -0.348 N 
HETATM   20  C   UNL     1      41.472  -9.383   5.951  1.00  0.00     0.254 C 
HETATM   21  O   UNL     1      41.668  -8.321   5.369  1.00  0.00    -0.268 OA
HETATM   22  H   UNL     1      39.511  -9.038   6.073  1.00  0.00     0.163 HD
BRANCH  20  23
HETATM   23  C   UNL     1      42.612 -10.249   6.301  1.00  0.00     0.065 A 
HETATM   24  C   UNL     1      43.120 -10.225   7.605  1.00  0.00     0.084 A 
HETATM   25  C   UNL     1      44.191 -11.044   7.959  1.00  0.00     0.038 A 
HETATM   26  C   UNL     1      44.783 -11.860   6.992  1.00  0.00     0.003 A 
HETATM   27  C   UNL     1      44.304 -11.856   5.680  1.00  0.00     0.001 A 
HETATM   28  C   UNL     1      43.223 -11.045   5.329  1.00  0.00     0.020 A 
BRANCH  24  29
HETATM   29  O   UNL     1      42.518  -9.469   8.579  1.00  0.00    -0.355 OA
HETATM   30  C   UNL     1      43.156  -9.715   9.840  1.00  0.00     0.210 C 
ENDBRANCH  24  29
ENDBRANCH  20  23
ENDBRANCH  18  19
ENDBRANCH   2  18
TORSDOF 6
ENDMDL
MODEL 9
REMARK VINA RESULT:      -7.8      5.640      9.122
REMARK  6 active torsions:
REMARK  status: ('A' for Active; 'I' for Inactive)
REMARK    1  A    between atoms: C_7  and  C_8 
REMARK    2  A    between atoms: N_9  and  N_10 
REMARK       I    between atoms: N_10  and  C_11 
REMARK    3  A    between atoms: C_11  and  C_12 
REMARK    4  A    between atoms: C_12  and  N_13 
REMARK       I    between atoms: N_13  and  C_14 
REMARK    5  A    between atoms: C_14  and  C_15 
REMARK    6  A    between atoms: C_16  and  O_17 
ROOT
HETATM    1  N   UNL     1      41.250 -12.345   6.308  1.00  0.00    -0.246 N 
HETATM    2  C   UNL     1      41.519 -11.009   6.059  1.00  0.00     0.255 C 
HETATM    3  O   UNL     1      42.130 -10.589   5.075  1.00  0.00    -0.270 OA
HETATM    4  H   UNL     1      40.779 -12.633   7.162  1.00  0.00     0.192 HD
ENDROOT
BRANCH   1   5
HETATM    5  N   UNL     1      41.707 -13.284   5.431  1.00  0.00    -0.184 NA
HETATM    6  C   UNL     1      40.905 -14.261   5.159  1.00  0.00     0.153 C 
BRANCH   6   7
HETATM    7  C   UNL     1      41.344 -15.315   4.261  1.00  0.00     0.018 A 
HETATM    8  C   UNL     1      40.829 -15.606   3.002  1.00  0.00     0.018 A 
HETATM    9  C   UNL     1      39.723 -14.979   2.226  1.00  0.00     0.069 C 
HETATM   10  N   UNL     1      41.543 -16.660   2.490  1.00  0.00    -0.358 N 
HETATM   11  H   UNL     1      41.388 -17.078   1.585  1.00  0.00     0.166 HD
HETATM   12  C   UNL     1      42.514 -17.062   3.374  1.00  0.00     0.043 A 
HETATM   13  C   UNL     1      42.412 -16.243   4.499  1.00  0.00     0.004 A 
HETATM   14  C   UNL     1      43.471 -18.077   3.254  1.00  0.00     0.030 A 
HETATM   15  C   UNL     1      43.320 -16.453   5.560  1.00  0.00     0.014 A 
HETATM   16  C   UNL     1      44.285 -17.462   5.456  1.00  0.00     0.001 A 
HETATM   17  C   UNL     1      44.357 -18.262   4.319  1.00  0.00     0.002 A 
ENDBRANCH   6   7
ENDBRANCH   1   5
BRANCH   2  18
HETATM   18  C   UNL     1      41.184 -10.066   7.214  1.00  0.00     0.227 C 
BRANCH  18  19
HETATM   19  N   UNL     1      41.618  -8.681   7.075  1.00  0.00    -0.348 N 
HETATM   20  C   UNL     1      42.592  -7.985   7.740  1.00  0.00     0.254 C 
HETATM   21  O   UNL     1      42.864  -6.837   7.404  1.00  0.00    -0.268 OA
HETATM   22  H   UNL     1      41.184  -8.139   6.335  1.00  0.00     0.163 HD
BRANCH  20  23
HETATM   23  C   UNL     1      43.276  -8.593   8.895  1.00  0.00     0.065 A 
HETATM   24  C   UNL     1      44.246  -9.578   8.680  1.00  0.00     0.084 A 
HETATM   25  C   UNL     1      44.912 -10.158   9.759  1.00  0.00     0.038 A 
HETATM   26  C   UNL     1      44.576  -9.780  11.060  1.00  0.00     0.003 A 
HETATM   27  C   UNL     1      43.580  -8.825  11.279  1.00  0.00     0.001 A 
HETATM   28  C   UNL     1      42.922  -8.235  10.199  1.00  0.00     0.020 A 
BRANCH  24  29
HETATM   29  O   UNL     1      44.625  -9.925   7.407  1.00  0.00    -0.355 OA
HETATM   30  C   UNL     1      45.041 -11.297   7.387  1.00  0.00     0.210 C 
ENDBRANCH  24  29
ENDBRANCH  20  23
ENDBRANCH  18  19
ENDBRANCH   2  18
TORSDOF 6
ENDMDL
MODEL 10
REMARK VINA RESULT:      -7.7      6.903     10.173
REMARK  6 active torsions:
REMARK  status: ('A' for Active; 'I' for Inactive)
REMARK    1  A    between atoms: C_7  and  C_8 
REMARK    2  A    between atoms: N_9  and  N_10 
REMARK       I    between atoms: N_10  and  C_11 
REMARK    3  A    between atoms: C_11  and  C_12 
REMARK    4  A    between atoms: C_12  and  N_13 
REMARK       I    between atoms: N_13  and  C_14 
REMARK    5  A    between atoms: C_14  and  C_15 
REMARK    6  A    between atoms: C_16  and  O_17 
ROOT
HETATM    1  N   UNL     1      43.298 -12.261   7.651  1.00  0.00    -0.246 N 
HETATM    2  C   UNL     1      44.194 -11.229   7.875  1.00  0.00     0.255 C 
HETATM    3  O   UNL     1      45.344 -11.191   7.434  1.00  0.00    -0.270 OA
HETATM    4  H   UNL     1      42.376 -12.256   8.080  1.00  0.00     0.192 HD
ENDROOT
BRANCH   1   5
HETATM    5  N   UNL     1      43.703 -13.337   6.917  1.00  0.00    -0.184 NA
HETATM    6  C   UNL     1      42.781 -13.983   6.280  1.00  0.00     0.153 C 
BRANCH   6   7
HETATM    7  C   UNL     1      43.138 -15.161   5.509  1.00  0.00     0.018 A 
HETATM    8  C   UNL     1      43.592 -16.378   6.007  1.00  0.00     0.018 A 
HETATM    9  C   UNL     1      43.854 -16.830   7.402  1.00  0.00     0.069 C 
HETATM   10  N   UNL     1      43.790 -17.220   4.942  1.00  0.00    -0.358 N 
HETATM   11  H   UNL     1      44.113 -18.174   5.011  1.00  0.00     0.166 HD
HETATM   12  C   UNL     1      43.472 -16.592   3.762  1.00  0.00     0.043 A 
HETATM   13  C   UNL     1      43.066 -15.296   4.082  1.00  0.00     0.004 A 
HETATM   14  C   UNL     1      43.508 -17.078   2.450  1.00  0.00     0.030 A 
HETATM   15  C   UNL     1      42.673 -14.442   3.028  1.00  0.00     0.014 A 
HETATM   16  C   UNL     1      42.700 -14.912   1.710  1.00  0.00     0.001 A 
HETATM   17  C   UNL     1      43.112 -16.212   1.427  1.00  0.00     0.002 A 
ENDBRANCH   6   7
ENDBRANCH   1   5
BRANCH   2  18
HETATM   18  C   UNL     1      43.733 -10.197   8.904  1.00  0.00     0.227 C 
BRANCH  18  19
HETATM   19  N   UNL     1      43.623 -10.654  10.284  1.00  0.00    -0.348 N 
HETATM   20  C   UNL     1      42.937 -10.123  11.344  1.00  0.00     0.254 C 
HETATM   21  O   UNL     1      42.902 -10.720  12.414  1.00  0.00    -0.268 OA
HETATM   22  H   UNL     1      44.073 -11.535  10.511  1.00  0.00     0.163 HD
BRANCH  20  23
HETATM   23  C   UNL     1      42.284  -8.808  11.216  1.00  0.00     0.065 A 
HETATM   24  C   UNL     1      40.915  -8.743  10.933  1.00  0.00     0.084 A 
HETATM   25  C   UNL     1      40.277  -7.508  10.819  1.00  0.00     0.038 A 
HETATM   26  C   UNL     1      41.021  -6.334  10.947  1.00  0.00     0.003 A 
HETATM   27  C   UNL     1      42.396  -6.395  11.190  1.00  0.00     0.001 A 
HETATM   28  C   UNL     1      43.032  -7.632  11.317  1.00  0.00     0.020 A 
BRANCH  24  29
HETATM   29  O   UNL     1      40.159  -9.886  10.855  1.00  0.00    -0.355 OA
HETATM   30  C   UNL     1      39.220  -9.768   9.778  1.00  0.00     0.210 C 
ENDBRANCH  24  29
ENDBRANCH  20  23
ENDBRANCH  18  19
ENDBRANCH   2  18
TORSDOF 6
ENDMDL
