MODEL 1
REMARK VINA RESULT:      -9.3      0.000      0.000
REMARK  2 active torsions:
REMARK  status: ('A' for Active; 'I' for Inactive)
REMARK    1  A    between atoms: C_4  and  C_18 
REMARK    2  A    between atoms: C_9  and  C_12 
ROOT
HETATM    1  O   UNL     1      43.878 -16.870   7.955  1.00  0.00    -0.267 OA
HETATM    2  C   UNL     1      43.614 -16.013   7.122  1.00  0.00     0.259 A 
HETATM    3  N   UNL     1      43.408 -14.701   7.457  1.00  0.00    -0.309 N 
HETATM    4  C   UNL     1      43.087 -13.726   6.545  1.00  0.00     0.137 A 
HETATM    5  N   UNL     1      42.983 -13.955   5.274  1.00  0.00    -0.232 NA
HETATM    6  C   UNL     1      43.173 -15.272   4.826  1.00  0.00     0.074 A 
HETATM    7  C   UNL     1      43.034 -15.547   3.467  1.00  0.00     0.033 A 
HETATM    8  C   UNL     1      43.213 -16.849   2.980  1.00  0.00     0.014 A 
HETATM    9  C   UNL     1      43.542 -17.901   3.847  1.00  0.00    -0.022 A 
HETATM   10  C   UNL     1      43.680 -17.629   5.214  1.00  0.00     0.031 A 
HETATM   11  C   UNL     1      43.494 -16.324   5.687  1.00  0.00     0.061 A 
HETATM   12  H   UNL     1      43.424 -14.474   8.443  1.00  0.00     0.170 HD
ENDROOT
BRANCH   4  13
HETATM   13  C   UNL     1      42.912 -12.317   7.101  1.00  0.00     0.198 C 
HETATM   14  C   UNL     1      42.591 -11.352   5.965  1.00  0.00     0.045 C 
HETATM   15  C   UNL     1      42.346  -9.971   6.558  1.00  0.00     0.044 C 
HETATM   16  C   UNL     1      43.389  -9.645   7.589  1.00  0.00    -0.025 A 
HETATM   17  C   UNL     1      43.531  -8.329   8.049  1.00  0.00     0.010 A 
HETATM   18  C   UNL     1      44.207 -10.645   8.129  1.00  0.00     0.076 A 
HETATM   19  C   UNL     1      44.492  -8.017   9.012  1.00  0.00     0.001 A 
HETATM   20  C   UNL     1      45.318  -9.016   9.524  1.00  0.00     0.003 A 
HETATM   21  C   UNL     1      45.177 -10.329   9.078  1.00  0.00     0.037 A 
HETATM   22  O   UNL     1      44.141 -11.959   7.747  1.00  0.00    -0.338 OA
ENDBRANCH   4  13
BRANCH   9  23
HETATM   23  C   UNL     1      43.722 -19.245   3.327  1.00  0.00     0.010 A 
HETATM   24  C   UNL     1      43.640 -19.745   2.005  1.00  0.00     0.152 A 
HETATM   25  N   UNL     1      43.893 -21.054   1.930  1.00  0.00    -0.187 NA
HETATM   26  N   UNL     1      44.136 -21.400   3.204  1.00  0.00    -0.289 N 
HETATM   27  H   UNL     1      44.361 -22.368   3.406  1.00  0.00     0.188 HD
HETATM   28  C   UNL     1      44.050 -20.354   4.078  1.00  0.00     0.123 A 
ENDBRANCH   9  23
TORSDOF 2
ENDMDL
MODEL 2
REMARK VINA RESULT:      -9.2      1.315      2.040
REMARK  2 active torsions:
REMARK  status: ('A' for Active; 'I' for Inactive)
REMARK    1  A    between atoms: C_4  and  C_18 
REMARK    2  A    between atoms: C_9  and  C_12 
ROOT
HETATM    1  O   UNL     1      42.314 -14.192   2.582  1.00  0.00    -0.267 OA
HETATM    2  C   UNL     1      42.629 -14.291   3.761  1.00  0.00     0.259 A 
HETATM    3  N   UNL     1      42.597 -13.227   4.622  1.00  0.00    -0.309 N 
HETATM    4  C   UNL     1      42.968 -13.307   5.941  1.00  0.00     0.137 A 
HETATM    5  N   UNL     1      43.353 -14.410   6.501  1.00  0.00    -0.232 NA
HETATM    6  C   UNL     1      43.423 -15.562   5.702  1.00  0.00     0.074 A 
HETATM    7  C   UNL     1      43.866 -16.753   6.275  1.00  0.00     0.033 A 
HETATM    8  C   UNL     1      43.954 -17.923   5.510  1.00  0.00     0.014 A 
HETATM    9  C   UNL     1      43.594 -17.925   4.155  1.00  0.00    -0.022 A 
HETATM   10  C   UNL     1      43.151 -16.730   3.574  1.00  0.00     0.031 A 
HETATM   11  C   UNL     1      43.073 -15.566   4.350  1.00  0.00     0.061 A 
HETATM   12  H   UNL     1      42.355 -12.327   4.227  1.00  0.00     0.170 HD
ENDROOT
BRANCH   4  13
HETATM   13  C   UNL     1      42.848 -12.021   6.752  1.00  0.00     0.198 C 
HETATM   14  C   UNL     1      42.219 -10.928   5.896  1.00  0.00     0.045 C 
HETATM   15  C   UNL     1      42.040  -9.683   6.753  1.00  0.00     0.044 C 
HETATM   16  C   UNL     1      43.273  -9.422   7.570  1.00  0.00    -0.025 A 
HETATM   17  C   UNL     1      43.444  -8.183   8.204  1.00  0.00     0.010 A 
HETATM   18  C   UNL     1      44.250 -10.412   7.739  1.00  0.00     0.076 A 
HETATM   19  C   UNL     1      44.583  -7.933   8.971  1.00  0.00     0.001 A 
HETATM   20  C   UNL     1      45.560  -8.918   9.112  1.00  0.00     0.003 A 
HETATM   21  C   UNL     1      45.394 -10.155   8.492  1.00  0.00     0.037 A 
HETATM   22  O   UNL     1      44.171 -11.652   7.164  1.00  0.00    -0.338 OA
ENDBRANCH   4  13
BRANCH   9  23
HETATM   23  C   UNL     1      43.693 -19.146   3.376  1.00  0.00     0.010 A 
HETATM   24  C   UNL     1      44.052 -20.461   3.757  1.00  0.00     0.152 A 
HETATM   25  N   UNL     1      44.006 -21.326   2.740  1.00  0.00    -0.187 NA
HETATM   26  N   UNL     1      43.617 -20.569   1.702  1.00  0.00    -0.289 N 
HETATM   27  H   UNL     1      43.506 -21.014   0.797  1.00  0.00     0.188 HD
HETATM   28  C   UNL     1      43.414 -19.260   2.030  1.00  0.00     0.123 A 
ENDBRANCH   9  23
TORSDOF 2
ENDMDL
MODEL 3
REMARK VINA RESULT:      -9.1      5.637      9.421
REMARK  2 active torsions:
REMARK  status: ('A' for Active; 'I' for Inactive)
REMARK    1  A    between atoms: C_4  and  C_18 
REMARK    2  A    between atoms: C_9  and  C_12 
ROOT
HETATM    1  O   UNL     1      42.055 -11.683   1.721  1.00  0.00    -0.267 OA
HETATM    2  C   UNL     1      41.643 -12.811   1.479  1.00  0.00     0.259 A 
HETATM    3  N   UNL     1      41.979 -13.896   2.244  1.00  0.00    -0.309 N 
HETATM    4  C   UNL     1      41.551 -15.173   1.980  1.00  0.00     0.137 A 
HETATM    5  N   UNL     1      40.759 -15.463   0.998  1.00  0.00    -0.232 NA
HETATM    6  C   UNL     1      40.355 -14.419   0.149  1.00  0.00     0.074 A 
HETATM    7  C   UNL     1      39.530 -14.713  -0.934  1.00  0.00     0.033 A 
HETATM    8  C   UNL     1      39.108 -13.700  -1.806  1.00  0.00     0.014 A 
HETATM    9  C   UNL     1      39.502 -12.370  -1.605  1.00  0.00    -0.022 A 
HETATM   10  C   UNL     1      40.335 -12.070  -0.520  1.00  0.00     0.031 A 
HETATM   11  C   UNL     1      40.752 -13.094   0.341  1.00  0.00     0.061 A 
HETATM   12  H   UNL     1      42.640 -13.737   2.995  1.00  0.00     0.170 HD
ENDROOT
BRANCH   4  13
HETATM   13  C   UNL     1      42.013 -16.251   2.953  1.00  0.00     0.198 C 
HETATM   14  C   UNL     1      43.170 -15.724   3.796  1.00  0.00     0.045 C 
HETATM   15  C   UNL     1      43.558 -16.792   4.809  1.00  0.00     0.044 C 
HETATM   16  C   UNL     1      43.620 -18.144   4.155  1.00  0.00    -0.025 A 
HETATM   17  C   UNL     1      44.233 -19.215   4.820  1.00  0.00     0.010 A 
HETATM   18  C   UNL     1      43.045 -18.364   2.898  1.00  0.00     0.076 A 
HETATM   19  C   UNL     1      44.291 -20.476   4.224  1.00  0.00     0.001 A 
HETATM   20  C   UNL     1      43.736 -20.677   2.960  1.00  0.00     0.003 A 
HETATM   21  C   UNL     1      43.117 -19.619   2.297  1.00  0.00     0.037 A 
HETATM   22  O   UNL     1      42.422 -17.383   2.173  1.00  0.00    -0.338 OA
ENDBRANCH   4  13
BRANCH   9  23
HETATM   23  C   UNL     1      39.058 -11.332  -2.519  1.00  0.00     0.010 A 
HETATM   24  C   UNL     1      39.789 -10.353  -3.233  1.00  0.00     0.152 A 
HETATM   25  N   UNL     1      39.011  -9.581  -3.997  1.00  0.00    -0.187 NA
HETATM   26  N   UNL     1      37.778 -10.062  -3.775  1.00  0.00    -0.289 N 
HETATM   27  H   UNL     1      36.998  -9.628  -4.258  1.00  0.00     0.188 HD
HETATM   28  C   UNL     1      37.752 -11.111  -2.903  1.00  0.00     0.123 A 
ENDBRANCH   9  23
TORSDOF 2
ENDMDL
MODEL 4
REMARK VINA RESULT:      -8.7      2.765      9.219
REMARK  2 active torsions:
REMARK  status: ('A' for Active; 'I' for Inactive)
REMARK    1  A    between atoms: C_4  and  C_18 
REMARK    2  A    between atoms: C_9  and  C_12 
ROOT
HETATM    1  O   UNL     1      39.763 -12.982   5.058  1.00  0.00    -0.267 OA
HETATM    2  C   UNL     1      40.835 -13.450   5.418  1.00  0.00     0.259 A 
HETATM    3  N   UNL     1      41.140 -14.779   5.281  1.00  0.00    -0.309 N 
HETATM    4  C   UNL     1      42.324 -15.333   5.699  1.00  0.00     0.137 A 
HETATM    5  N   UNL     1      43.279 -14.639   6.233  1.00  0.00    -0.232 NA
HETATM    6  C   UNL     1      43.065 -13.263   6.421  1.00  0.00     0.074 A 
HETATM    7  C   UNL     1      44.065 -12.503   7.023  1.00  0.00     0.033 A 
HETATM    8  C   UNL     1      43.890 -11.129   7.231  1.00  0.00     0.014 A 
HETATM    9  C   UNL     1      42.708 -10.487   6.833  1.00  0.00    -0.022 A 
HETATM   10  C   UNL     1      41.699 -11.248   6.230  1.00  0.00     0.031 A 
HETATM   11  C   UNL     1      41.887 -12.622   6.033  1.00  0.00     0.061 A 
HETATM   12  H   UNL     1      40.409 -15.379   4.919  1.00  0.00     0.170 HD
ENDROOT
BRANCH   4  13
HETATM   13  C   UNL     1      42.493 -16.826   5.447  1.00  0.00     0.198 C 
HETATM   14  C   UNL     1      43.592 -17.380   6.347  1.00  0.00     0.045 C 
HETATM   15  C   UNL     1      43.685 -18.883   6.130  1.00  0.00     0.044 C 
HETATM   16  C   UNL     1      43.636 -19.211   4.665  1.00  0.00    -0.025 A 
HETATM   17  C   UNL     1      43.995 -20.492   4.222  1.00  0.00     0.010 A 
HETATM   18  C   UNL     1      43.205 -18.264   3.728  1.00  0.00     0.076 A 
HETATM   19  C   UNL     1      43.947 -20.808   2.863  1.00  0.00     0.001 A 
HETATM   20  C   UNL     1      43.539 -19.849   1.937  1.00  0.00     0.003 A 
HETATM   21  C   UNL     1      43.173 -18.576   2.370  1.00  0.00     0.037 A 
HETATM   22  O   UNL     1      42.832 -16.989   4.063  1.00  0.00    -0.338 OA
ENDBRANCH   4  13
BRANCH   9  23
HETATM   23  C   UNL     1      42.541  -9.062   7.058  1.00  0.00     0.010 A 
HETATM   24  C   UNL     1      43.180  -8.187   7.968  1.00  0.00     0.152 A 
HETATM   25  N   UNL     1      42.760  -6.924   7.855  1.00  0.00    -0.187 NA
HETATM   26  N   UNL     1      41.849  -6.984   6.871  1.00  0.00    -0.289 N 
HETATM   27  H   UNL     1      41.381  -6.127   6.596  1.00  0.00     0.188 HD
HETATM   28  C   UNL     1      41.683  -8.239   6.359  1.00  0.00     0.123 A 
ENDBRANCH   9  23
TORSDOF 2
ENDMDL
MODEL 5
REMARK VINA RESULT:      -8.6      3.213      9.055
REMARK  2 active torsions:
REMARK  status: ('A' for Active; 'I' for Inactive)
REMARK    1  A    between atoms: C_4  and  C_18 
REMARK    2  A    between atoms: C_9  and  C_12 
ROOT
HETATM    1  O   UNL     1      43.683 -12.860   7.213  1.00  0.00    -0.267 OA
HETATM    2  C   UNL     1      43.045 -13.279   6.256  1.00  0.00     0.259 A 
HETATM    3  N   UNL     1      43.410 -14.405   5.566  1.00  0.00    -0.309 N 
HETATM    4  C   UNL     1      42.728 -14.882   4.475  1.00  0.00     0.137 A 
HETATM    5  N   UNL     1      41.651 -14.325   4.017  1.00  0.00    -0.232 NA
HETATM    6  C   UNL     1      41.193 -13.160   4.653  1.00  0.00     0.074 A 
HETATM    7  C   UNL     1      40.056 -12.525   4.158  1.00  0.00     0.033 A 
HETATM    8  C   UNL     1      39.568 -11.359   4.762  1.00  0.00     0.014 A 
HETATM    9  C   UNL     1      40.209 -10.808   5.880  1.00  0.00    -0.022 A 
HETATM   10  C   UNL     1      41.354 -11.441   6.380  1.00  0.00     0.031 A 
HETATM   11  C   UNL     1      41.833 -12.604   5.763  1.00  0.00     0.061 A 
HETATM   12  H   UNL     1      44.275 -14.851   5.847  1.00  0.00     0.170 HD
ENDROOT
BRANCH   4  13
HETATM   13  C   UNL     1      43.272 -16.160   3.847  1.00  0.00     0.198 C 
HETATM   14  C   UNL     1      42.406 -16.559   2.657  1.00  0.00     0.045 C 
HETATM   15  C   UNL     1      43.017 -17.791   2.005  1.00  0.00     0.044 C 
HETATM   16  C   UNL     1      43.424 -18.794   3.046  1.00  0.00    -0.025 A 
HETATM   17  C   UNL     1      43.735 -20.108   2.668  1.00  0.00     0.010 A 
HETATM   18  C   UNL     1      43.530 -18.432   4.394  1.00  0.00     0.076 A 
HETATM   19  C   UNL     1      44.120 -21.046   3.626  1.00  0.00     0.001 A 
HETATM   20  C   UNL     1      44.199 -20.680   4.970  1.00  0.00     0.003 A 
HETATM   21  C   UNL     1      43.899 -19.374   5.352  1.00  0.00     0.037 A 
HETATM   22  O   UNL     1      43.251 -17.175   4.860  1.00  0.00    -0.338 OA
ENDBRANCH   4  13
BRANCH   9  23
HETATM   23  C   UNL     1      39.693  -9.597   6.494  1.00  0.00     0.010 A 
HETATM   24  C   UNL     1      39.351  -9.313   7.838  1.00  0.00     0.152 A 
HETATM   25  N   UNL     1      38.923  -8.060   8.010  1.00  0.00    -0.187 NA
HETATM   26  N   UNL     1      38.987  -7.535   6.776  1.00  0.00    -0.289 N 
HETATM   27  H   UNL     1      38.708  -6.568   6.649  1.00  0.00     0.188 HD
HETATM   28  C   UNL     1      39.445  -8.412   5.835  1.00  0.00     0.123 A 
ENDBRANCH   9  23
TORSDOF 2
ENDMDL
MODEL 6
REMARK VINA RESULT:      -8.6      2.902      9.246
REMARK  2 active torsions:
REMARK  status: ('A' for Active; 'I' for Inactive)
REMARK    1  A    between atoms: C_4  and  C_18 
REMARK    2  A    between atoms: C_9  and  C_12 
ROOT
HETATM    1  O   UNL     1      40.349 -11.185   5.037  1.00  0.00    -0.267 OA
HETATM    2  C   UNL     1      41.379 -11.821   5.219  1.00  0.00     0.259 A 
HETATM    3  N   UNL     1      41.685 -12.944   4.497  1.00  0.00    -0.309 N 
HETATM    4  C   UNL     1      42.820 -13.689   4.697  1.00  0.00     0.137 A 
HETATM    5  N   UNL     1      43.726 -13.376   5.569  1.00  0.00    -0.232 NA
HETATM    6  C   UNL     1      43.506 -12.240   6.366  1.00  0.00     0.074 A 
HETATM    7  C   UNL     1      44.450 -11.903   7.333  1.00  0.00     0.033 A 
HETATM    8  C   UNL     1      44.266 -10.780   8.149  1.00  0.00     0.014 A 
HETATM    9  C   UNL     1      43.132  -9.967   8.008  1.00  0.00    -0.022 A 
HETATM   10  C   UNL     1      42.179 -10.304   7.039  1.00  0.00     0.031 A 
HETATM   11  C   UNL     1      42.374 -11.433   6.233  1.00  0.00     0.061 A 
HETATM   12  H   UNL     1      40.988 -13.267   3.837  1.00  0.00     0.170 HD
ENDROOT
BRANCH   4  13
HETATM   13  C   UNL     1      43.002 -14.897   3.785  1.00  0.00     0.198 C 
HETATM   14  C   UNL     1      41.674 -15.245   3.121  1.00  0.00     0.045 C 
HETATM   15  C   UNL     1      41.902 -16.403   2.159  1.00  0.00     0.044 C 
HETATM   16  C   UNL     1      42.757 -17.461   2.797  1.00  0.00    -0.025 A 
HETATM   17  C   UNL     1      42.853 -18.731   2.212  1.00  0.00     0.010 A 
HETATM   18  C   UNL     1      43.492 -17.191   3.958  1.00  0.00     0.076 A 
HETATM   19  C   UNL     1      43.649 -19.718   2.793  1.00  0.00     0.001 A 
HETATM   20  C   UNL     1      44.357 -19.445   3.963  1.00  0.00     0.003 A 
HETATM   21  C   UNL     1      44.274 -18.182   4.547  1.00  0.00     0.037 A 
HETATM   22  O   UNL     1      43.467 -15.981   4.601  1.00  0.00    -0.338 OA
ENDBRANCH   4  13
BRANCH   9  23
HETATM   23  C   UNL     1      42.955  -8.807   8.864  1.00  0.00     0.010 A 
HETATM   24  C   UNL     1      42.265  -8.659  10.091  1.00  0.00     0.152 A 
HETATM   25  N   UNL     1      42.349  -7.421  10.586  1.00  0.00    -0.187 NA
HETATM   26  N   UNL     1      43.093  -6.770   9.677  1.00  0.00    -0.289 N 
HETATM   27  H   UNL     1      43.301  -5.790   9.838  1.00  0.00     0.188 HD
HETATM   28  C   UNL     1      43.483  -7.555   8.630  1.00  0.00     0.123 A 
ENDBRANCH   9  23
TORSDOF 2
ENDMDL
MODEL 7
REMARK VINA RESULT:      -8.5      6.287     11.817
REMARK  2 active torsions:
REMARK  status: ('A' for Active; 'I' for Inactive)
REMARK    1  A    between atoms: C_4  and  C_18 
REMARK    2  A    between atoms: C_9  and  C_12 
ROOT
HETATM    1  O   UNL     1      40.217 -10.580  13.030  1.00  0.00    -0.267 OA
HETATM    2  C   UNL     1      41.272 -10.052  12.704  1.00  0.00     0.259 A 
HETATM    3  N   UNL     1      42.014 -10.489  11.639  1.00  0.00    -0.309 N 
HETATM    4  C   UNL     1      43.212  -9.930  11.268  1.00  0.00     0.137 A 
HETATM    5  N   UNL     1      43.733  -8.911  11.874  1.00  0.00    -0.232 NA
HETATM    6  C   UNL     1      43.050  -8.387  12.984  1.00  0.00     0.074 A 
HETATM    7  C   UNL     1      43.609  -7.312  13.672  1.00  0.00     0.033 A 
HETATM    8  C   UNL     1      42.961  -6.762  14.785  1.00  0.00     0.014 A 
HETATM    9  C   UNL     1      41.734  -7.277  15.229  1.00  0.00    -0.022 A 
HETATM   10  C   UNL     1      41.170  -8.359  14.542  1.00  0.00     0.031 A 
HETATM   11  C   UNL     1      41.832  -8.901  13.433  1.00  0.00     0.061 A 
HETATM   12  H   UNL     1      41.682 -11.317  11.160  1.00  0.00     0.170 HD
ENDROOT
BRANCH   4  13
HETATM   13  C   UNL     1      43.887 -10.539  10.044  1.00  0.00     0.198 C 
HETATM   14  C   UNL     1      45.205  -9.822   9.773  1.00  0.00     0.045 C 
HETATM   15  C   UNL     1      45.893 -10.500   8.597  1.00  0.00     0.044 C 
HETATM   16  C   UNL     1      44.910 -10.771   7.494  1.00  0.00    -0.025 A 
HETATM   17  C   UNL     1      45.370 -11.118   6.216  1.00  0.00     0.010 A 
HETATM   18  C   UNL     1      43.530 -10.714   7.727  1.00  0.00     0.076 A 
HETATM   19  C   UNL     1      44.465 -11.377   5.186  1.00  0.00     0.001 A 
HETATM   20  C   UNL     1      43.093 -11.294   5.423  1.00  0.00     0.003 A 
HETATM   21  C   UNL     1      42.628 -10.958   6.693  1.00  0.00     0.037 A 
HETATM   22  O   UNL     1      42.985 -10.388   8.940  1.00  0.00    -0.338 OA
ENDBRANCH   4  13
BRANCH   9  23
HETATM   23  C   UNL     1      41.076  -6.697  16.386  1.00  0.00     0.010 A 
HETATM   24  C   UNL     1      40.668  -7.282  17.609  1.00  0.00     0.152 A 
HETATM   25  N   UNL     1      40.106  -6.402  18.442  1.00  0.00    -0.187 NA
HETATM   26  N   UNL     1      40.149  -5.249  17.756  1.00  0.00    -0.289 N 
HETATM   27  H   UNL     1      39.773  -4.414  18.193  1.00  0.00     0.188 HD
HETATM   28  C   UNL     1      40.723  -5.371  16.523  1.00  0.00     0.123 A 
ENDBRANCH   9  23
TORSDOF 2
ENDMDL
MODEL 8
REMARK VINA RESULT:      -8.4      2.999      9.311
REMARK  2 active torsions:
REMARK  status: ('A' for Active; 'I' for Inactive)
REMARK    1  A    between atoms: C_4  and  C_18 
REMARK    2  A    between atoms: C_9  and  C_12 
ROOT
HETATM    1  O   UNL     1      44.667 -11.442   8.269  1.00  0.00    -0.267 OA
HETATM    2  C   UNL     1      43.849 -11.848   7.453  1.00  0.00     0.259 A 
HETATM    3  N   UNL     1      43.799 -13.158   7.053  1.00  0.00    -0.309 N 
HETATM    4  C   UNL     1      42.909 -13.633   6.122  1.00  0.00     0.137 A 
HETATM    5  N   UNL     1      42.010 -12.889   5.560  1.00  0.00    -0.232 NA
HETATM    6  C   UNL     1      41.979 -11.527   5.900  1.00  0.00     0.074 A 
HETATM    7  C   UNL     1      41.041 -10.701   5.284  1.00  0.00     0.033 A 
HETATM    8  C   UNL     1      40.979  -9.336   5.594  1.00  0.00     0.014 A 
HETATM    9  C   UNL     1      41.854  -8.772   6.533  1.00  0.00    -0.022 A 
HETATM   10  C   UNL     1      42.800  -9.598   7.153  1.00  0.00     0.031 A 
HETATM   11  C   UNL     1      42.853 -10.960   6.830  1.00  0.00     0.061 A 
HETATM   12  H   UNL     1      44.513 -13.774   7.420  1.00  0.00     0.170 HD
ENDROOT
BRANCH   4  13
HETATM   13  C   UNL     1      42.990 -15.124   5.816  1.00  0.00     0.198 C 
HETATM   14  C   UNL     1      44.260 -15.708   6.425  1.00  0.00     0.045 C 
HETATM   15  C   UNL     1      44.274 -17.209   6.171  1.00  0.00     0.044 C 
HETATM   16  C   UNL     1      43.878 -17.509   4.753  1.00  0.00    -0.025 A 
HETATM   17  C   UNL     1      44.101 -18.786   4.220  1.00  0.00     0.010 A 
HETATM   18  C   UNL     1      43.256 -16.540   3.957  1.00  0.00     0.076 A 
HETATM   19  C   UNL     1      43.731 -19.077   2.906  1.00  0.00     0.001 A 
HETATM   20  C   UNL     1      43.134 -18.096   2.115  1.00  0.00     0.003 A 
HETATM   21  C   UNL     1      42.901 -16.827   2.640  1.00  0.00     0.037 A 
HETATM   22  O   UNL     1      42.992 -15.267   4.389  1.00  0.00    -0.338 OA
ENDBRANCH   4  13
BRANCH   9  23
HETATM   23  C   UNL     1      41.779  -7.355   6.841  1.00  0.00     0.010 A 
HETATM   24  C   UNL     1      41.788  -6.675   8.083  1.00  0.00     0.152 A 
HETATM   25  N   UNL     1      41.720  -5.348   7.948  1.00  0.00    -0.187 NA
HETATM   26  N   UNL     1      41.666  -5.171   6.618  1.00  0.00    -0.289 N 
HETATM   27  H   UNL     1      41.610  -4.223   6.261  1.00  0.00     0.188 HD
HETATM   28  C   UNL     1      41.701  -6.339   5.912  1.00  0.00     0.123 A 
ENDBRANCH   9  23
TORSDOF 2
ENDMDL
MODEL 9
REMARK VINA RESULT:      -8.4      1.986      3.076
REMARK  2 active torsions:
REMARK  status: ('A' for Active; 'I' for Inactive)
REMARK    1  A    between atoms: C_4  and  C_18 
REMARK    2  A    between atoms: C_9  and  C_12 
ROOT
HETATM    1  O   UNL     1      42.559 -15.827   7.422  1.00  0.00    -0.267 OA
HETATM    2  C   UNL     1      42.570 -15.187   6.378  1.00  0.00     0.259 A 
HETATM    3  N   UNL     1      42.309 -13.843   6.338  1.00  0.00    -0.309 N 
HETATM    4  C   UNL     1      42.291 -13.108   5.179  1.00  0.00     0.137 A 
HETATM    5  N   UNL     1      42.554 -13.615   4.016  1.00  0.00    -0.232 NA
HETATM    6  C   UNL     1      42.833 -14.990   3.948  1.00  0.00     0.074 A 
HETATM    7  C   UNL     1      43.087 -15.564   2.704  1.00  0.00     0.033 A 
HETATM    8  C   UNL     1      43.366 -16.932   2.593  1.00  0.00     0.014 A 
HETATM    9  C   UNL     1      43.402 -17.753   3.730  1.00  0.00    -0.022 A 
HETATM   10  C   UNL     1      43.145 -17.180   4.982  1.00  0.00     0.031 A 
HETATM   11  C   UNL     1      42.863 -15.812   5.077  1.00  0.00     0.061 A 
HETATM   12  H   UNL     1      42.044 -13.403   7.210  1.00  0.00     0.170 HD
ENDROOT
BRANCH   4  13
HETATM   13  C   UNL     1      41.999 -11.619   5.332  1.00  0.00     0.198 C 
HETATM   14  C   UNL     1      42.529 -11.125   6.673  1.00  0.00     0.045 C 
HETATM   15  C   UNL     1      42.293  -9.624   6.764  1.00  0.00     0.044 C 
HETATM   16  C   UNL     1      40.909  -9.276   6.294  1.00  0.00    -0.025 A 
HETATM   17  C   UNL     1      40.378  -8.006   6.561  1.00  0.00     0.010 A 
HETATM   18  C   UNL     1      40.144 -10.192   5.562  1.00  0.00     0.076 A 
HETATM   19  C   UNL     1      39.096  -7.671   6.124  1.00  0.00     0.001 A 
HETATM   20  C   UNL     1      38.334  -8.600   5.416  1.00  0.00     0.003 A 
HETATM   21  C   UNL     1      38.858  -9.861   5.139  1.00  0.00     0.037 A 
HETATM   22  O   UNL     1      40.577 -11.453   5.249  1.00  0.00    -0.338 OA
ENDBRANCH   4  13
BRANCH   9  23
HETATM   23  C   UNL     1      43.691 -19.170   3.597  1.00  0.00     0.010 A 
HETATM   24  C   UNL     1      43.608 -20.031   2.477  1.00  0.00     0.152 A 
HETATM   25  N   UNL     1      43.982 -21.282   2.757  1.00  0.00    -0.187 NA
HETATM   26  N   UNL     1      44.306 -21.229   4.058  1.00  0.00    -0.289 N 
HETATM   27  H   UNL     1      44.630 -22.078   4.509  1.00  0.00     0.188 HD
HETATM   28  C   UNL     1      44.153 -19.988   4.607  1.00  0.00     0.123 A 
ENDBRANCH   9  23
TORSDOF 2
ENDMDL
MODEL 10
REMARK VINA RESULT:      -8.3      3.623      4.824
REMARK  2 active torsions:
REMARK  status: ('A' for Active; 'I' for Inactive)
REMARK    1  A    between atoms: C_4  and  C_18 
REMARK    2  A    between atoms: C_9  and  C_12 
ROOT
HETATM    1  O   UNL     1      41.967 -15.090   6.110  1.00  0.00    -0.267 OA
HETATM    2  C   UNL     1      42.177 -14.700   4.969  1.00  0.00     0.259 A 
HETATM    3  N   UNL     1      41.953 -13.405   4.582  1.00  0.00    -0.309 N 
HETATM    4  C   UNL     1      42.158 -12.949   3.304  1.00  0.00     0.137 A 
HETATM    5  N   UNL     1      42.616 -13.698   2.352  1.00  0.00    -0.232 NA
HETATM    6  C   UNL     1      42.877 -15.047   2.645  1.00  0.00     0.074 A 
HETATM    7  C   UNL     1      43.339 -15.879   1.627  1.00  0.00     0.033 A 
HETATM    8  C   UNL     1      43.608 -17.230   1.878  1.00  0.00     0.014 A 
HETATM    9  C   UNL     1      43.423 -17.775   3.157  1.00  0.00    -0.022 A 
HETATM   10  C   UNL     1      42.956 -16.942   4.182  1.00  0.00     0.031 A 
HETATM   11  C   UNL     1      42.687 -15.594   3.915  1.00  0.00     0.061 A 
HETATM   12  H   UNL     1      41.544 -12.788   5.272  1.00  0.00     0.170 HD
ENDROOT
BRANCH   4  13
HETATM   13  C   UNL     1      41.871 -11.471   3.065  1.00  0.00     0.198 C 
HETATM   14  C   UNL     1      40.529 -11.098   3.686  1.00  0.00     0.045 C 
HETATM   15  C   UNL     1      40.307  -9.604   3.499  1.00  0.00     0.044 C 
HETATM   16  C   UNL     1      40.663  -9.187   2.100  1.00  0.00    -0.025 A 
HETATM   17  C   UNL     1      40.266  -7.930   1.622  1.00  0.00     0.010 A 
HETATM   18  C   UNL     1      41.418 -10.022   1.268  1.00  0.00     0.076 A 
HETATM   19  C   UNL     1      40.597  -7.531   0.327  1.00  0.00     0.001 A 
HETATM   20  C   UNL     1      41.328  -8.382  -0.501  1.00  0.00     0.003 A 
HETATM   21  C   UNL     1      41.734  -9.629  -0.031  1.00  0.00     0.037 A 
HETATM   22  O   UNL     1      41.854 -11.265   1.645  1.00  0.00    -0.338 OA
ENDBRANCH   4  13
BRANCH   9  23
HETATM   23  C   UNL     1      43.704 -19.178   3.399  1.00  0.00     0.010 A 
HETATM   24  C   UNL     1      43.630 -20.300   2.539  1.00  0.00     0.152 A 
HETATM   25  N   UNL     1      43.993 -21.437   3.138  1.00  0.00    -0.187 NA
HETATM   26  N   UNL     1      44.300 -21.050   4.386  1.00  0.00    -0.289 N 
HETATM   27  H   UNL     1      44.613 -21.755   5.045  1.00  0.00     0.188 HD
HETATM   28  C   UNL     1      44.148 -19.709   4.592  1.00  0.00     0.123 A 
ENDBRANCH   9  23
TORSDOF 2
ENDMDL
