MODEL 1
REMARK VINA RESULT:      -9.9      0.000      0.000
REMARK  10 active torsions:
REMARK  status: ('A' for Active; 'I' for Inactive)
REMARK    1  A    between atoms: C_2  and  N_3 
REMARK    2  A    between atoms: N_3  and  C_4 
REMARK    3  A    between atoms: C_6  and  N_7 
REMARK    4  A    between atoms: N_10  and  C_12 
REMARK    5  A    between atoms: C_25  and  N_26 
REMARK    6  A    between atoms: N_26  and  C_27 
REMARK    7  A    between atoms: C_27  and  C_28 
REMARK    8  A    between atoms: C_28  and  O_29 
REMARK    9  A    between atoms: C_33  and  O_34 
REMARK   10  A    between atoms: O_34  and  C_35 
ROOT
HETATM    1  C   UNL     1      40.468 -13.837   5.445  1.00  0.00     0.745 A 
HETATM    2  N   UNL     1      41.077 -13.089   4.531  1.00  0.00     0.130 NA
HETATM    3  C   UNL     1      40.929 -11.779   4.622  1.00  0.00     0.743 A 
HETATM    4  N   UNL     1      40.176 -11.207   5.550  1.00  0.00    -0.030 NA
HETATM    5  C   UNL     1      39.581 -12.018   6.414  1.00  0.00     0.238 A 
HETATM    6  N   UNL     1      39.688 -13.338   6.389  1.00  0.00    -0.030 NA
ENDROOT
BRANCH   3   7
HETATM    7  N   UNL     1      41.584 -10.975   3.686  1.00  0.00    -0.210 N 
HETATM    8  C   UNL     1      40.739 -10.008   2.977  1.00  0.00     0.169 C 
HETATM    9  C   UNL     1      39.979 -10.692   1.819  1.00  0.00     0.256 C 
HETATM   10  N   UNL     1      40.979 -11.390   0.857  1.00  0.00    -0.059 N 
HETATM   11  H   UNL     1      41.642 -10.659   0.572  1.00  0.00     0.281 HD
HETATM   12  C   UNL     1      41.828 -12.405   1.667  1.00  0.00     0.256 C 
HETATM   13  C   UNL     1      42.548 -11.685   2.834  1.00  0.00     0.169 C 
BRANCH  10  14
HETATM   14  C   UNL     1      40.364 -11.916  -0.456  1.00  0.00     0.129 C 
HETATM   15  C   UNL     1      40.049 -13.429  -0.290  1.00  0.00     0.043 C 
HETATM   16  C   UNL     1      39.399 -13.991  -1.566  1.00  0.00    -0.012 C 
HETATM   17  C   UNL     1      40.360 -13.783  -2.750  1.00  0.00     0.009 C 
HETATM   18  C   UNL     1      38.085 -13.246  -1.836  1.00  0.00     0.009 C 
HETATM   19  C   UNL     1      40.652 -12.284  -2.940  1.00  0.00    -0.012 C 
HETATM   20  C   UNL     1      41.310 -11.721  -1.660  1.00  0.00     0.043 C 
HETATM   21  C   UNL     1      39.327 -11.549  -3.205  1.00  0.00     0.009 C 
HETATM   22  C   UNL     1      38.366 -11.749  -2.021  1.00  0.00    -0.012 C 
HETATM   23  C   UNL     1      39.023 -11.189  -0.746  1.00  0.00     0.043 C 
ENDBRANCH  10  14
ENDBRANCH   3   7
BRANCH   1  24
HETATM   24  N   UNL     1      40.597 -15.224   5.414  1.00  0.00    -0.188 N 
HETATM   25  H   UNL     1      40.304 -15.622   6.297  1.00  0.00     0.184 HD
BRANCH  24  26
HETATM   26  C   UNL     1      41.422 -16.048   4.635  1.00  0.00     0.049 A 
HETATM   27  C   UNL     1      41.215 -16.275   3.271  1.00  0.00     0.033 A 
HETATM   28  C   UNL     1      42.042 -17.136   2.536  1.00  0.00     0.039 A 
HETATM   29  C   UNL     1      43.084 -17.814   3.163  1.00  0.00     0.078 A 
HETATM   30  C   UNL     1      43.288 -17.613   4.529  1.00  0.00     0.039 A 
HETATM   31  C   UNL     1      42.466 -16.743   5.256  1.00  0.00     0.033 A 
BRANCH  29  32
HETATM   32  O   UNL     1      43.956 -18.684   2.578  1.00  0.00    -0.255 OA
BRANCH  32  33
HETATM   33  C   UNL     1      43.541 -20.031   2.422  1.00  0.00     0.530 C 
HETATM   34  F   UNL     1      44.325 -20.680   1.533  1.00  0.00    -0.144 F 
HETATM   35  F   UNL     1      43.566 -20.687   3.602  1.00  0.00    -0.144 F 
HETATM   36  F   UNL     1      42.275 -20.048   1.954  1.00  0.00    -0.144 F 
ENDBRANCH  32  33
ENDBRANCH  29  32
ENDBRANCH  24  26
ENDBRANCH   1  24
BRANCH   5  37
HETATM   37  N   UNL     1      38.819 -11.397   7.387  1.00  0.00    -0.258 NA
HETATM   38  H   UNL     1      37.872 -11.296   7.034  1.00  0.00     0.130 HD
BRANCH  37  39
HETATM   39  C   UNL     1      39.340 -10.135   7.917  1.00  0.00     0.121 C 
BRANCH  39  40
HETATM   40  C   UNL     1      39.043  -9.973   9.414  1.00  0.00     0.178 C 
BRANCH  40  41
HETATM   41  O   UNL     1      38.427 -11.157   9.925  1.00  0.00    -0.400 OA
HETATM   42  H   UNL     1      38.627 -11.873   9.297  1.00  0.00     0.209 HD
ENDBRANCH  40  41
ENDBRANCH  39  40
ENDBRANCH  37  39
ENDBRANCH   5  37
TORSDOF 10
ENDMDL
MODEL 2
REMARK VINA RESULT:      -9.7      3.313      8.330
REMARK  10 active torsions:
REMARK  status: ('A' for Active; 'I' for Inactive)
REMARK    1  A    between atoms: C_2  and  N_3 
REMARK    2  A    between atoms: N_3  and  C_4 
REMARK    3  A    between atoms: C_6  and  N_7 
REMARK    4  A    between atoms: N_10  and  C_12 
REMARK    5  A    between atoms: C_25  and  N_26 
REMARK    6  A    between atoms: N_26  and  C_27 
REMARK    7  A    between atoms: C_27  and  C_28 
REMARK    8  A    between atoms: C_28  and  O_29 
REMARK    9  A    between atoms: C_33  and  O_34 
REMARK   10  A    between atoms: O_34  and  C_35 
ROOT
HETATM    1  C   UNL     1      42.414 -14.140   6.305  1.00  0.00     0.745 A 
HETATM    2  N   UNL     1      43.144 -13.046   6.494  1.00  0.00     0.130 NA
HETATM    3  C   UNL     1      42.543 -11.881   6.331  1.00  0.00     0.743 A 
HETATM    4  N   UNL     1      41.278 -11.774   5.955  1.00  0.00    -0.030 NA
HETATM    5  C   UNL     1      40.619 -12.909   5.764  1.00  0.00     0.238 A 
HETATM    6  N   UNL     1      41.152 -14.112   5.913  1.00  0.00    -0.030 NA
ENDROOT
BRANCH   3   7
HETATM    7  N   UNL     1      43.287 -10.719   6.552  1.00  0.00    -0.210 N 
HETATM    8  C   UNL     1      44.346 -10.825   7.563  1.00  0.00     0.169 C 
HETATM    9  C   UNL     1      43.760 -10.689   8.985  1.00  0.00     0.256 C 
HETATM   10  N   UNL     1      42.974  -9.356   9.119  1.00  0.00    -0.059 N 
HETATM   11  H   UNL     1      43.637  -8.618   8.848  1.00  0.00     0.281 HD
HETATM   12  C   UNL     1      41.867  -9.315   8.033  1.00  0.00     0.256 C 
HETATM   13  C   UNL     1      42.493  -9.485   6.627  1.00  0.00     0.169 C 
BRANCH  10  14
HETATM   14  C   UNL     1      42.532  -8.998  10.552  1.00  0.00     0.129 C 
HETATM   15  C   UNL     1      42.884  -7.509  10.827  1.00  0.00     0.043 C 
HETATM   16  C   UNL     1      42.427  -7.095  12.236  1.00  0.00    -0.012 C 
HETATM   17  C   UNL     1      43.120  -7.997  13.272  1.00  0.00     0.009 C 
HETATM   18  C   UNL     1      40.906  -7.265  12.346  1.00  0.00     0.009 C 
HETATM   19  C   UNL     1      42.750  -9.471  13.025  1.00  0.00    -0.012 C 
HETATM   20  C   UNL     1      43.215  -9.888  11.612  1.00  0.00     0.043 C 
HETATM   21  C   UNL     1      41.225  -9.625  13.133  1.00  0.00     0.009 C 
HETATM   22  C   UNL     1      40.528  -8.730  12.095  1.00  0.00    -0.012 C 
HETATM   23  C   UNL     1      40.991  -9.145  10.687  1.00  0.00     0.043 C 
ENDBRANCH  10  14
ENDBRANCH   3   7
BRANCH   1  24
HETATM   24  N   UNL     1      42.984 -15.400   6.475  1.00  0.00    -0.188 N 
HETATM   25  H   UNL     1      43.528 -15.426   7.329  1.00  0.00     0.184 HD
BRANCH  24  26
HETATM   26  C   UNL     1      43.302 -16.394   5.538  1.00  0.00     0.049 A 
HETATM   27  C   UNL     1      43.806 -17.650   5.888  1.00  0.00     0.033 A 
HETATM   28  C   UNL     1      44.145 -18.603   4.918  1.00  0.00     0.039 A 
HETATM   29  C   UNL     1      44.012 -18.303   3.564  1.00  0.00     0.078 A 
HETATM   30  C   UNL     1      43.531 -17.045   3.200  1.00  0.00     0.039 A 
HETATM   31  C   UNL     1      43.182 -16.102   4.174  1.00  0.00     0.033 A 
BRANCH  29  32
HETATM   32  O   UNL     1      44.311 -19.125   2.517  1.00  0.00    -0.255 OA
BRANCH  32  33
HETATM   33  C   UNL     1      43.396 -20.164   2.210  1.00  0.00     0.530 C 
HETATM   34  F   UNL     1      43.395 -21.109   3.177  1.00  0.00    -0.144 F 
HETATM   35  F   UNL     1      42.145 -19.680   2.056  1.00  0.00    -0.144 F 
HETATM   36  F   UNL     1      43.770 -20.749   1.053  1.00  0.00    -0.144 F 
ENDBRANCH  32  33
ENDBRANCH  29  32
ENDBRANCH  24  26
ENDBRANCH   1  24
BRANCH   5  37
HETATM   37  N   UNL     1      39.293 -12.773   5.394  1.00  0.00    -0.258 NA
HETATM   38  H   UNL     1      38.903 -13.700   5.257  1.00  0.00     0.130 HD
BRANCH  37  39
HETATM   39  C   UNL     1      39.020 -11.893   4.255  1.00  0.00     0.121 C 
BRANCH  39  40
HETATM   40  C   UNL     1      39.334 -12.571   2.915  1.00  0.00     0.178 C 
BRANCH  40  41
HETATM   41  O   UNL     1      38.681 -13.839   2.839  1.00  0.00    -0.400 OA
HETATM   42  H   UNL     1      38.375 -13.945   1.921  1.00  0.00     0.209 HD
ENDBRANCH  40  41
ENDBRANCH  39  40
ENDBRANCH  37  39
ENDBRANCH   5  37
TORSDOF 10
ENDMDL
MODEL 3
REMARK VINA RESULT:      -9.6      1.984      2.872
REMARK  10 active torsions:
REMARK  status: ('A' for Active; 'I' for Inactive)
REMARK    1  A    between atoms: C_2  and  N_3 
REMARK    2  A    between atoms: N_3  and  C_4 
REMARK    3  A    between atoms: C_6  and  N_7 
REMARK    4  A    between atoms: N_10  and  C_12 
REMARK    5  A    between atoms: C_25  and  N_26 
REMARK    6  A    between atoms: N_26  and  C_27 
REMARK    7  A    between atoms: C_27  and  C_28 
REMARK    8  A    between atoms: C_28  and  O_29 
REMARK    9  A    between atoms: C_33  and  O_34 
REMARK   10  A    between atoms: O_34  and  C_35 
ROOT
HETATM    1  C   UNL     1      42.376 -13.472   5.143  1.00  0.00     0.745 A 
HETATM    2  N   UNL     1      41.392 -12.722   4.659  1.00  0.00     0.130 NA
HETATM    3  C   UNL     1      41.653 -11.444   4.445  1.00  0.00     0.743 A 
HETATM    4  N   UNL     1      42.824 -10.895   4.731  1.00  0.00    -0.030 NA
HETATM    5  C   UNL     1      43.750 -11.702   5.233  1.00  0.00     0.238 A 
HETATM    6  N   UNL     1      43.564 -12.991   5.469  1.00  0.00    -0.030 NA
ENDROOT
BRANCH   3   7
HETATM    7  N   UNL     1      40.640 -10.645   3.909  1.00  0.00    -0.210 N 
HETATM    8  C   UNL     1      39.349 -11.311   3.699  1.00  0.00     0.169 C 
HETATM    9  C   UNL     1      39.362 -12.128   2.389  1.00  0.00     0.256 C 
HETATM   10  N   UNL     1      39.735 -11.216   1.189  1.00  0.00    -0.059 N 
HETATM   11  H   UNL     1      39.061 -10.441   1.213  1.00  0.00     0.281 HD
HETATM   12  C   UNL     1      41.111 -10.555   1.470  1.00  0.00     0.256 C 
HETATM   13  C   UNL     1      41.064  -9.773   2.805  1.00  0.00     0.169 C 
BRANCH  10  14
HETATM   14  C   UNL     1      39.564 -11.860  -0.202  1.00  0.00     0.129 C 
HETATM   15  C   UNL     1      38.205 -11.404  -0.800  1.00  0.00     0.043 C 
HETATM   16  C   UNL     1      38.005 -11.994  -2.207  1.00  0.00    -0.012 C 
HETATM   17  C   UNL     1      38.048 -13.530  -2.115  1.00  0.00     0.009 C 
HETATM   18  C   UNL     1      39.132 -11.504  -3.126  1.00  0.00     0.009 C 
HETATM   19  C   UNL     1      39.405 -13.990  -1.553  1.00  0.00    -0.012 C 
HETATM   20  C   UNL     1      39.601 -13.402  -0.138  1.00  0.00     0.043 C 
HETATM   21  C   UNL     1      40.524 -13.489  -2.480  1.00  0.00     0.009 C 
HETATM   22  C   UNL     1      40.489 -11.954  -2.569  1.00  0.00    -0.012 C 
HETATM   23  C   UNL     1      40.684 -11.368  -1.159  1.00  0.00     0.043 C 
ENDBRANCH  10  14
ENDBRANCH   3   7
BRANCH   1  24
HETATM   24  N   UNL     1      42.170 -14.831   5.377  1.00  0.00    -0.188 N 
HETATM   25  H   UNL     1      41.896 -14.982   6.339  1.00  0.00     0.184 HD
BRANCH  24  26
HETATM   26  C   UNL     1      42.681 -15.959   4.719  1.00  0.00     0.049 A 
HETATM   27  C   UNL     1      43.204 -17.070   5.389  1.00  0.00     0.033 A 
HETATM   28  C   UNL     1      43.739 -18.162   4.693  1.00  0.00     0.039 A 
HETATM   29  C   UNL     1      43.788 -18.152   3.301  1.00  0.00     0.078 A 
HETATM   30  C   UNL     1      43.289 -17.040   2.621  1.00  0.00     0.039 A 
HETATM   31  C   UNL     1      42.745 -15.956   3.321  1.00  0.00     0.033 A 
BRANCH  29  32
HETATM   32  O   UNL     1      44.287 -19.136   2.498  1.00  0.00    -0.255 OA
BRANCH  32  33
HETATM   33  C   UNL     1      43.444 -20.236   2.200  1.00  0.00     0.530 C 
HETATM   34  F   UNL     1      43.506 -21.171   3.174  1.00  0.00    -0.144 F 
HETATM   35  F   UNL     1      42.163 -19.839   2.044  1.00  0.00    -0.144 F 
HETATM   36  F   UNL     1      43.856 -20.804   1.048  1.00  0.00    -0.144 F 
ENDBRANCH  32  33
ENDBRANCH  29  32
ENDBRANCH  24  26
ENDBRANCH   1  24
BRANCH   5  37
HETATM   37  N   UNL     1      44.971 -11.111   5.503  1.00  0.00    -0.258 NA
HETATM   38  H   UNL     1      45.625 -11.382   4.775  1.00  0.00     0.130 HD
BRANCH  37  39
HETATM   39  C   UNL     1      45.523 -11.333   6.841  1.00  0.00     0.121 C 
BRANCH  39  40
HETATM   40  C   UNL     1      44.572 -10.849   7.944  1.00  0.00     0.178 C 
BRANCH  40  41
HETATM   41  O   UNL     1      43.880 -11.960   8.519  1.00  0.00    -0.400 OA
HETATM   42  H   UNL     1      43.881 -11.825   9.483  1.00  0.00     0.209 HD
ENDBRANCH  40  41
ENDBRANCH  39  40
ENDBRANCH  37  39
ENDBRANCH   5  37
TORSDOF 10
ENDMDL
MODEL 4
REMARK VINA RESULT:      -9.4      4.208      9.294
REMARK  10 active torsions:
REMARK  status: ('A' for Active; 'I' for Inactive)
REMARK    1  A    between atoms: C_2  and  N_3 
REMARK    2  A    between atoms: N_3  and  C_4 
REMARK    3  A    between atoms: C_6  and  N_7 
REMARK    4  A    between atoms: N_10  and  C_12 
REMARK    5  A    between atoms: C_25  and  N_26 
REMARK    6  A    between atoms: N_26  and  C_27 
REMARK    7  A    between atoms: C_27  and  C_28 
REMARK    8  A    between atoms: C_28  and  O_29 
REMARK    9  A    between atoms: C_33  and  O_34 
REMARK   10  A    between atoms: O_34  and  C_35 
ROOT
HETATM    1  C   UNL     1      43.458 -12.671   7.101  1.00  0.00     0.745 A 
HETATM    2  N   UNL     1      44.205 -11.963   7.942  1.00  0.00     0.130 NA
HETATM    3  C   UNL     1      44.401 -10.689   7.651  1.00  0.00     0.743 A 
HETATM    4  N   UNL     1      43.923 -10.123   6.554  1.00  0.00    -0.030 NA
HETATM    5  C   UNL     1      43.205 -10.898   5.752  1.00  0.00     0.238 A 
HETATM    6  N   UNL     1      42.961 -12.179   5.979  1.00  0.00    -0.030 NA
ENDROOT
BRANCH   3   7
HETATM    7  N   UNL     1      45.162  -9.921   8.538  1.00  0.00    -0.210 N 
HETATM    8  C   UNL     1      45.417 -10.530   9.848  1.00  0.00     0.169 C 
HETATM    9  C   UNL     1      44.198 -10.353  10.780  1.00  0.00     0.256 C 
HETATM   10  N   UNL     1      43.834  -8.849  10.911  1.00  0.00    -0.059 N 
HETATM   11  H   UNL     1      44.695  -8.384  11.225  1.00  0.00     0.281 HD
HETATM   12  C   UNL     1      43.565  -8.273   9.495  1.00  0.00     0.256 C 
HETATM   13  C   UNL     1      44.798  -8.498   8.585  1.00  0.00     0.169 C 
BRANCH  10  14
HETATM   14  C   UNL     1      42.779  -8.522  11.987  1.00  0.00     0.129 C 
HETATM   15  C   UNL     1      41.665  -7.648  11.347  1.00  0.00     0.043 C 
HETATM   16  C   UNL     1      40.569  -7.326  12.377  1.00  0.00    -0.012 C 
HETATM   17  C   UNL     1      41.202  -6.580  13.564  1.00  0.00     0.009 C 
HETATM   18  C   UNL     1      39.938  -8.635  12.872  1.00  0.00     0.009 C 
HETATM   19  C   UNL     1      42.285  -7.453  14.223  1.00  0.00    -0.012 C 
HETATM   20  C   UNL     1      43.389  -7.770  13.190  1.00  0.00     0.043 C 
HETATM   21  C   UNL     1      41.641  -8.761  14.710  1.00  0.00     0.009 C 
HETATM   22  C   UNL     1      41.013  -9.514  13.525  1.00  0.00    -0.012 C 
HETATM   23  C   UNL     1      42.113  -9.830  12.495  1.00  0.00     0.043 C 
ENDBRANCH  10  14
ENDBRANCH   3   7
BRANCH   1  24
HETATM   24  N   UNL     1      43.199 -14.016   7.358  1.00  0.00    -0.188 N 
HETATM   25  H   UNL     1      43.353 -14.222   8.337  1.00  0.00     0.184 HD
BRANCH  24  26
HETATM   26  C   UNL     1      43.224 -15.130   6.506  1.00  0.00     0.049 A 
HETATM   27  C   UNL     1      42.098 -15.602   5.822  1.00  0.00     0.033 A 
HETATM   28  C   UNL     1      42.157 -16.741   5.009  1.00  0.00     0.039 A 
HETATM   29  C   UNL     1      43.347 -17.454   4.884  1.00  0.00     0.078 A 
HETATM   30  C   UNL     1      44.472 -17.007   5.578  1.00  0.00     0.039 A 
HETATM   31  C   UNL     1      44.411 -15.861   6.381  1.00  0.00     0.033 A 
BRANCH  29  32
HETATM   32  O   UNL     1      43.545 -18.579   4.139  1.00  0.00    -0.255 OA
BRANCH  32  33
HETATM   33  C   UNL     1      43.510 -18.452   2.727  1.00  0.00     0.530 C 
HETATM   34  F   UNL     1      42.259 -18.646   2.255  1.00  0.00    -0.144 F 
HETATM   35  F   UNL     1      43.952 -17.237   2.337  1.00  0.00    -0.144 F 
HETATM   36  F   UNL     1      44.313 -19.390   2.183  1.00  0.00    -0.144 F 
ENDBRANCH  32  33
ENDBRANCH  29  32
ENDBRANCH  24  26
ENDBRANCH   1  24
BRANCH   5  37
HETATM   37  N   UNL     1      42.697 -10.278   4.624  1.00  0.00    -0.258 NA
HETATM   38  H   UNL     1      42.727  -9.274   4.771  1.00  0.00     0.130 HD
BRANCH  37  39
HETATM   39  C   UNL     1      41.377 -10.723   4.173  1.00  0.00     0.121 C 
BRANCH  39  40
HETATM   40  C   UNL     1      41.384 -11.145   2.697  1.00  0.00     0.178 C 
BRANCH  40  41
HETATM   41  O   UNL     1      42.396 -10.430   1.986  1.00  0.00    -0.400 OA
HETATM   42  H   UNL     1      43.182 -10.407   2.559  1.00  0.00     0.209 HD
ENDBRANCH  40  41
ENDBRANCH  39  40
ENDBRANCH  37  39
ENDBRANCH   5  37
TORSDOF 10
ENDMDL
MODEL 5
REMARK VINA RESULT:      -8.9      4.030      8.691
REMARK  10 active torsions:
REMARK  status: ('A' for Active; 'I' for Inactive)
REMARK    1  A    between atoms: C_2  and  N_3 
REMARK    2  A    between atoms: N_3  and  C_4 
REMARK    3  A    between atoms: C_6  and  N_7 
REMARK    4  A    between atoms: N_10  and  C_12 
REMARK    5  A    between atoms: C_25  and  N_26 
REMARK    6  A    between atoms: N_26  and  C_27 
REMARK    7  A    between atoms: C_27  and  C_28 
REMARK    8  A    between atoms: C_28  and  O_29 
REMARK    9  A    between atoms: C_33  and  O_34 
REMARK   10  A    between atoms: O_34  and  C_35 
ROOT
HETATM    1  C   UNL     1      42.151 -12.677   5.510  1.00  0.00     0.745 A 
HETATM    2  N   UNL     1      41.370 -11.638   5.784  1.00  0.00     0.130 NA
HETATM    3  C   UNL     1      41.939 -10.580   6.334  1.00  0.00     0.743 A 
HETATM    4  N   UNL     1      43.225 -10.542   6.650  1.00  0.00    -0.030 NA
HETATM    5  C   UNL     1      43.937 -11.624   6.367  1.00  0.00     0.238 A 
HETATM    6  N   UNL     1      43.438 -12.718   5.812  1.00  0.00    -0.030 NA
ENDROOT
BRANCH   3   7
HETATM    7  N   UNL     1      41.139  -9.467   6.604  1.00  0.00    -0.210 N 
HETATM    8  C   UNL     1      41.857  -8.243   6.978  1.00  0.00     0.169 C 
HETATM    9  C   UNL     1      42.263  -8.281   8.468  1.00  0.00     0.256 C 
HETATM   10  N   UNL     1      41.012  -8.505   9.361  1.00  0.00    -0.059 N 
HETATM   11  H   UNL     1      40.356  -7.756   9.107  1.00  0.00     0.281 HD
HETATM   12  C   UNL     1      40.310  -9.817   8.922  1.00  0.00     0.256 C 
HETATM   13  C   UNL     1      39.948  -9.750   7.418  1.00  0.00     0.169 C 
BRANCH  10  14
HETATM   14  C   UNL     1      41.251  -8.338  10.876  1.00  0.00     0.129 C 
HETATM   15  C   UNL     1      42.781  -8.371  11.147  1.00  0.00     0.043 C 
HETATM   16  C   UNL     1      43.070  -8.171  12.645  1.00  0.00    -0.012 C 
HETATM   17  C   UNL     1      42.372  -9.287  13.442  1.00  0.00     0.009 C 
HETATM   18  C   UNL     1      42.525  -6.807  13.089  1.00  0.00     0.009 C 
HETATM   19  C   UNL     1      40.853  -9.240  13.203  1.00  0.00    -0.012 C 
HETATM   20  C   UNL     1      40.562  -9.447  11.699  1.00  0.00     0.043 C 
HETATM   21  C   UNL     1      40.322  -7.868  13.647  1.00  0.00     0.009 C 
HETATM   22  C   UNL     1      41.012  -6.749  12.848  1.00  0.00    -0.012 C 
HETATM   23  C   UNL     1      40.723  -6.956  11.350  1.00  0.00     0.043 C 
ENDBRANCH  10  14
ENDBRANCH   3   7
BRANCH   1  24
HETATM   24  N   UNL     1      41.616 -13.818   4.916  1.00  0.00    -0.188 N 
HETATM   25  H   UNL     1      40.640 -13.919   5.168  1.00  0.00     0.184 HD
BRANCH  24  26
HETATM   26  C   UNL     1      42.238 -14.992   4.465  1.00  0.00     0.049 A 
HETATM   27  C   UNL     1      42.516 -16.083   5.294  1.00  0.00     0.033 A 
HETATM   28  C   UNL     1      43.174 -17.223   4.812  1.00  0.00     0.039 A 
HETATM   29  C   UNL     1      43.593 -17.283   3.486  1.00  0.00     0.078 A 
HETATM   30  C   UNL     1      43.341 -16.192   2.653  1.00  0.00     0.039 A 
HETATM   31  C   UNL     1      42.674 -15.060   3.137  1.00  0.00     0.033 A 
BRANCH  29  32
HETATM   32  O   UNL     1      44.248 -18.319   2.887  1.00  0.00    -0.255 OA
BRANCH  32  33
HETATM   33  C   UNL     1      43.492 -19.469   2.546  1.00  0.00     0.530 C 
HETATM   34  F   UNL     1      43.356 -20.292   3.609  1.00  0.00    -0.144 F 
HETATM   35  F   UNL     1      42.270 -19.129   2.084  1.00  0.00    -0.144 F 
HETATM   36  F   UNL     1      44.139 -20.145   1.573  1.00  0.00    -0.144 F 
ENDBRANCH  32  33
ENDBRANCH  29  32
ENDBRANCH  24  26
ENDBRANCH   1  24
BRANCH   5  37
HETATM   37  N   UNL     1      45.281 -11.552   6.685  1.00  0.00    -0.258 NA
HETATM   38  H   UNL     1      45.673 -12.487   6.628  1.00  0.00     0.130 HD
BRANCH  37  39
HETATM   39  C   UNL     1      45.619 -10.897   7.950  1.00  0.00     0.121 C 
BRANCH  39  40
HETATM   40  C   UNL     1      46.526  -9.676   7.742  1.00  0.00     0.178 C 
BRANCH  40  41
HETATM   41  O   UNL     1      45.824  -8.478   8.076  1.00  0.00    -0.400 OA
HETATM   42  H   UNL     1      46.456  -7.744   7.980  1.00  0.00     0.209 HD
ENDBRANCH  40  41
ENDBRANCH  39  40
ENDBRANCH  37  39
ENDBRANCH   5  37
TORSDOF 10
ENDMDL
MODEL 6
REMARK VINA RESULT:      -8.8      4.187      9.328
REMARK  10 active torsions:
REMARK  status: ('A' for Active; 'I' for Inactive)
REMARK    1  A    between atoms: C_2  and  N_3 
REMARK    2  A    between atoms: N_3  and  C_4 
REMARK    3  A    between atoms: C_6  and  N_7 
REMARK    4  A    between atoms: N_10  and  C_12 
REMARK    5  A    between atoms: C_25  and  N_26 
REMARK    6  A    between atoms: N_26  and  C_27 
REMARK    7  A    between atoms: C_27  and  C_28 
REMARK    8  A    between atoms: C_28  and  O_29 
REMARK    9  A    between atoms: C_33  and  O_34 
REMARK   10  A    between atoms: O_34  and  C_35 
ROOT
HETATM    1  C   UNL     1      41.614 -11.673   6.089  1.00  0.00     0.745 A 
HETATM    2  N   UNL     1      40.936 -10.593   6.463  1.00  0.00     0.130 NA
HETATM    3  C   UNL     1      41.626  -9.593   6.981  1.00  0.00     0.743 A 
HETATM    4  N   UNL     1      42.936  -9.650   7.173  1.00  0.00    -0.030 NA
HETATM    5  C   UNL     1      43.541 -10.769   6.796  1.00  0.00     0.238 A 
HETATM    6  N   UNL     1      42.918 -11.809   6.265  1.00  0.00    -0.030 NA
ENDROOT
BRANCH   3   7
HETATM    7  N   UNL     1      40.934  -8.438   7.355  1.00  0.00    -0.210 N 
HETATM    8  C   UNL     1      41.768  -7.289   7.727  1.00  0.00     0.169 C 
HETATM    9  C   UNL     1      42.272  -7.426   9.181  1.00  0.00     0.256 C 
HETATM   10  N   UNL     1      41.072  -7.599  10.151  1.00  0.00    -0.059 N 
HETATM   11  H   UNL     1      40.459  -6.793   9.977  1.00  0.00     0.281 HD
HETATM   12  C   UNL     1      40.243  -8.834   9.710  1.00  0.00     0.256 C 
HETATM   13  C   UNL     1      39.784  -8.670   8.240  1.00  0.00     0.169 C 
BRANCH  10  14
HETATM   14  C   UNL     1      41.428  -7.522  11.650  1.00  0.00     0.129 C 
HETATM   15  C   UNL     1      40.191  -7.964  12.481  1.00  0.00     0.043 C 
HETATM   16  C   UNL     1      40.511  -7.938  13.986  1.00  0.00    -0.012 C 
HETATM   17  C   UNL     1      40.926  -6.510  14.384  1.00  0.00     0.009 C 
HETATM   18  C   UNL     1      41.665  -8.906  14.276  1.00  0.00     0.009 C 
HETATM   19  C   UNL     1      42.170  -6.078  13.587  1.00  0.00    -0.012 C 
HETATM   20  C   UNL     1      41.846  -6.099  12.077  1.00  0.00     0.043 C 
HETATM   21  C   UNL     1      43.316  -7.059  13.884  1.00  0.00     0.009 C 
HETATM   22  C   UNL     1      42.907  -8.486  13.481  1.00  0.00    -0.012 C 
HETATM   23  C   UNL     1      42.585  -8.506  11.975  1.00  0.00     0.043 C 
ENDBRANCH  10  14
ENDBRANCH   3   7
BRANCH   1  24
HETATM   24  N   UNL     1      40.947 -12.757   5.522  1.00  0.00    -0.188 N 
HETATM   25  H   UNL     1      39.955 -12.697   5.715  1.00  0.00     0.184 HD
BRANCH  24  26
HETATM   26  C   UNL     1      41.409 -14.034   5.173  1.00  0.00     0.049 A 
HETATM   27  C   UNL     1      41.293 -15.149   6.009  1.00  0.00     0.033 A 
HETATM   28  C   UNL     1      41.802 -16.401   5.638  1.00  0.00     0.039 A 
HETATM   29  C   UNL     1      42.468 -16.557   4.425  1.00  0.00     0.078 A 
HETATM   30  C   UNL     1      42.610 -15.446   3.591  1.00  0.00     0.039 A 
HETATM   31  C   UNL     1      42.089 -14.201   3.961  1.00  0.00     0.033 A 
BRANCH  29  32
HETATM   32  O   UNL     1      43.019 -17.707   3.942  1.00  0.00    -0.255 OA
BRANCH  32  33
HETATM   33  C   UNL     1      44.137 -18.244   4.631  1.00  0.00     0.530 C 
HETATM   34  F   UNL     1      44.903 -17.260   5.151  1.00  0.00    -0.144 F 
HETATM   35  F   UNL     1      43.745 -19.075   5.620  1.00  0.00    -0.144 F 
HETATM   36  F   UNL     1      44.891 -18.947   3.760  1.00  0.00    -0.144 F 
ENDBRANCH  32  33
ENDBRANCH  29  32
ENDBRANCH  24  26
ENDBRANCH   1  24
BRANCH   5  37
HETATM   37  N   UNL     1      44.911 -10.796   6.985  1.00  0.00    -0.258 NA
HETATM   38  H   UNL     1      45.253 -11.710   6.702  1.00  0.00     0.130 HD
BRANCH  37  39
HETATM   39  C   UNL     1      45.395 -10.421   8.315  1.00  0.00     0.121 C 
BRANCH  39  40
HETATM   40  C   UNL     1      46.297  -9.180   8.271  1.00  0.00     0.178 C 
BRANCH  40  41
HETATM   41  O   UNL     1      45.503  -7.992   8.284  1.00  0.00    -0.400 OA
HETATM   42  H   UNL     1      46.082  -7.261   8.008  1.00  0.00     0.209 HD
ENDBRANCH  40  41
ENDBRANCH  39  40
ENDBRANCH  37  39
ENDBRANCH   5  37
TORSDOF 10
ENDMDL
MODEL 7
REMARK VINA RESULT:      -8.7      4.472      8.480
REMARK  10 active torsions:
REMARK  status: ('A' for Active; 'I' for Inactive)
REMARK    1  A    between atoms: C_2  and  N_3 
REMARK    2  A    between atoms: N_3  and  C_4 
REMARK    3  A    between atoms: C_6  and  N_7 
REMARK    4  A    between atoms: N_10  and  C_12 
REMARK    5  A    between atoms: C_25  and  N_26 
REMARK    6  A    between atoms: N_26  and  C_27 
REMARK    7  A    between atoms: C_27  and  C_28 
REMARK    8  A    between atoms: C_28  and  O_29 
REMARK    9  A    between atoms: C_33  and  O_34 
REMARK   10  A    between atoms: O_34  and  C_35 
ROOT
HETATM    1  C   UNL     1      41.633 -10.894   1.783  1.00  0.00     0.745 A 
HETATM    2  N   UNL     1      41.236 -12.145   1.985  1.00  0.00     0.130 NA
HETATM    3  C   UNL     1      40.923 -12.861   0.919  1.00  0.00     0.743 A 
HETATM    4  N   UNL     1      40.951 -12.367  -0.309  1.00  0.00    -0.030 NA
HETATM    5  C   UNL     1      41.335 -11.103  -0.431  1.00  0.00     0.238 A 
HETATM    6  N   UNL     1      41.670 -10.327   0.588  1.00  0.00    -0.030 NA
ENDROOT
BRANCH   3   7
HETATM    7  N   UNL     1      40.530 -14.189   1.109  1.00  0.00    -0.210 N 
HETATM    8  C   UNL     1      39.666 -14.436   2.269  1.00  0.00     0.169 C 
HETATM    9  C   UNL     1      40.503 -14.525   3.565  1.00  0.00     0.256 C 
HETATM   10  N   UNL     1      41.598 -15.617   3.425  1.00  0.00    -0.059 N 
HETATM   11  H   UNL     1      41.097 -16.477   3.170  1.00  0.00     0.281 HD
HETATM   12  C   UNL     1      42.480 -15.288   2.192  1.00  0.00     0.256 C 
HETATM   13  C   UNL     1      41.600 -15.179   0.922  1.00  0.00     0.169 C 
BRANCH  10  14
HETATM   14  C   UNL     1      42.352 -15.957   4.727  1.00  0.00     0.129 C 
HETATM   15  C   UNL     1      43.395 -17.069   4.424  1.00  0.00     0.043 C 
HETATM   16  C   UNL     1      44.199 -17.417   5.688  1.00  0.00    -0.012 C 
HETATM   17  C   UNL     1      43.229 -17.893   6.783  1.00  0.00     0.009 C 
HETATM   18  C   UNL     1      44.946 -16.167   6.174  1.00  0.00     0.009 C 
HETATM   19  C   UNL     1      42.213 -16.785   7.110  1.00  0.00    -0.012 C 
HETATM   20  C   UNL     1      41.401 -16.440   5.842  1.00  0.00     0.043 C 
HETATM   21  C   UNL     1      42.974 -15.539   7.591  1.00  0.00     0.009 C 
HETATM   22  C   UNL     1      43.940 -15.055   6.497  1.00  0.00    -0.012 C 
HETATM   23  C   UNL     1      43.131 -14.712   5.233  1.00  0.00     0.043 C 
ENDBRANCH  10  14
ENDBRANCH   3   7
BRANCH   1  24
HETATM   24  N   UNL     1      41.992 -10.090   2.863  1.00  0.00    -0.188 N 
HETATM   25  H   UNL     1      42.189  -9.149   2.548  1.00  0.00     0.184 HD
BRANCH  24  26
HETATM   26  C   UNL     1      42.538 -10.427   4.111  1.00  0.00     0.049 A 
HETATM   27  C   UNL     1      41.996 -10.001   5.328  1.00  0.00     0.033 A 
HETATM   28  C   UNL     1      42.594 -10.330   6.552  1.00  0.00     0.039 A 
HETATM   29  C   UNL     1      43.771 -11.073   6.582  1.00  0.00     0.078 A 
HETATM   30  C   UNL     1      44.334 -11.485   5.373  1.00  0.00     0.039 A 
HETATM   31  C   UNL     1      43.727 -11.164   4.153  1.00  0.00     0.033 A 
BRANCH  29  32
HETATM   32  O   UNL     1      44.463 -11.455   7.694  1.00  0.00    -0.255 OA
BRANCH  32  33
HETATM   33  C   UNL     1      45.521 -10.619   8.134  1.00  0.00     0.530 C 
HETATM   34  F   UNL     1      45.321  -9.341   7.744  1.00  0.00    -0.144 F 
HETATM   35  F   UNL     1      45.647 -10.662   9.477  1.00  0.00    -0.144 F 
HETATM   36  F   UNL     1      46.676 -11.049   7.585  1.00  0.00    -0.144 F 
ENDBRANCH  32  33
ENDBRANCH  29  32
ENDBRANCH  24  26
ENDBRANCH   1  24
BRANCH   5  37
HETATM   37  N   UNL     1      41.379 -10.616  -1.725  1.00  0.00    -0.258 NA
HETATM   38  H   UNL     1      41.000  -9.674  -1.724  1.00  0.00     0.130 HD
BRANCH  37  39
HETATM   39  C   UNL     1      40.761 -11.450  -2.758  1.00  0.00     0.121 C 
BRANCH  39  40
HETATM   40  C   UNL     1      39.352 -10.964  -3.125  1.00  0.00     0.178 C 
BRANCH  40  41
HETATM   41  O   UNL     1      39.399  -9.605  -3.562  1.00  0.00    -0.400 OA
HETATM   42  H   UNL     1      38.902  -9.559  -4.398  1.00  0.00     0.209 HD
ENDBRANCH  40  41
ENDBRANCH  39  40
ENDBRANCH  37  39
ENDBRANCH   5  37
TORSDOF 10
ENDMDL
MODEL 8
REMARK VINA RESULT:      -8.6      3.304      8.605
REMARK  10 active torsions:
REMARK  status: ('A' for Active; 'I' for Inactive)
REMARK    1  A    between atoms: C_2  and  N_3 
REMARK    2  A    between atoms: N_3  and  C_4 
REMARK    3  A    between atoms: C_6  and  N_7 
REMARK    4  A    between atoms: N_10  and  C_12 
REMARK    5  A    between atoms: C_25  and  N_26 
REMARK    6  A    between atoms: N_26  and  C_27 
REMARK    7  A    between atoms: C_27  and  C_28 
REMARK    8  A    between atoms: C_28  and  O_29 
REMARK    9  A    between atoms: C_33  and  O_34 
REMARK   10  A    between atoms: O_34  and  C_35 
ROOT
HETATM    1  C   UNL     1      41.630 -11.765   5.532  1.00  0.00     0.745 A 
HETATM    2  N   UNL     1      41.102 -10.750   6.208  1.00  0.00     0.130 NA
HETATM    3  C   UNL     1      40.987  -9.595   5.575  1.00  0.00     0.743 A 
HETATM    4  N   UNL     1      41.410  -9.414   4.333  1.00  0.00    -0.030 NA
HETATM    5  C   UNL     1      41.947 -10.466   3.731  1.00  0.00     0.238 A 
HETATM    6  N   UNL     1      42.090 -11.654   4.297  1.00  0.00    -0.030 NA
ENDROOT
BRANCH   3   7
HETATM    7  N   UNL     1      40.409  -8.523   6.261  1.00  0.00    -0.210 N 
HETATM    8  C   UNL     1      41.340  -7.491   6.730  1.00  0.00     0.169 C 
HETATM    9  C   UNL     1      42.025  -7.929   8.044  1.00  0.00     0.256 C 
HETATM   10  N   UNL     1      40.958  -8.266   9.120  1.00  0.00    -0.059 N 
HETATM   11  H   UNL     1      40.367  -7.428   9.194  1.00  0.00     0.281 HD
HETATM   12  C   UNL     1      40.017  -9.369   8.566  1.00  0.00     0.256 C 
HETATM   13  C   UNL     1      39.376  -8.903   7.235  1.00  0.00     0.169 C 
BRANCH  10  14
HETATM   14  C   UNL     1      41.512  -8.499  10.540  1.00  0.00     0.129 C 
HETATM   15  C   UNL     1      40.706  -9.647  11.209  1.00  0.00     0.043 C 
HETATM   16  C   UNL     1      41.248  -9.940  12.619  1.00  0.00    -0.012 C 
HETATM   17  C   UNL     1      41.145  -8.663  13.470  1.00  0.00     0.009 C 
HETATM   18  C   UNL     1      42.718 -10.371  12.517  1.00  0.00     0.009 C 
HETATM   19  C   UNL     1      41.967  -7.530  12.829  1.00  0.00    -0.012 C 
HETATM   20  C   UNL     1      41.418  -7.232  11.417  1.00  0.00     0.043 C 
HETATM   21  C   UNL     1      43.435  -7.977  12.730  1.00  0.00     0.009 C 
HETATM   22  C   UNL     1      43.544  -9.250  11.874  1.00  0.00    -0.012 C 
HETATM   23  C   UNL     1      42.996  -8.952  10.466  1.00  0.00     0.043 C 
ENDBRANCH  10  14
ENDBRANCH   3   7
BRANCH   1  24
HETATM   24  N   UNL     1      41.766 -13.013   6.136  1.00  0.00    -0.188 N 
HETATM   25  H   UNL     1      42.002 -12.904   7.114  1.00  0.00     0.184 HD
BRANCH  24  26
HETATM   26  C   UNL     1      42.071 -14.266   5.586  1.00  0.00     0.049 A 
HETATM   27  C   UNL     1      41.152 -15.035   4.864  1.00  0.00     0.033 A 
HETATM   28  C   UNL     1      41.487 -16.300   4.362  1.00  0.00     0.039 A 
HETATM   29  C   UNL     1      42.749 -16.838   4.598  1.00  0.00     0.078 A 
HETATM   30  C   UNL     1      43.669 -16.090   5.336  1.00  0.00     0.039 A 
HETATM   31  C   UNL     1      43.333 -14.822   5.825  1.00  0.00     0.033 A 
BRANCH  29  32
HETATM   32  O   UNL     1      43.206 -18.053   4.181  1.00  0.00    -0.255 OA
BRANCH  32  33
HETATM   33  C   UNL     1      43.451 -18.227   2.795  1.00  0.00     0.530 C 
HETATM   34  F   UNL     1      43.783 -17.054   2.212  1.00  0.00    -0.144 F 
HETATM   35  F   UNL     1      44.437 -19.125   2.585  1.00  0.00    -0.144 F 
HETATM   36  F   UNL     1      42.327 -18.684   2.205  1.00  0.00    -0.144 F 
ENDBRANCH  32  33
ENDBRANCH  29  32
ENDBRANCH  24  26
ENDBRANCH   1  24
BRANCH   5  37
HETATM   37  N   UNL     1      42.361 -10.258   2.427  1.00  0.00    -0.258 NA
HETATM   38  H   UNL     1      42.497  -9.261   2.291  1.00  0.00     0.130 HD
BRANCH  37  39
HETATM   39  C   UNL     1      41.525 -10.842   1.376  1.00  0.00     0.121 C 
BRANCH  39  40
HETATM   40  C   UNL     1      41.291  -9.864   0.216  1.00  0.00     0.178 C 
BRANCH  40  41
HETATM   41  O   UNL     1      42.399  -8.970   0.095  1.00  0.00    -0.400 OA
HETATM   42  H   UNL     1      42.029  -8.078  -0.032  1.00  0.00     0.209 HD
ENDBRANCH  40  41
ENDBRANCH  39  40
ENDBRANCH  37  39
ENDBRANCH   5  37
TORSDOF 10
ENDMDL
MODEL 9
REMARK VINA RESULT:      -8.5      3.523      5.980
REMARK  10 active torsions:
REMARK  status: ('A' for Active; 'I' for Inactive)
REMARK    1  A    between atoms: C_2  and  N_3 
REMARK    2  A    between atoms: N_3  and  C_4 
REMARK    3  A    between atoms: C_6  and  N_7 
REMARK    4  A    between atoms: N_10  and  C_12 
REMARK    5  A    between atoms: C_25  and  N_26 
REMARK    6  A    between atoms: N_26  and  C_27 
REMARK    7  A    between atoms: C_27  and  C_28 
REMARK    8  A    between atoms: C_28  and  O_29 
REMARK    9  A    between atoms: C_33  and  O_34 
REMARK   10  A    between atoms: O_34  and  C_35 
ROOT
HETATM    1  C   UNL     1      40.770 -13.529   1.515  1.00  0.00     0.745 A 
HETATM    2  N   UNL     1      40.228 -12.323   1.641  1.00  0.00     0.130 NA
HETATM    3  C   UNL     1      39.285 -11.988   0.777  1.00  0.00     0.743 A 
HETATM    4  N   UNL     1      38.905 -12.784  -0.211  1.00  0.00    -0.030 NA
HETATM    5  C   UNL     1      39.506 -13.964  -0.287  1.00  0.00     0.238 A 
HETATM    6  N   UNL     1      40.453 -14.371   0.545  1.00  0.00    -0.030 NA
ENDROOT
BRANCH   3   7
HETATM    7  N   UNL     1      38.684 -10.734   0.910  1.00  0.00    -0.210 N 
HETATM    8  C   UNL     1      38.152 -10.150  -0.326  1.00  0.00     0.169 C 
HETATM    9  C   UNL     1      39.281  -9.492  -1.150  1.00  0.00     0.256 C 
HETATM   10  N   UNL     1      40.027  -8.434  -0.294  1.00  0.00    -0.059 N 
HETATM   11  H   UNL     1      39.300  -7.790   0.042  1.00  0.00     0.281 HD
HETATM   12  C   UNL     1      40.573  -9.119   0.987  1.00  0.00     0.256 C 
HETATM   13  C   UNL     1      39.416  -9.790   1.767  1.00  0.00     0.169 C 
BRANCH  10  14
HETATM   14  C   UNL     1      41.026  -7.551  -1.069  1.00  0.00     0.129 C 
HETATM   15  C   UNL     1      42.388  -8.293  -1.154  1.00  0.00     0.043 C 
HETATM   16  C   UNL     1      43.409  -7.464  -1.952  1.00  0.00    -0.012 C 
HETATM   17  C   UNL     1      43.597  -6.102  -1.261  1.00  0.00     0.009 C 
HETATM   18  C   UNL     1      42.883  -7.247  -3.377  1.00  0.00     0.009 C 
HETATM   19  C   UNL     1      42.257  -5.348  -1.202  1.00  0.00    -0.012 C 
HETATM   20  C   UNL     1      41.234  -6.178  -0.395  1.00  0.00     0.043 C 
HETATM   21  C   UNL     1      41.740  -5.142  -2.634  1.00  0.00     0.009 C 
HETATM   22  C   UNL     1      41.543  -6.501  -3.327  1.00  0.00    -0.012 C 
HETATM   23  C   UNL     1      40.525  -7.328  -2.522  1.00  0.00     0.043 C 
ENDBRANCH  10  14
ENDBRANCH   3   7
BRANCH   1  24
HETATM   24  N   UNL     1      41.758 -13.949   2.404  1.00  0.00    -0.188 N 
HETATM   25  H   UNL     1      42.363 -13.175   2.646  1.00  0.00     0.184 HD
BRANCH  24  26
HETATM   26  C   UNL     1      42.301 -15.222   2.632  1.00  0.00     0.049 A 
HETATM   27  C   UNL     1      42.187 -15.902   3.848  1.00  0.00     0.033 A 
HETATM   28  C   UNL     1      42.777 -17.157   4.047  1.00  0.00     0.039 A 
HETATM   29  C   UNL     1      43.523 -17.751   3.031  1.00  0.00     0.078 A 
HETATM   30  C   UNL     1      43.662 -17.074   1.819  1.00  0.00     0.039 A 
HETATM   31  C   UNL     1      43.061 -15.824   1.622  1.00  0.00     0.033 A 
BRANCH  29  32
HETATM   32  O   UNL     1      44.157 -18.957   3.087  1.00  0.00    -0.255 OA
BRANCH  32  33
HETATM   33  C   UNL     1      43.509 -20.072   2.497  1.00  0.00     0.530 C 
HETATM   34  F   UNL     1      44.219 -20.547   1.451  1.00  0.00    -0.144 F 
HETATM   35  F   UNL     1      43.327 -21.061   3.399  1.00  0.00    -0.144 F 
HETATM   36  F   UNL     1      42.299 -19.685   2.042  1.00  0.00    -0.144 F 
ENDBRANCH  32  33
ENDBRANCH  29  32
ENDBRANCH  24  26
ENDBRANCH   1  24
BRANCH   5  37
HETATM   37  N   UNL     1      39.076 -14.786  -1.312  1.00  0.00    -0.258 NA
HETATM   38  H   UNL     1      39.478 -15.708  -1.171  1.00  0.00     0.130 HD
BRANCH  37  39
HETATM   39  C   UNL     1      39.296 -14.299  -2.676  1.00  0.00     0.121 C 
BRANCH  39  40
HETATM   40  C   UNL     1      37.985 -14.194  -3.468  1.00  0.00     0.178 C 
BRANCH  40  41
HETATM   41  O   UNL     1      38.066 -14.979  -4.660  1.00  0.00    -0.400 OA
HETATM   42  H   UNL     1      37.211 -15.434  -4.756  1.00  0.00     0.209 HD
ENDBRANCH  40  41
ENDBRANCH  39  40
ENDBRANCH  37  39
ENDBRANCH   5  37
TORSDOF 10
ENDMDL
MODEL 10
REMARK VINA RESULT:      -8.5      2.813      4.790
REMARK  10 active torsions:
REMARK  status: ('A' for Active; 'I' for Inactive)
REMARK    1  A    between atoms: C_2  and  N_3 
REMARK    2  A    between atoms: N_3  and  C_4 
REMARK    3  A    between atoms: C_6  and  N_7 
REMARK    4  A    between atoms: N_10  and  C_12 
REMARK    5  A    between atoms: C_25  and  N_26 
REMARK    6  A    between atoms: N_26  and  C_27 
REMARK    7  A    between atoms: C_27  and  C_28 
REMARK    8  A    between atoms: C_28  and  O_29 
REMARK    9  A    between atoms: C_33  and  O_34 
REMARK   10  A    between atoms: O_34  and  C_35 
ROOT
HETATM    1  C   UNL     1      40.703 -14.509   1.535  1.00  0.00     0.745 A 
HETATM    2  N   UNL     1      40.320 -14.609   0.266  1.00  0.00     0.130 NA
HETATM    3  C   UNL     1      40.491 -13.549  -0.504  1.00  0.00     0.743 A 
HETATM    4  N   UNL     1      40.984 -12.406  -0.050  1.00  0.00    -0.030 NA
HETATM    5  C   UNL     1      41.323 -12.375   1.231  1.00  0.00     0.238 A 
HETATM    6  N   UNL     1      41.186 -13.396   2.062  1.00  0.00    -0.030 NA
ENDROOT
BRANCH   3   7
HETATM    7  N   UNL     1      40.120 -13.644  -1.848  1.00  0.00    -0.210 N 
HETATM    8  C   UNL     1      40.499 -12.507  -2.694  1.00  0.00     0.169 C 
HETATM    9  C   UNL     1      39.497 -11.342  -2.526  1.00  0.00     0.256 C 
HETATM   10  N   UNL     1      38.054 -11.825  -2.832  1.00  0.00    -0.059 N 
HETATM   11  H   UNL     1      38.095 -12.233  -3.774  1.00  0.00     0.281 HD
HETATM   12  C   UNL     1      37.715 -13.016  -1.897  1.00  0.00     0.256 C 
HETATM   13  C   UNL     1      38.758 -14.147  -2.074  1.00  0.00     0.169 C 
BRANCH  10  14
HETATM   14  C   UNL     1      36.994 -10.708  -2.918  1.00  0.00     0.129 C 
HETATM   15  C   UNL     1      35.659 -11.323  -3.421  1.00  0.00     0.043 C 
HETATM   16  C   UNL     1      34.559 -10.249  -3.488  1.00  0.00    -0.012 C 
HETATM   17  C   UNL     1      35.011  -9.129  -4.441  1.00  0.00     0.009 C 
HETATM   18  C   UNL     1      34.331  -9.668  -2.086  1.00  0.00     0.009 C 
HETATM   19  C   UNL     1      36.317  -8.494  -3.932  1.00  0.00    -0.012 C 
HETATM   20  C   UNL     1      37.423  -9.571  -3.870  1.00  0.00     0.043 C 
HETATM   21  C   UNL     1      36.076  -7.921  -2.526  1.00  0.00     0.009 C 
HETATM   22  C   UNL     1      35.631  -9.039  -1.568  1.00  0.00    -0.012 C 
HETATM   23  C   UNL     1      36.732 -10.112  -1.508  1.00  0.00     0.043 C 
ENDBRANCH  10  14
ENDBRANCH   3   7
BRANCH   1  24
HETATM   24  N   UNL     1      40.563 -15.595   2.396  1.00  0.00    -0.188 N 
HETATM   25  H   UNL     1      39.690 -15.529   2.903  1.00  0.00     0.184 HD
BRANCH  24  26
HETATM   26  C   UNL     1      41.528 -16.430   2.979  1.00  0.00     0.049 A 
HETATM   27  C   UNL     1      41.893 -16.360   4.327  1.00  0.00     0.033 A 
HETATM   28  C   UNL     1      42.890 -17.187   4.862  1.00  0.00     0.039 A 
HETATM   29  C   UNL     1      43.565 -18.090   4.045  1.00  0.00     0.078 A 
HETATM   30  C   UNL     1      43.226 -18.155   2.693  1.00  0.00     0.039 A 
HETATM   31  C   UNL     1      42.221 -17.334   2.166  1.00  0.00     0.033 A 
BRANCH  29  32
HETATM   32  O   UNL     1      44.557 -18.946   4.426  1.00  0.00    -0.255 OA
BRANCH  32  33
HETATM   33  C   UNL     1      44.177 -20.205   4.956  1.00  0.00     0.530 C 
HETATM   34  F   UNL     1      45.262 -20.957   5.243  1.00  0.00    -0.144 F 
HETATM   35  F   UNL     1      43.428 -20.057   6.070  1.00  0.00    -0.144 F 
HETATM   36  F   UNL     1      43.442 -20.863   4.035  1.00  0.00    -0.144 F 
ENDBRANCH  32  33
ENDBRANCH  29  32
ENDBRANCH  24  26
ENDBRANCH   1  24
BRANCH   5  37
HETATM   37  N   UNL     1      41.856 -11.178   1.677  1.00  0.00    -0.258 NA
HETATM   38  H   UNL     1      42.340 -10.737   0.901  1.00  0.00     0.130 HD
BRANCH  37  39
HETATM   39  C   UNL     1      42.692 -11.242   2.877  1.00  0.00     0.121 C 
BRANCH  39  40
HETATM   40  C   UNL     1      42.130 -10.383   4.018  1.00  0.00     0.178 C 
BRANCH  40  41
HETATM   41  O   UNL     1      41.721  -9.108   3.519  1.00  0.00    -0.400 OA
HETATM   42  H   UNL     1      41.082  -8.746   4.158  1.00  0.00     0.209 HD
ENDBRANCH  40  41
ENDBRANCH  39  40
ENDBRANCH  37  39
ENDBRANCH   5  37
TORSDOF 10
ENDMDL
