MODEL 1
REMARK VINA RESULT:      -8.3      0.000      0.000
REMARK  3 active torsions:
REMARK  status: ('A' for Active; 'I' for Inactive)
REMARK    1  A    between atoms: C_9  and  C_10 
REMARK    2  A    between atoms: C_10  and  N_11 
REMARK    3  A    between atoms: C_15  and  N_16 
REMARK       I    between atoms: N_16  and  C_17 
REMARK       I    between atoms: C_17  and  N_18 
ROOT
HETATM    1  N   UNL     1      42.620 -13.703   6.173  1.00  0.00    -0.067 N 
HETATM    2  H   UNL     1      42.582 -12.889   6.796  1.00  0.00     0.280 HD
HETATM    3  C   UNL     1      42.688 -13.224   4.741  1.00  0.00     0.237 C 
HETATM    4  C   UNL     1      41.467 -12.373   4.421  1.00  0.00     0.053 C 
HETATM    5  C   UNL     1      40.165 -13.149   4.636  1.00  0.00     0.089 C 
HETATM    6  C   UNL     1      40.132 -13.710   6.062  1.00  0.00     0.053 C 
HETATM    7  C   UNL     1      41.368 -14.521   6.422  1.00  0.00     0.237 C 
ENDROOT
BRANCH   1   8
HETATM    8  C   UNL     1      43.847 -14.507   6.564  1.00  0.00     0.271 C 
BRANCH   8   9
HETATM    9  C   UNL     1      43.822 -15.961   6.194  1.00  0.00    -0.029 C 
HETATM   10  C   UNL     1      43.975 -16.910   7.366  1.00  0.00     0.211 C 
HETATM   11  O   UNL     1      43.524 -18.251   7.146  1.00  0.00    -0.346 OA
HETATM   12  C   UNL     1      43.668 -18.731   5.876  1.00  0.00     0.079 A 
HETATM   13  C   UNL     1      43.772 -17.894   4.761  1.00  0.00    -0.001 A 
HETATM   14  C   UNL     1      43.652 -20.118   5.726  1.00  0.00     0.039 A 
HETATM   15  C   UNL     1      43.878 -18.460   3.486  1.00  0.00     0.038 A 
HETATM   16  C   UNL     1      43.732 -16.446   4.942  1.00  0.00     0.021 C 
HETATM   17  C   UNL     1      43.880 -19.849   3.342  1.00  0.00     0.035 A 
HETATM   18  C   UNL     1      43.765 -20.681   4.454  1.00  0.00     0.026 A 
HETATM   19 CL   UNL     1      44.014 -20.538   1.771  1.00  0.00    -0.084 Cl
ENDBRANCH   8   9
ENDBRANCH   1   8
BRANCH   5  20
HETATM   20  N   UNL     1      39.956 -14.084   3.529  1.00  0.00    -0.339 N 
HETATM   21  C   UNL     1      39.635 -13.787   2.240  1.00  0.00     0.314 C 
HETATM   22  N   UNL     1      39.616 -14.878   1.440  1.00  0.00    -0.352 N 
HETATM   23  O   UNL     1      39.303 -12.689   1.824  1.00  0.00    -0.248 OA
HETATM   24  H   UNL     1      40.300 -15.610   1.577  1.00  0.00     0.160 HD
HETATM   25  H   UNL     1      39.438 -14.668   0.464  1.00  0.00     0.160 HD
HETATM   26  H   UNL     1      40.317 -15.021   3.659  1.00  0.00     0.164 HD
ENDBRANCH   5  20
TORSDOF 3
ENDMDL
MODEL 2
REMARK VINA RESULT:      -8.3      2.023      2.912
REMARK  3 active torsions:
REMARK  status: ('A' for Active; 'I' for Inactive)
REMARK    1  A    between atoms: C_9  and  C_10 
REMARK    2  A    between atoms: C_10  and  N_11 
REMARK    3  A    between atoms: C_15  and  N_16 
REMARK       I    between atoms: N_16  and  C_17 
REMARK       I    between atoms: C_17  and  N_18 
ROOT
HETATM    1  N   UNL     1      42.645 -13.752   5.626  1.00  0.00    -0.067 N 
HETATM    2  H   UNL     1      42.603 -14.048   4.644  1.00  0.00     0.280 HD
HETATM    3  C   UNL     1      41.289 -13.964   6.262  1.00  0.00     0.237 C 
HETATM    4  C   UNL     1      40.235 -13.162   5.513  1.00  0.00     0.053 C 
HETATM    5  C   UNL     1      40.562 -11.666   5.504  1.00  0.00     0.089 C 
HETATM    6  C   UNL     1      41.971 -11.454   4.939  1.00  0.00     0.053 C 
HETATM    7  C   UNL     1      43.035 -12.286   5.639  1.00  0.00     0.237 C 
ENDROOT
BRANCH   1   8
HETATM    8  C   UNL     1      43.725 -14.580   6.297  1.00  0.00     0.271 C 
BRANCH   8   9
HETATM    9  C   UNL     1      43.742 -16.040   5.948  1.00  0.00    -0.029 C 
HETATM   10  C   UNL     1      43.972 -16.965   7.128  1.00  0.00     0.211 C 
HETATM   11  O   UNL     1      43.566 -18.324   6.942  1.00  0.00    -0.346 OA
HETATM   12  C   UNL     1      43.683 -18.818   5.674  1.00  0.00     0.079 A 
HETATM   13  C   UNL     1      43.715 -17.994   4.545  1.00  0.00    -0.001 A 
HETATM   14  C   UNL     1      43.714 -20.207   5.544  1.00  0.00     0.039 A 
HETATM   15  C   UNL     1      43.798 -18.575   3.275  1.00  0.00     0.038 A 
HETATM   16  C   UNL     1      43.627 -16.546   4.707  1.00  0.00     0.021 C 
HETATM   17  C   UNL     1      43.848 -19.966   3.149  1.00  0.00     0.035 A 
HETATM   18  C   UNL     1      43.804 -20.784   4.277  1.00  0.00     0.026 A 
HETATM   19 CL   UNL     1      43.953 -20.672   1.584  1.00  0.00    -0.084 Cl
ENDBRANCH   8   9
ENDBRANCH   1   8
BRANCH   5  20
HETATM   20  N   UNL     1      40.254 -11.084   6.811  1.00  0.00    -0.339 N 
HETATM   21  C   UNL     1      39.027 -10.879   7.362  1.00  0.00     0.314 C 
HETATM   22  N   UNL     1      39.092 -10.415   8.632  1.00  0.00    -0.352 N 
HETATM   23  O   UNL     1      37.958 -10.997   6.784  1.00  0.00    -0.248 OA
HETATM   24  H   UNL     1      39.812 -10.759   9.251  1.00  0.00     0.160 HD
HETATM   25  H   UNL     1      38.187 -10.314   9.078  1.00  0.00     0.160 HD
HETATM   26  H   UNL     1      41.016 -11.049   7.477  1.00  0.00     0.164 HD
ENDBRANCH   5  20
TORSDOF 3
ENDMDL
MODEL 3
REMARK VINA RESULT:      -8.1      2.606      3.995
REMARK  3 active torsions:
REMARK  status: ('A' for Active; 'I' for Inactive)
REMARK    1  A    between atoms: C_9  and  C_10 
REMARK    2  A    between atoms: C_10  and  N_11 
REMARK    3  A    between atoms: C_15  and  N_16 
REMARK       I    between atoms: N_16  and  C_17 
REMARK       I    between atoms: C_17  and  N_18 
ROOT
HETATM    1  N   UNL     1      40.291 -13.025   2.181  1.00  0.00    -0.067 N 
HETATM    2  H   UNL     1      40.804 -12.143   2.290  1.00  0.00     0.280 HD
HETATM    3  C   UNL     1      40.952 -13.847   1.097  1.00  0.00     0.237 C 
HETATM    4  C   UNL     1      40.954 -13.072  -0.213  1.00  0.00     0.053 C 
HETATM    5  C   UNL     1      39.535 -12.700  -0.652  1.00  0.00     0.089 C 
HETATM    6  C   UNL     1      38.831 -11.941   0.478  1.00  0.00     0.053 C 
HETATM    7  C   UNL     1      38.863 -12.674   1.811  1.00  0.00     0.237 C 
ENDROOT
BRANCH   1   8
HETATM    8  C   UNL     1      40.319 -13.728   3.525  1.00  0.00     0.271 C 
BRANCH   8   9
HETATM    9  C   UNL     1      41.319 -14.839   3.663  1.00  0.00    -0.029 C 
HETATM   10  C   UNL     1      42.474 -14.532   4.596  1.00  0.00     0.211 C 
HETATM   11  O   UNL     1      43.188 -15.666   5.099  1.00  0.00    -0.346 OA
HETATM   12  C   UNL     1      43.275 -16.741   4.260  1.00  0.00     0.079 A 
HETATM   13  C   UNL     1      42.368 -16.958   3.218  1.00  0.00    -0.001 A 
HETATM   14  C   UNL     1      44.291 -17.659   4.524  1.00  0.00     0.039 A 
HETATM   15  C   UNL     1      42.498 -18.103   2.424  1.00  0.00     0.038 A 
HETATM   16  C   UNL     1      41.282 -16.008   2.999  1.00  0.00     0.021 C 
HETATM   17  C   UNL     1      43.529 -19.011   2.680  1.00  0.00     0.035 A 
HETATM   18  C   UNL     1      44.424 -18.796   3.726  1.00  0.00     0.026 A 
HETATM   19 CL   UNL     1      43.684 -20.414   1.697  1.00  0.00    -0.084 Cl
ENDBRANCH   8   9
ENDBRANCH   1   8
BRANCH   5  20
HETATM   20  N   UNL     1      38.863 -13.878  -1.206  1.00  0.00    -0.339 N 
HETATM   21  C   UNL     1      39.048 -14.439  -2.432  1.00  0.00     0.314 C 
HETATM   22  N   UNL     1      38.344 -15.584  -2.596  1.00  0.00    -0.352 N 
HETATM   23  O   UNL     1      39.692 -13.954  -3.348  1.00  0.00    -0.248 OA
HETATM   24  H   UNL     1      38.241 -16.221  -1.819  1.00  0.00     0.160 HD
HETATM   25  H   UNL     1      38.516 -16.048  -3.482  1.00  0.00     0.160 HD
HETATM   26  H   UNL     1      38.396 -14.481  -0.542  1.00  0.00     0.164 HD
ENDBRANCH   5  20
TORSDOF 3
ENDMDL
MODEL 4
REMARK VINA RESULT:      -8.0      3.255      5.021
REMARK  3 active torsions:
REMARK  status: ('A' for Active; 'I' for Inactive)
REMARK    1  A    between atoms: C_9  and  C_10 
REMARK    2  A    between atoms: C_10  and  N_11 
REMARK    3  A    between atoms: C_15  and  N_16 
REMARK       I    between atoms: N_16  and  C_17 
REMARK       I    between atoms: C_17  and  N_18 
ROOT
HETATM    1  N   UNL     1      42.474 -12.739   5.603  1.00  0.00    -0.067 N 
HETATM    2  H   UNL     1      43.032 -12.542   4.765  1.00  0.00     0.280 HD
HETATM    3  C   UNL     1      41.835 -11.455   6.083  1.00  0.00     0.237 C 
HETATM    4  C   UNL     1      42.912 -10.426   6.396  1.00  0.00     0.053 C 
HETATM    5  C   UNL     1      43.889 -10.936   7.459  1.00  0.00     0.089 C 
HETATM    6  C   UNL     1      44.474 -12.281   7.015  1.00  0.00     0.053 C 
HETATM    7  C   UNL     1      43.415 -13.309   6.647  1.00  0.00     0.237 C 
ENDROOT
BRANCH   1   8
HETATM    8  C   UNL     1      41.440 -13.780   5.216  1.00  0.00     0.271 C 
BRANCH   8   9
HETATM    9  C   UNL     1      41.976 -15.030   4.579  1.00  0.00    -0.029 C 
HETATM   10  C   UNL     1      41.619 -15.190   3.114  1.00  0.00     0.211 C 
HETATM   11  O   UNL     1      42.442 -16.091   2.367  1.00  0.00    -0.346 OA
HETATM   12  C   UNL     1      42.937 -17.162   3.055  1.00  0.00     0.079 A 
HETATM   13  C   UNL     1      43.072 -17.167   4.446  1.00  0.00    -0.001 A 
HETATM   14  C   UNL     1      43.361 -18.253   2.294  1.00  0.00     0.039 A 
HETATM   15  C   UNL     1      43.623 -18.288   5.077  1.00  0.00     0.038 A 
HETATM   16  C   UNL     1      42.670 -15.991   5.213  1.00  0.00     0.021 C 
HETATM   17  C   UNL     1      44.030 -19.385   4.314  1.00  0.00     0.035 A 
HETATM   18  C   UNL     1      43.903 -19.371   2.926  1.00  0.00     0.026 A 
HETATM   19 CL   UNL     1      44.704 -20.760   5.098  1.00  0.00    -0.084 Cl
ENDBRANCH   8   9
ENDBRANCH   1   8
BRANCH   5  20
HETATM   20  N   UNL     1      43.263 -10.865   8.781  1.00  0.00    -0.339 N 
HETATM   21  C   UNL     1      43.877 -10.696   9.984  1.00  0.00     0.314 C 
HETATM   22  N   UNL     1      43.001 -10.571  11.007  1.00  0.00    -0.352 N 
HETATM   23  O   UNL     1      45.081 -10.738  10.181  1.00  0.00    -0.248 OA
HETATM   24  H   UNL     1      42.139 -10.064  10.866  1.00  0.00     0.160 HD
HETATM   25  H   UNL     1      43.440 -10.383  11.902  1.00  0.00     0.160 HD
HETATM   26  H   UNL     1      42.268 -10.682   8.797  1.00  0.00     0.164 HD
ENDBRANCH   5  20
TORSDOF 3
ENDMDL
MODEL 5
REMARK VINA RESULT:      -7.9      3.663      5.348
REMARK  3 active torsions:
REMARK  status: ('A' for Active; 'I' for Inactive)
REMARK    1  A    between atoms: C_9  and  C_10 
REMARK    2  A    between atoms: C_10  and  N_11 
REMARK    3  A    between atoms: C_15  and  N_16 
REMARK       I    between atoms: N_16  and  C_17 
REMARK       I    between atoms: C_17  and  N_18 
ROOT
HETATM    1  N   UNL     1      40.878 -13.584  -0.007  1.00  0.00    -0.067 N 
HETATM    2  H   UNL     1      41.793 -13.999  -0.218  1.00  0.00     0.280 HD
HETATM    3  C   UNL     1      39.821 -14.273  -0.840  1.00  0.00     0.237 C 
HETATM    4  C   UNL     1      40.143 -14.115  -2.319  1.00  0.00     0.053 C 
HETATM    5  C   UNL     1      40.228 -12.641  -2.725  1.00  0.00     0.089 C 
HETATM    6  C   UNL     1      41.237 -11.919  -1.824  1.00  0.00     0.053 C 
HETATM    7  C   UNL     1      40.965 -12.107  -0.339  1.00  0.00     0.237 C 
ENDROOT
BRANCH   1   8
HETATM    8  C   UNL     1      40.639 -13.765   1.481  1.00  0.00     0.271 C 
BRANCH   8   9
HETATM    9  C   UNL     1      41.501 -14.788   2.163  1.00  0.00    -0.029 C 
HETATM   10  C   UNL     1      42.389 -14.230   3.258  1.00  0.00     0.211 C 
HETATM   11  O   UNL     1      42.878 -15.182   4.208  1.00  0.00    -0.346 OA
HETATM   12  C   UNL     1      43.117 -16.439   3.731  1.00  0.00     0.079 A 
HETATM   13  C   UNL     1      42.502 -16.936   2.578  1.00  0.00    -0.001 A 
HETATM   14  C   UNL     1      43.973 -17.243   4.485  1.00  0.00     0.039 A 
HETATM   15  C   UNL     1      42.766 -18.249   2.172  1.00  0.00     0.038 A 
HETATM   16  C   UNL     1      41.568 -16.091   1.839  1.00  0.00     0.021 C 
HETATM   17  C   UNL     1      43.639 -19.044   2.919  1.00  0.00     0.035 A 
HETATM   18  C   UNL     1      44.241 -18.548   4.074  1.00  0.00     0.026 A 
HETATM   19 CL   UNL     1      43.961 -20.656   2.411  1.00  0.00    -0.084 Cl
ENDBRANCH   8   9
ENDBRANCH   1   8
BRANCH   5  20
HETATM   20  N   UNL     1      38.880 -12.078  -2.831  1.00  0.00    -0.339 N 
HETATM   21  C   UNL     1      38.529 -10.842  -3.278  1.00  0.00     0.314 C 
HETATM   22  N   UNL     1      37.188 -10.670  -3.346  1.00  0.00    -0.352 N 
HETATM   23  O   UNL     1      39.299  -9.925  -3.516  1.00  0.00    -0.248 OA
HETATM   24  H   UNL     1      36.601 -11.439  -3.638  1.00  0.00     0.160 HD
HETATM   25  H   UNL     1      36.909  -9.776  -3.735  1.00  0.00     0.160 HD
HETATM   26  H   UNL     1      38.115 -12.739  -2.801  1.00  0.00     0.164 HD
ENDBRANCH   5  20
TORSDOF 3
ENDMDL
MODEL 6
REMARK VINA RESULT:      -7.8      2.866      4.046
REMARK  3 active torsions:
REMARK  status: ('A' for Active; 'I' for Inactive)
REMARK    1  A    between atoms: C_9  and  C_10 
REMARK    2  A    between atoms: C_10  and  N_11 
REMARK    3  A    between atoms: C_15  and  N_16 
REMARK       I    between atoms: N_16  and  C_17 
REMARK       I    between atoms: C_17  and  N_18 
ROOT
HETATM    1  N   UNL     1      41.451 -13.176   4.216  1.00  0.00    -0.067 N 
HETATM    2  H   UNL     1      40.792 -13.577   3.540  1.00  0.00     0.280 HD
HETATM    3  C   UNL     1      41.090 -13.660   5.602  1.00  0.00     0.237 C 
HETATM    4  C   UNL     1      39.666 -13.242   5.941  1.00  0.00     0.053 C 
HETATM    5  C   UNL     1      39.491 -11.723   5.872  1.00  0.00     0.089 C 
HETATM    6  C   UNL     1      39.938 -11.218   4.496  1.00  0.00     0.053 C 
HETATM    7  C   UNL     1      41.340 -11.667   4.114  1.00  0.00     0.237 C 
ENDROOT
BRANCH   1   8
HETATM    8  C   UNL     1      42.842 -13.621   3.802  1.00  0.00     0.271 C 
BRANCH   8   9
HETATM    9  C   UNL     1      43.000 -15.084   3.505  1.00  0.00    -0.029 C 
HETATM   10  C   UNL     1      42.415 -15.521   2.175  1.00  0.00     0.211 C 
HETATM   11  O   UNL     1      42.911 -16.758   1.653  1.00  0.00    -0.346 OA
HETATM   12  C   UNL     1      43.253 -17.705   2.576  1.00  0.00     0.079 A 
HETATM   13  C   UNL     1      43.577 -17.386   3.897  1.00  0.00    -0.001 A 
HETATM   14  C   UNL     1      43.320 -19.023   2.123  1.00  0.00     0.039 A 
HETATM   15  C   UNL     1      43.956 -18.408   4.776  1.00  0.00     0.038 A 
HETATM   16  C   UNL     1      43.551 -15.992   4.329  1.00  0.00     0.021 C 
HETATM   17  C   UNL     1      44.004 -19.729   4.324  1.00  0.00     0.035 A 
HETATM   18  C   UNL     1      43.690 -20.041   3.002  1.00  0.00     0.026 A 
HETATM   19 CL   UNL     1      44.466 -20.980   5.411  1.00  0.00    -0.084 Cl
ENDBRANCH   8   9
ENDBRANCH   1   8
BRANCH   5  20
HETATM   20  N   UNL     1      40.087 -11.101   7.057  1.00  0.00    -0.339 N 
HETATM   21  C   UNL     1      39.692  -9.960   7.684  1.00  0.00     0.314 C 
HETATM   22  N   UNL     1      40.394  -9.714   8.815  1.00  0.00    -0.352 N 
HETATM   23  O   UNL     1      38.866  -9.166   7.265  1.00  0.00    -0.248 OA
HETATM   24  H   UNL     1      40.669 -10.484   9.409  1.00  0.00     0.160 HD
HETATM   25  H   UNL     1      40.073  -8.900   9.328  1.00  0.00     0.160 HD
HETATM   26  H   UNL     1      40.697 -11.689   7.612  1.00  0.00     0.164 HD
ENDBRANCH   5  20
TORSDOF 3
ENDMDL
MODEL 7
REMARK VINA RESULT:      -7.8      3.866      7.577
REMARK  3 active torsions:
REMARK  status: ('A' for Active; 'I' for Inactive)
REMARK    1  A    between atoms: C_9  and  C_10 
REMARK    2  A    between atoms: C_10  and  N_11 
REMARK    3  A    between atoms: C_15  and  N_16 
REMARK       I    between atoms: N_16  and  C_17 
REMARK       I    between atoms: C_17  and  N_18 
ROOT
HETATM    1  N   UNL     1      42.276 -16.545   3.593  1.00  0.00    -0.067 N 
HETATM    2  H   UNL     1      42.820 -15.769   3.200  1.00  0.00     0.280 HD
HETATM    3  C   UNL     1      42.796 -16.860   4.977  1.00  0.00     0.237 C 
HETATM    4  C   UNL     1      44.269 -17.234   4.904  1.00  0.00     0.053 C 
HETATM    5  C   UNL     1      44.503 -18.438   3.986  1.00  0.00     0.089 C 
HETATM    6  C   UNL     1      43.900 -18.155   2.606  1.00  0.00     0.053 C 
HETATM    7  C   UNL     1      42.440 -17.729   2.660  1.00  0.00     0.237 C 
ENDROOT
BRANCH   1   8
HETATM    8  C   UNL     1      40.823 -16.104   3.617  1.00  0.00     0.271 C 
BRANCH   8   9
HETATM    9  C   UNL     1      40.405 -15.168   2.520  1.00  0.00    -0.029 C 
HETATM   10  C   UNL     1      40.077 -13.763   2.985  1.00  0.00     0.211 C 
HETATM   11  O   UNL     1      40.109 -12.749   1.975  1.00  0.00    -0.346 OA
HETATM   12  C   UNL     1      39.739 -13.140   0.720  1.00  0.00     0.079 A 
HETATM   13  C   UNL     1      39.794 -14.472   0.299  1.00  0.00    -0.001 A 
HETATM   14  C   UNL     1      39.349 -12.130  -0.161  1.00  0.00     0.039 A 
HETATM   15  C   UNL     1      39.436 -14.791  -1.015  1.00  0.00     0.038 A 
HETATM   16  C   UNL     1      40.259 -15.501   1.225  1.00  0.00     0.021 C 
HETATM   17  C   UNL     1      39.027 -13.780  -1.888  1.00  0.00     0.035 A 
HETATM   18  C   UNL     1      38.984 -12.452  -1.468  1.00  0.00     0.026 A 
HETATM   19 CL   UNL     1      38.584 -14.181  -3.501  1.00  0.00    -0.084 Cl
ENDBRANCH   8   9
ENDBRANCH   1   8
BRANCH   5  20
HETATM   20  N   UNL     1      44.097 -19.668   4.671  1.00  0.00    -0.339 N 
HETATM   21  C   UNL     1      43.960 -20.910   4.134  1.00  0.00     0.314 C 
HETATM   22  N   UNL     1      43.669 -21.853   5.061  1.00  0.00    -0.352 N 
HETATM   23  O   UNL     1      43.993 -21.180   2.944  1.00  0.00    -0.248 OA
HETATM   24  H   UNL     1      44.096 -21.801   5.975  1.00  0.00     0.160 HD
HETATM   25  H   UNL     1      43.623 -22.795   4.688  1.00  0.00     0.160 HD
HETATM   26  H   UNL     1      44.156 -19.658   5.681  1.00  0.00     0.164 HD
ENDBRANCH   5  20
TORSDOF 3
ENDMDL
MODEL 8
REMARK VINA RESULT:      -7.4      2.645      3.138
REMARK  3 active torsions:
REMARK  status: ('A' for Active; 'I' for Inactive)
REMARK    1  A    between atoms: C_9  and  C_10 
REMARK    2  A    between atoms: C_10  and  N_11 
REMARK    3  A    between atoms: C_15  and  N_16 
REMARK       I    between atoms: N_16  and  C_17 
REMARK       I    between atoms: C_17  and  N_18 
ROOT
HETATM    1  N   UNL     1      41.764 -12.617   4.802  1.00  0.00    -0.067 N 
HETATM    2  H   UNL     1      42.258 -12.865   5.666  1.00  0.00     0.280 HD
HETATM    3  C   UNL     1      41.741 -11.111   4.664  1.00  0.00     0.237 C 
HETATM    4  C   UNL     1      41.044 -10.491   5.867  1.00  0.00     0.053 C 
HETATM    5  C   UNL     1      39.611 -11.009   6.020  1.00  0.00     0.089 C 
HETATM    6  C   UNL     1      39.623 -12.541   6.074  1.00  0.00     0.053 C 
HETATM    7  C   UNL     1      40.360 -13.181   4.907  1.00  0.00     0.237 C 
ENDROOT
BRANCH   1   8
HETATM    8  C   UNL     1      42.504 -13.282   3.657  1.00  0.00     0.271 C 
BRANCH   8   9
HETATM    9  C   UNL     1      42.876 -14.721   3.867  1.00  0.00    -0.029 C 
HETATM   10  C   UNL     1      43.498 -15.018   5.218  1.00  0.00     0.211 C 
HETATM   11  O   UNL     1      43.460 -16.387   5.634  1.00  0.00    -0.346 OA
HETATM   12  C   UNL     1      43.546 -17.319   4.640  1.00  0.00     0.079 A 
HETATM   13  C   UNL     1      43.210 -17.039   3.313  1.00  0.00    -0.001 A 
HETATM   14  C   UNL     1      43.940 -18.603   5.019  1.00  0.00     0.039 A 
HETATM   15  C   UNL     1      43.287 -18.057   2.356  1.00  0.00     0.038 A 
HETATM   16  C   UNL     1      42.749 -15.701   2.954  1.00  0.00     0.021 C 
HETATM   17  C   UNL     1      43.700 -19.336   2.736  1.00  0.00     0.035 A 
HETATM   18  C   UNL     1      44.024 -19.615   4.063  1.00  0.00     0.026 A 
HETATM   19 CL   UNL     1      43.796 -20.582   1.553  1.00  0.00    -0.084 Cl
ENDBRANCH   8   9
ENDBRANCH   1   8
BRANCH   5  20
HETATM   20  N   UNL     1      38.744 -10.366   5.031  1.00  0.00    -0.339 N 
HETATM   21  C   UNL     1      38.131  -9.155   5.126  1.00  0.00     0.314 C 
HETATM   22  N   UNL     1      37.480  -8.806   3.991  1.00  0.00    -0.352 N 
HETATM   23  O   UNL     1      38.069  -8.465   6.130  1.00  0.00    -0.248 OA
HETATM   24  H   UNL     1      37.883  -9.039   3.094  1.00  0.00     0.160 HD
HETATM   25  H   UNL     1      37.069  -7.880   4.023  1.00  0.00     0.160 HD
HETATM   26  H   UNL     1      38.790 -10.733   4.089  1.00  0.00     0.164 HD
ENDBRANCH   5  20
TORSDOF 3
ENDMDL
MODEL 9
REMARK VINA RESULT:      -7.1      3.837      6.033
REMARK  3 active torsions:
REMARK  status: ('A' for Active; 'I' for Inactive)
REMARK    1  A    between atoms: C_9  and  C_10 
REMARK    2  A    between atoms: C_10  and  N_11 
REMARK    3  A    between atoms: C_15  and  N_16 
REMARK       I    between atoms: N_16  and  C_17 
REMARK       I    between atoms: C_17  and  N_18 
ROOT
HETATM    1  N   UNL     1      42.034 -11.077   6.244  1.00  0.00    -0.067 N 
HETATM    2  H   UNL     1      42.452 -10.541   5.475  1.00  0.00     0.280 HD
HETATM    3  C   UNL     1      41.343 -10.123   7.191  1.00  0.00     0.237 C 
HETATM    4  C   UNL     1      42.345  -9.115   7.734  1.00  0.00     0.053 C 
HETATM    5  C   UNL     1      43.502  -9.804   8.463  1.00  0.00     0.089 C 
HETATM    6  C   UNL     1      44.152 -10.835   7.533  1.00  0.00     0.053 C 
HETATM    7  C   UNL     1      43.159 -11.822   6.937  1.00  0.00     0.237 C 
ENDROOT
BRANCH   1   8
HETATM    8  C   UNL     1      41.065 -12.067   5.624  1.00  0.00     0.271 C 
BRANCH   8   9
HETATM    9  C   UNL     1      41.648 -13.004   4.606  1.00  0.00    -0.029 C 
HETATM   10  C   UNL     1      41.965 -12.361   3.270  1.00  0.00     0.211 C 
HETATM   11  O   UNL     1      42.901 -13.064   2.446  1.00  0.00    -0.346 OA
HETATM   12  C   UNL     1      42.880 -14.427   2.544  1.00  0.00     0.079 A 
HETATM   13  C   UNL     1      42.377 -15.094   3.664  1.00  0.00    -0.001 A 
HETATM   14  C   UNL     1      43.442 -15.138   1.483  1.00  0.00     0.039 A 
HETATM   15  C   UNL     1      42.425 -16.492   3.708  1.00  0.00     0.038 A 
HETATM   16  C   UNL     1      41.844 -14.322   4.783  1.00  0.00     0.021 C 
HETATM   17  C   UNL     1      42.971 -17.201   2.636  1.00  0.00     0.035 A 
HETATM   18  C   UNL     1      43.482 -16.531   1.526  1.00  0.00     0.026 A 
HETATM   19 CL   UNL     1      43.024 -18.920   2.696  1.00  0.00    -0.084 Cl
ENDBRANCH   8   9
ENDBRANCH   1   8
BRANCH   5  20
HETATM   20  N   UNL     1      43.056 -10.258   9.782  1.00  0.00    -0.339 N 
HETATM   21  C   UNL     1      43.830 -10.617  10.842  1.00  0.00     0.314 C 
HETATM   22  N   UNL     1      43.104 -10.890  11.952  1.00  0.00    -0.352 N 
HETATM   23  O   UNL     1      45.039 -10.780  10.819  1.00  0.00    -0.248 OA
HETATM   24  H   UNL     1      42.284 -10.338  12.159  1.00  0.00     0.160 HD
HETATM   25  H   UNL     1      43.668 -11.101  12.769  1.00  0.00     0.160 HD
HETATM   26  H   UNL     1      42.093 -10.060  10.022  1.00  0.00     0.164 HD
ENDBRANCH   5  20
TORSDOF 3
ENDMDL
MODEL 10
REMARK VINA RESULT:      -7.0      6.042      8.038
REMARK  3 active torsions:
REMARK  status: ('A' for Active; 'I' for Inactive)
REMARK    1  A    between atoms: C_9  and  C_10 
REMARK    2  A    between atoms: C_10  and  N_11 
REMARK    3  A    between atoms: C_15  and  N_16 
REMARK       I    between atoms: N_16  and  C_17 
REMARK       I    between atoms: C_17  and  N_18 
ROOT
HETATM    1  N   UNL     1      43.168 -10.426   9.692  1.00  0.00    -0.067 N 
HETATM    2  H   UNL     1      42.664 -11.314   9.595  1.00  0.00     0.280 HD
HETATM    3  C   UNL     1      44.132 -10.530  10.852  1.00  0.00     0.237 C 
HETATM    4  C   UNL     1      43.371 -10.846  12.131  1.00  0.00     0.053 C 
HETATM    5  C   UNL     1      42.317  -9.779  12.441  1.00  0.00     0.089 C 
HETATM    6  C   UNL     1      41.390  -9.610  11.233  1.00  0.00     0.053 C 
HETATM    7  C   UNL     1      42.133  -9.344   9.932  1.00  0.00     0.237 C 
ENDROOT
BRANCH   1   8
HETATM    8  C   UNL     1      43.884 -10.173   8.377  1.00  0.00     0.271 C 
BRANCH   8   9
HETATM    9  C   UNL     1      43.622 -11.171   7.287  1.00  0.00    -0.029 C 
HETATM   10  C   UNL     1      42.921 -10.601   6.069  1.00  0.00     0.211 C 
HETATM   11  O   UNL     1      43.045 -11.364   4.865  1.00  0.00    -0.346 OA
HETATM   12  C   UNL     1      43.119 -12.719   5.018  1.00  0.00     0.079 A 
HETATM   13  C   UNL     1      43.537 -13.320   6.209  1.00  0.00    -0.001 A 
HETATM   14  C   UNL     1      42.809 -13.494   3.900  1.00  0.00     0.039 A 
HETATM   15  C   UNL     1      43.625 -14.715   6.279  1.00  0.00     0.038 A 
HETATM   16  C   UNL     1      43.907 -12.484   7.347  1.00  0.00     0.021 C 
HETATM   17  C   UNL     1      43.296 -15.488   5.163  1.00  0.00     0.035 A 
HETATM   18  C   UNL     1      42.891 -14.884   3.974  1.00  0.00     0.026 A 
HETATM   19 CL   UNL     1      43.404 -17.202   5.257  1.00  0.00    -0.084 Cl
ENDBRANCH   8   9
ENDBRANCH   1   8
BRANCH   5  20
HETATM   20  N   UNL     1      42.968  -8.582  12.977  1.00  0.00    -0.339 N 
HETATM   21  C   UNL     1      42.583  -7.837  14.049  1.00  0.00     0.314 C 
HETATM   22  N   UNL     1      43.462  -6.851  14.345  1.00  0.00    -0.352 N 
HETATM   23  O   UNL     1      41.528  -7.948  14.652  1.00  0.00    -0.248 OA
HETATM   24  H   UNL     1      44.453  -7.020  14.245  1.00  0.00     0.160 HD
HETATM   25  H   UNL     1      43.222  -6.324  15.178  1.00  0.00     0.160 HD
HETATM   26  H   UNL     1      43.923  -8.422  12.684  1.00  0.00     0.164 HD
ENDBRANCH   5  20
TORSDOF 3
ENDMDL
