MODEL 1
REMARK VINA RESULT:      -7.8      0.000      0.000
REMARK  8 active torsions:
REMARK  status: ('A' for Active; 'I' for Inactive)
REMARK    1  A    between atoms: C_2  and  N_3 
REMARK    2  A    between atoms: C_2  and  C_17 
REMARK    3  A    between atoms: N_3  and  N_4 
REMARK       I    between atoms: N_4  and  C_5 
REMARK    4  A    between atoms: C_5  and  C_6 
REMARK    5  A    between atoms: C_6  and  N_7 
REMARK    6  A    between atoms: N_7  and  C_8 
REMARK    7  A    between atoms: C_9  and  O_10 
REMARK       I    between atoms: C_17  and  N_18 
REMARK    8  A    between atoms: N_18  and  C_19 
ROOT
HETATM    1  N   UNL     1      41.207 -13.798   6.588  1.00  0.00    -0.225 NA
HETATM    2  H   UNL     1      40.186 -13.856   6.455  1.00  0.00     0.147 HD
ENDROOT
BRANCH   1   3
HETATM    3  C   UNL     1      41.711 -12.889   5.511  1.00  0.00     0.165 C 
HETATM    4  C   UNL     1      40.530 -12.451   4.651  1.00  0.00     0.038 C 
BRANCH   3   5
HETATM    5  C   UNL     1      42.394 -11.643   6.107  1.00  0.00     0.241 C 
HETATM    6  N   UNL     1      43.215 -11.941   7.181  1.00  0.00    -0.326 N 
HETATM    7  H   UNL     1      43.278 -12.938   7.373  1.00  0.00     0.169 HD
HETATM    8  O   UNL     1      42.159 -10.522   5.663  1.00  0.00    -0.271 OA
BRANCH   6   9
HETATM    9  C   UNL     1      44.048 -11.076   7.907  1.00  0.00     0.036 A 
HETATM   10  C   UNL     1      43.732 -10.567   9.169  1.00  0.00     0.053 A 
HETATM   11  C   UNL     1      44.608  -9.686   9.805  1.00  0.00     0.036 A 
HETATM   12 CL   UNL     1      44.209  -9.053  11.356  1.00  0.00    -0.084 Cl
HETATM   13  C   UNL     1      45.802  -9.304   9.196  1.00  0.00     0.024 A 
HETATM   14  C   UNL     1      46.127  -9.814   7.942  1.00  0.00     0.004 A 
HETATM   15  C   UNL     1      45.255 -10.698   7.302  1.00  0.00     0.029 A 
ENDBRANCH   6   9
ENDBRANCH   3   5
ENDBRANCH   1   3
BRANCH   1  16
HETATM   16  N   UNL     1      41.702 -15.124   6.412  1.00  0.00    -0.290 N 
HETATM   17  C   UNL     1      42.744 -15.572   7.221  1.00  0.00     0.245 C 
HETATM   18  O   UNL     1      43.225 -14.896   8.129  1.00  0.00    -0.271 OA
HETATM   19  H   UNL     1      41.591 -15.569   5.503  1.00  0.00     0.183 HD
BRANCH  17  20
HETATM   20  C   UNL     1      43.285 -16.948   6.827  1.00  0.00     0.196 C 
BRANCH  20  21
HETATM   21  N   UNL     1      44.256 -16.784   5.732  1.00  0.00    -0.282 NA
HETATM   22  H   UNL     1      45.162 -17.162   6.043  1.00  0.00     0.128 HD
BRANCH  21  23
HETATM   23  C   UNL     1      43.898 -17.589   4.612  1.00  0.00     0.042 A 
HETATM   24  C   UNL     1      43.193 -17.011   3.532  1.00  0.00     0.089 A 
HETATM   25  C   UNL     1      42.875 -17.788   2.418  1.00  0.00     0.038 A 
HETATM   26  C   UNL     1      43.263 -19.129   2.368  1.00  0.00     0.003 A 
HETATM   27  C   UNL     1      43.968 -19.699   3.429  1.00  0.00     0.002 A 
HETATM   28  C   UNL     1      44.289 -18.930   4.548  1.00  0.00     0.026 A 
BRANCH  24  29
HETATM   29  O   UNL     1      42.880 -15.683   3.697  1.00  0.00    -0.354 OA
HETATM   30  C   UNL     1      43.214 -14.805   2.630  1.00  0.00     0.210 C 
ENDBRANCH  24  29
ENDBRANCH  21  23
ENDBRANCH  20  21
ENDBRANCH  17  20
ENDBRANCH   1  16
TORSDOF 8
ENDMDL
MODEL 2
REMARK VINA RESULT:      -7.7      1.576      2.259
REMARK  8 active torsions:
REMARK  status: ('A' for Active; 'I' for Inactive)
REMARK    1  A    between atoms: C_2  and  N_3 
REMARK    2  A    between atoms: C_2  and  C_17 
REMARK    3  A    between atoms: N_3  and  N_4 
REMARK       I    between atoms: N_4  and  C_5 
REMARK    4  A    between atoms: C_5  and  C_6 
REMARK    5  A    between atoms: C_6  and  N_7 
REMARK    6  A    between atoms: N_7  and  C_8 
REMARK    7  A    between atoms: C_9  and  O_10 
REMARK       I    between atoms: C_17  and  N_18 
REMARK    8  A    between atoms: N_18  and  C_19 
ROOT
HETATM    1  N   UNL     1      39.784 -12.982   6.600  1.00  0.00    -0.225 NA
HETATM    2  H   UNL     1      38.815 -13.062   6.943  1.00  0.00     0.147 HD
ENDROOT
BRANCH   1   3
HETATM    3  C   UNL     1      39.870 -11.650   5.923  1.00  0.00     0.165 C 
HETATM    4  C   UNL     1      38.626 -10.841   6.276  1.00  0.00     0.038 C 
BRANCH   3   5
HETATM    5  C   UNL     1      41.124 -10.875   6.373  1.00  0.00     0.241 C 
HETATM    6  N   UNL     1      42.173 -11.707   6.725  1.00  0.00    -0.326 N 
HETATM    7  H   UNL     1      41.969 -12.693   6.581  1.00  0.00     0.169 HD
HETATM    8  O   UNL     1      41.119  -9.649   6.437  1.00  0.00    -0.271 OA
BRANCH   6   9
HETATM    9  C   UNL     1      43.479 -11.353   7.100  1.00  0.00     0.036 A 
HETATM   10  C   UNL     1      43.799 -10.722   8.304  1.00  0.00     0.053 A 
HETATM   11  C   UNL     1      45.123 -10.376   8.580  1.00  0.00     0.036 A 
HETATM   12 CL   UNL     1      45.511  -9.589  10.061  1.00  0.00    -0.084 Cl
HETATM   13  C   UNL     1      46.137 -10.655   7.666  1.00  0.00     0.024 A 
HETATM   14  C   UNL     1      45.826 -11.291   6.467  1.00  0.00     0.004 A 
HETATM   15  C   UNL     1      44.503 -11.640   6.187  1.00  0.00     0.029 A 
ENDBRANCH   6   9
ENDBRANCH   3   5
ENDBRANCH   1   3
BRANCH   1  16
HETATM   16  N   UNL     1      39.958 -14.045   5.665  1.00  0.00    -0.290 N 
HETATM   17  C   UNL     1      41.135 -14.789   5.696  1.00  0.00     0.245 C 
HETATM   18  O   UNL     1      42.016 -14.614   6.537  1.00  0.00    -0.271 OA
HETATM   19  H   UNL     1      39.453 -14.004   4.781  1.00  0.00     0.183 HD
BRANCH  17  20
HETATM   20  C   UNL     1      41.264 -15.790   4.546  1.00  0.00     0.196 C 
BRANCH  20  21
HETATM   21  N   UNL     1      42.652 -15.777   4.055  1.00  0.00    -0.282 NA
HETATM   22  H   UNL     1      43.269 -15.504   4.834  1.00  0.00     0.128 HD
BRANCH  21  23
HETATM   23  C   UNL     1      43.078 -17.091   3.704  1.00  0.00     0.042 A 
HETATM   24  C   UNL     1      43.832 -17.850   4.627  1.00  0.00     0.089 A 
HETATM   25  C   UNL     1      44.217 -19.151   4.303  1.00  0.00     0.038 A 
HETATM   26  C   UNL     1      43.848 -19.702   3.072  1.00  0.00     0.003 A 
HETATM   27  C   UNL     1      43.095 -18.957   2.164  1.00  0.00     0.002 A 
HETATM   28  C   UNL     1      42.707 -17.655   2.480  1.00  0.00     0.026 A 
BRANCH  24  29
HETATM   29  O   UNL     1      44.120 -17.202   5.805  1.00  0.00    -0.354 OA
HETATM   30  C   UNL     1      43.494 -17.695   6.982  1.00  0.00     0.210 C 
ENDBRANCH  24  29
ENDBRANCH  21  23
ENDBRANCH  20  21
ENDBRANCH  17  20
ENDBRANCH   1  16
TORSDOF 8
ENDMDL
MODEL 3
REMARK VINA RESULT:      -7.4      1.746      2.052
REMARK  8 active torsions:
REMARK  status: ('A' for Active; 'I' for Inactive)
REMARK    1  A    between atoms: C_2  and  N_3 
REMARK    2  A    between atoms: C_2  and  C_17 
REMARK    3  A    between atoms: N_3  and  N_4 
REMARK       I    between atoms: N_4  and  C_5 
REMARK    4  A    between atoms: C_5  and  C_6 
REMARK    5  A    between atoms: C_6  and  N_7 
REMARK    6  A    between atoms: N_7  and  C_8 
REMARK    7  A    between atoms: C_9  and  O_10 
REMARK       I    between atoms: C_17  and  N_18 
REMARK    8  A    between atoms: N_18  and  C_19 
ROOT
HETATM    1  N   UNL     1      43.170 -13.974   7.558  1.00  0.00    -0.225 NA
HETATM    2  H   UNL     1      42.152 -13.956   7.395  1.00  0.00     0.147 HD
ENDROOT
BRANCH   1   3
HETATM    3  C   UNL     1      43.746 -12.910   6.677  1.00  0.00     0.165 C 
HETATM    4  C   UNL     1      42.678 -12.473   5.679  1.00  0.00     0.038 C 
BRANCH   3   5
HETATM    5  C   UNL     1      44.200 -11.690   7.501  1.00  0.00     0.241 C 
HETATM    6  N   UNL     1      43.150 -10.858   7.853  1.00  0.00    -0.326 N 
HETATM    7  H   UNL     1      42.243 -11.211   7.559  1.00  0.00     0.169 HD
HETATM    8  O   UNL     1      45.388 -11.501   7.748  1.00  0.00    -0.271 OA
BRANCH   6   9
HETATM    9  C   UNL     1      43.181  -9.711   8.663  1.00  0.00     0.036 A 
HETATM   10  C   UNL     1      43.254  -9.744  10.057  1.00  0.00     0.053 A 
HETATM   11  C   UNL     1      43.248  -8.552  10.784  1.00  0.00     0.036 A 
HETATM   12 CL   UNL     1      43.328  -8.597  12.503  1.00  0.00    -0.084 Cl
HETATM   13  C   UNL     1      43.170  -7.322  10.134  1.00  0.00     0.024 A 
HETATM   14  C   UNL     1      43.105  -7.282   8.743  1.00  0.00     0.004 A 
HETATM   15  C   UNL     1      43.113  -8.472   8.012  1.00  0.00     0.029 A 
ENDBRANCH   6   9
ENDBRANCH   3   5
ENDBRANCH   1   3
BRANCH   1  16
HETATM   16  N   UNL     1      43.609 -15.269   7.152  1.00  0.00    -0.290 N 
HETATM   17  C   UNL     1      42.664 -16.273   6.946  1.00  0.00     0.245 C 
HETATM   18  O   UNL     1      41.453 -16.080   7.041  1.00  0.00    -0.271 OA
HETATM   19  H   UNL     1      44.556 -15.560   7.389  1.00  0.00     0.183 HD
BRANCH  17  20
HETATM   20  C   UNL     1      43.274 -17.648   6.669  1.00  0.00     0.196 C 
BRANCH  20  21
HETATM   21  N   UNL     1      44.246 -17.526   5.570  1.00  0.00    -0.282 NA
HETATM   22  H   UNL     1      45.170 -17.816   5.921  1.00  0.00     0.128 HD
BRANCH  21  23
HETATM   23  C   UNL     1      43.952 -18.453   4.528  1.00  0.00     0.042 A 
HETATM   24  C   UNL     1      43.532 -17.976   3.266  1.00  0.00     0.089 A 
HETATM   25  C   UNL     1      43.282 -18.879   2.232  1.00  0.00     0.038 A 
HETATM   26  C   UNL     1      43.456 -20.249   2.445  1.00  0.00     0.003 A 
HETATM   27  C   UNL     1      43.880 -20.722   3.688  1.00  0.00     0.002 A 
HETATM   28  C   UNL     1      44.132 -19.825   4.727  1.00  0.00     0.026 A 
BRANCH  24  29
HETATM   29  O   UNL     1      43.410 -16.610   3.180  1.00  0.00    -0.354 OA
HETATM   30  C   UNL     1      43.237 -16.058   1.881  1.00  0.00     0.210 C 
ENDBRANCH  24  29
ENDBRANCH  21  23
ENDBRANCH  20  21
ENDBRANCH  17  20
ENDBRANCH   1  16
TORSDOF 8
ENDMDL
MODEL 4
REMARK VINA RESULT:      -7.4      4.184      7.101
REMARK  8 active torsions:
REMARK  status: ('A' for Active; 'I' for Inactive)
REMARK    1  A    between atoms: C_2  and  N_3 
REMARK    2  A    between atoms: C_2  and  C_17 
REMARK    3  A    between atoms: N_3  and  N_4 
REMARK       I    between atoms: N_4  and  C_5 
REMARK    4  A    between atoms: C_5  and  C_6 
REMARK    5  A    between atoms: C_6  and  N_7 
REMARK    6  A    between atoms: N_7  and  C_8 
REMARK    7  A    between atoms: C_9  and  O_10 
REMARK       I    between atoms: C_17  and  N_18 
REMARK    8  A    between atoms: N_18  and  C_19 
ROOT
HETATM    1  N   UNL     1      40.953 -14.280   6.584  1.00  0.00    -0.225 NA
HETATM    2  H   UNL     1      41.157 -13.353   6.986  1.00  0.00     0.147 HD
ENDROOT
BRANCH   1   3
HETATM    3  C   UNL     1      42.282 -14.908   6.304  1.00  0.00     0.165 C 
HETATM    4  C   UNL     1      43.036 -15.064   7.621  1.00  0.00     0.038 C 
BRANCH   3   5
HETATM    5  C   UNL     1      42.119 -16.292   5.647  1.00  0.00     0.241 C 
HETATM    6  N   UNL     1      43.325 -16.950   5.474  1.00  0.00    -0.326 N 
HETATM    7  H   UNL     1      44.119 -16.441   5.854  1.00  0.00     0.169 HD
HETATM    8  O   UNL     1      41.015 -16.697   5.293  1.00  0.00    -0.271 OA
BRANCH   6   9
HETATM    9  C   UNL     1      43.547 -18.249   4.988  1.00  0.00     0.036 A 
HETATM   10  C   UNL     1      43.570 -18.580   3.631  1.00  0.00     0.053 A 
HETATM   11  C   UNL     1      43.766 -19.905   3.240  1.00  0.00     0.036 A 
HETATM   12 CL   UNL     1      43.782 -20.310   1.566  1.00  0.00    -0.084 Cl
HETATM   13  C   UNL     1      43.942 -20.909   4.189  1.00  0.00     0.024 A 
HETATM   14  C   UNL     1      43.929 -20.586   5.543  1.00  0.00     0.004 A 
HETATM   15  C   UNL     1      43.735 -19.260   5.940  1.00  0.00     0.029 A 
ENDBRANCH   6   9
ENDBRANCH   3   5
ENDBRANCH   1   3
BRANCH   1  16
HETATM   16  N   UNL     1      40.237 -14.035   5.374  1.00  0.00    -0.290 N 
HETATM   17  C   UNL     1      40.195 -12.740   4.862  1.00  0.00     0.245 C 
HETATM   18  O   UNL     1      40.801 -11.798   5.373  1.00  0.00    -0.271 OA
HETATM   19  H   UNL     1      39.475 -14.662   5.122  1.00  0.00     0.183 HD
BRANCH  17  20
HETATM   20  C   UNL     1      39.270 -12.582   3.654  1.00  0.00     0.196 C 
BRANCH  20  21
HETATM   21  N   UNL     1      40.089 -12.362   2.451  1.00  0.00    -0.282 NA
HETATM   22  H   UNL     1      40.770 -11.617   2.654  1.00  0.00     0.128 HD
BRANCH  21  23
HETATM   23  C   UNL     1      40.887 -13.508   2.165  1.00  0.00     0.042 A 
HETATM   24  C   UNL     1      42.296 -13.396   2.165  1.00  0.00     0.089 A 
HETATM   25  C   UNL     1      43.080 -14.524   1.924  1.00  0.00     0.038 A 
HETATM   26  C   UNL     1      42.472 -15.761   1.694  1.00  0.00     0.003 A 
HETATM   27  C   UNL     1      41.082 -15.876   1.703  1.00  0.00     0.002 A 
HETATM   28  C   UNL     1      40.289 -14.752   1.942  1.00  0.00     0.026 A 
BRANCH  24  29
HETATM   29  O   UNL     1      42.771 -12.130   2.415  1.00  0.00    -0.354 OA
HETATM   30  C   UNL     1      43.655 -11.981   3.518  1.00  0.00     0.210 C 
ENDBRANCH  24  29
ENDBRANCH  21  23
ENDBRANCH  20  21
ENDBRANCH  17  20
ENDBRANCH   1  16
TORSDOF 8
ENDMDL
MODEL 5
REMARK VINA RESULT:      -7.3      1.704      2.805
REMARK  8 active torsions:
REMARK  status: ('A' for Active; 'I' for Inactive)
REMARK    1  A    between atoms: C_2  and  N_3 
REMARK    2  A    between atoms: C_2  and  C_17 
REMARK    3  A    between atoms: N_3  and  N_4 
REMARK       I    between atoms: N_4  and  C_5 
REMARK    4  A    between atoms: C_5  and  C_6 
REMARK    5  A    between atoms: C_6  and  N_7 
REMARK    6  A    between atoms: N_7  and  C_8 
REMARK    7  A    between atoms: C_9  and  O_10 
REMARK       I    between atoms: C_17  and  N_18 
REMARK    8  A    between atoms: N_18  and  C_19 
ROOT
HETATM    1  N   UNL     1      41.092 -13.448   4.296  1.00  0.00    -0.225 NA
HETATM    2  H   UNL     1      41.509 -12.677   3.753  1.00  0.00     0.147 HD
ENDROOT
BRANCH   1   3
HETATM    3  C   UNL     1      41.459 -13.188   5.724  1.00  0.00     0.165 C 
HETATM    4  C   UNL     1      42.225 -14.394   6.259  1.00  0.00     0.038 C 
BRANCH   3   5
HETATM    5  C   UNL     1      42.339 -11.930   5.854  1.00  0.00     0.241 C 
HETATM    6  N   UNL     1      42.926 -11.812   7.103  1.00  0.00    -0.326 N 
HETATM    7  H   UNL     1      42.726 -12.597   7.716  1.00  0.00     0.169 HD
HETATM    8  O   UNL     1      42.435 -11.128   4.929  1.00  0.00    -0.271 OA
BRANCH   6   9
HETATM    9  C   UNL     1      43.844 -10.846   7.545  1.00  0.00     0.036 A 
HETATM   10  C   UNL     1      43.477  -9.614   8.091  1.00  0.00     0.053 A 
HETATM   11  C   UNL     1      44.460  -8.701   8.476  1.00  0.00     0.036 A 
HETATM   12 CL   UNL     1      44.003  -7.179   9.138  1.00  0.00    -0.084 Cl
HETATM   13  C   UNL     1      45.812  -9.003   8.324  1.00  0.00     0.024 A 
HETATM   14  C   UNL     1      46.185 -10.233   7.788  1.00  0.00     0.004 A 
HETATM   15  C   UNL     1      45.205 -11.151   7.403  1.00  0.00     0.029 A 
ENDBRANCH   6   9
ENDBRANCH   3   5
ENDBRANCH   1   3
BRANCH   1  16
HETATM   16  N   UNL     1      41.708 -14.642   3.818  1.00  0.00    -0.290 N 
HETATM   17  C   UNL     1      41.271 -15.197   2.617  1.00  0.00     0.245 C 
HETATM   18  O   UNL     1      40.413 -14.670   1.910  1.00  0.00    -0.271 OA
HETATM   19  H   UNL     1      42.143 -15.270   4.492  1.00  0.00     0.183 HD
BRANCH  17  20
HETATM   20  C   UNL     1      41.900 -16.554   2.298  1.00  0.00     0.196 C 
BRANCH  20  21
HETATM   21  N   UNL     1      43.097 -16.734   3.135  1.00  0.00    -0.282 NA
HETATM   22  H   UNL     1      42.874 -16.420   4.091  1.00  0.00     0.128 HD
BRANCH  21  23
HETATM   23  C   UNL     1      43.413 -18.117   3.277  1.00  0.00     0.042 A 
HETATM   24  C   UNL     1      43.901 -18.599   4.512  1.00  0.00     0.089 A 
HETATM   25  C   UNL     1      44.174 -19.958   4.666  1.00  0.00     0.038 A 
HETATM   26  C   UNL     1      43.955 -20.839   3.603  1.00  0.00     0.003 A 
HETATM   27  C   UNL     1      43.464 -20.366   2.385  1.00  0.00     0.002 A 
HETATM   28  C   UNL     1      43.189 -19.008   2.223  1.00  0.00     0.026 A 
BRANCH  24  29
HETATM   29  O   UNL     1      44.062 -17.637   5.481  1.00  0.00    -0.354 OA
HETATM   30  C   UNL     1      43.439 -17.875   6.736  1.00  0.00     0.210 C 
ENDBRANCH  24  29
ENDBRANCH  21  23
ENDBRANCH  20  21
ENDBRANCH  17  20
ENDBRANCH   1  16
TORSDOF 8
ENDMDL
MODEL 6
REMARK VINA RESULT:      -7.2      2.096      3.047
REMARK  8 active torsions:
REMARK  status: ('A' for Active; 'I' for Inactive)
REMARK    1  A    between atoms: C_2  and  N_3 
REMARK    2  A    between atoms: C_2  and  C_17 
REMARK    3  A    between atoms: N_3  and  N_4 
REMARK       I    between atoms: N_4  and  C_5 
REMARK    4  A    between atoms: C_5  and  C_6 
REMARK    5  A    between atoms: C_6  and  N_7 
REMARK    6  A    between atoms: N_7  and  C_8 
REMARK    7  A    between atoms: C_9  and  O_10 
REMARK       I    between atoms: C_17  and  N_18 
REMARK    8  A    between atoms: N_18  and  C_19 
ROOT
HETATM    1  N   UNL     1      43.034 -13.063   7.089  1.00  0.00    -0.225 NA
HETATM    2  H   UNL     1      42.121 -12.596   7.200  1.00  0.00     0.147 HD
ENDROOT
BRANCH   1   3
HETATM    3  C   UNL     1      44.011 -11.979   6.757  1.00  0.00     0.165 C 
HETATM    4  C   UNL     1      43.403 -11.086   5.680  1.00  0.00     0.038 C 
BRANCH   3   5
HETATM    5  C   UNL     1      44.340 -11.125   7.997  1.00  0.00     0.241 C 
HETATM    6  N   UNL     1      43.233 -10.463   8.501  1.00  0.00    -0.326 N 
HETATM    7  H   UNL     1      42.373 -10.685   8.008  1.00  0.00     0.169 HD
HETATM    8  O   UNL     1      45.490 -11.042   8.419  1.00  0.00    -0.271 OA
BRANCH   6   9
HETATM    9  C   UNL     1      43.145  -9.670   9.657  1.00  0.00     0.036 A 
HETATM   10  C   UNL     1      42.934  -8.290   9.641  1.00  0.00     0.053 A 
HETATM   11  C   UNL     1      42.892  -7.577  10.840  1.00  0.00     0.036 A 
HETATM   12 CL   UNL     1      42.643  -5.873  10.815  1.00  0.00    -0.084 Cl
HETATM   13  C   UNL     1      43.056  -8.226  12.062  1.00  0.00     0.024 A 
HETATM   14  C   UNL     1      43.258  -9.604  12.086  1.00  0.00     0.004 A 
HETATM   15  C   UNL     1      43.299 -10.322  10.888  1.00  0.00     0.029 A 
ENDBRANCH   6   9
ENDBRANCH   3   5
ENDBRANCH   1   3
BRANCH   1  16
HETATM   16  N   UNL     1      42.882 -13.967   5.996  1.00  0.00    -0.290 N 
HETATM   17  C   UNL     1      41.600 -14.286   5.553  1.00  0.00     0.245 C 
HETATM   18  O   UNL     1      40.583 -13.775   6.022  1.00  0.00    -0.271 OA
HETATM   19  H   UNL     1      43.620 -14.646   5.818  1.00  0.00     0.183 HD
BRANCH  17  20
HETATM   20  C   UNL     1      41.569 -15.382   4.486  1.00  0.00     0.196 C 
BRANCH  20  21
HETATM   21  N   UNL     1      42.897 -15.473   3.857  1.00  0.00    -0.282 NA
HETATM   22  H   UNL     1      43.600 -15.140   4.534  1.00  0.00     0.128 HD
BRANCH  21  23
HETATM   23  C   UNL     1      43.251 -16.833   3.615  1.00  0.00     0.042 A 
HETATM   24  C   UNL     1      43.969 -17.554   4.596  1.00  0.00     0.089 A 
HETATM   25  C   UNL     1      44.281 -18.895   4.378  1.00  0.00     0.038 A 
HETATM   26  C   UNL     1      43.877 -19.524   3.198  1.00  0.00     0.003 A 
HETATM   27  C   UNL     1      43.159 -18.816   2.232  1.00  0.00     0.002 A 
HETATM   28  C   UNL     1      42.843 -17.474   2.441  1.00  0.00     0.026 A 
BRANCH  24  29
HETATM   29  O   UNL     1      44.298 -16.827   5.716  1.00  0.00    -0.354 OA
HETATM   30  C   UNL     1      43.736 -17.255   6.950  1.00  0.00     0.210 C 
ENDBRANCH  24  29
ENDBRANCH  21  23
ENDBRANCH  20  21
ENDBRANCH  17  20
ENDBRANCH   1  16
TORSDOF 8
ENDMDL
MODEL 7
REMARK VINA RESULT:      -7.2      3.436      8.020
REMARK  8 active torsions:
REMARK  status: ('A' for Active; 'I' for Inactive)
REMARK    1  A    between atoms: C_2  and  N_3 
REMARK    2  A    between atoms: C_2  and  C_17 
REMARK    3  A    between atoms: N_3  and  N_4 
REMARK       I    between atoms: N_4  and  C_5 
REMARK    4  A    between atoms: C_5  and  C_6 
REMARK    5  A    between atoms: C_6  and  N_7 
REMARK    6  A    between atoms: N_7  and  C_8 
REMARK    7  A    between atoms: C_9  and  O_10 
REMARK       I    between atoms: C_17  and  N_18 
REMARK    8  A    between atoms: N_18  and  C_19 
ROOT
HETATM    1  N   UNL     1      39.781 -13.642   3.837  1.00  0.00    -0.225 NA
HETATM    2  H   UNL     1      40.080 -14.449   4.405  1.00  0.00     0.147 HD
ENDROOT
BRANCH   1   3
HETATM    3  C   UNL     1      40.084 -14.005   2.417  1.00  0.00     0.165 C 
HETATM    4  C   UNL     1      40.251 -12.722   1.610  1.00  0.00     0.038 C 
BRANCH   3   5
HETATM    5  C   UNL     1      41.375 -14.839   2.317  1.00  0.00     0.241 C 
HETATM    6  N   UNL     1      41.425 -15.866   3.245  1.00  0.00    -0.326 N 
HETATM    7  H   UNL     1      40.582 -15.939   3.809  1.00  0.00     0.169 HD
HETATM    8  O   UNL     1      42.254 -14.548   1.510  1.00  0.00    -0.271 OA
BRANCH   6   9
HETATM    9  C   UNL     1      42.403 -16.863   3.389  1.00  0.00     0.036 A 
HETATM   10  C   UNL     1      42.531 -17.958   2.530  1.00  0.00     0.053 A 
HETATM   11  C   UNL     1      43.514 -18.919   2.768  1.00  0.00     0.036 A 
HETATM   12 CL   UNL     1      43.661 -20.272   1.714  1.00  0.00    -0.084 Cl
HETATM   13  C   UNL     1      44.376 -18.803   3.856  1.00  0.00     0.024 A 
HETATM   14  C   UNL     1      44.260 -17.710   4.712  1.00  0.00     0.004 A 
HETATM   15  C   UNL     1      43.278 -16.744   4.476  1.00  0.00     0.029 A 
ENDBRANCH   6   9
ENDBRANCH   3   5
ENDBRANCH   1   3
BRANCH   1  16
HETATM   16  N   UNL     1      40.582 -12.542   4.266  1.00  0.00    -0.290 N 
HETATM   17  C   UNL     1      41.528 -12.743   5.269  1.00  0.00     0.245 C 
HETATM   18  O   UNL     1      41.753 -13.846   5.766  1.00  0.00    -0.271 OA
HETATM   19  H   UNL     1      40.216 -11.598   4.150  1.00  0.00     0.183 HD
BRANCH  17  20
HETATM   20  C   UNL     1      42.205 -11.457   5.746  1.00  0.00     0.196 C 
BRANCH  20  21
HETATM   21  N   UNL     1      42.610 -11.623   7.152  1.00  0.00    -0.282 NA
HETATM   22  H   UNL     1      42.857 -12.612   7.303  1.00  0.00     0.128 HD
BRANCH  21  23
HETATM   23  C   UNL     1      43.813 -10.908   7.421  1.00  0.00     0.042 A 
HETATM   24  C   UNL     1      43.762  -9.711   8.171  1.00  0.00     0.089 A 
HETATM   25  C   UNL     1      44.942  -9.031   8.469  1.00  0.00     0.038 A 
HETATM   26  C   UNL     1      46.170  -9.538   8.035  1.00  0.00     0.003 A 
HETATM   27  C   UNL     1      46.223 -10.725   7.303  1.00  0.00     0.002 A 
HETATM   28  C   UNL     1      45.047 -11.412   6.999  1.00  0.00     0.026 A 
BRANCH  24  29
HETATM   29  O   UNL     1      42.498  -9.324   8.548  1.00  0.00    -0.354 OA
HETATM   30  C   UNL     1      42.231  -9.269   9.943  1.00  0.00     0.210 C 
ENDBRANCH  24  29
ENDBRANCH  21  23
ENDBRANCH  20  21
ENDBRANCH  17  20
ENDBRANCH   1  16
TORSDOF 8
ENDMDL
MODEL 8
REMARK VINA RESULT:      -7.2      5.429      8.415
REMARK  8 active torsions:
REMARK  status: ('A' for Active; 'I' for Inactive)
REMARK    1  A    between atoms: C_2  and  N_3 
REMARK    2  A    between atoms: C_2  and  C_17 
REMARK    3  A    between atoms: N_3  and  N_4 
REMARK       I    between atoms: N_4  and  C_5 
REMARK    4  A    between atoms: C_5  and  C_6 
REMARK    5  A    between atoms: C_6  and  N_7 
REMARK    6  A    between atoms: N_7  and  C_8 
REMARK    7  A    between atoms: C_9  and  O_10 
REMARK       I    between atoms: C_17  and  N_18 
REMARK    8  A    between atoms: N_18  and  C_19 
ROOT
HETATM    1  N   UNL     1      39.392 -13.870   3.477  1.00  0.00    -0.225 NA
HETATM    2  H   UNL     1      39.426 -12.876   3.205  1.00  0.00     0.147 HD
ENDROOT
BRANCH   1   3
HETATM    3  C   UNL     1      40.620 -14.114   4.297  1.00  0.00     0.165 C 
HETATM    4  C   UNL     1      40.377 -13.589   5.709  1.00  0.00     0.038 C 
BRANCH   3   5
HETATM    5  C   UNL     1      40.956 -15.616   4.365  1.00  0.00     0.241 C 
HETATM    6  N   UNL     1      42.219 -15.907   3.878  1.00  0.00    -0.326 N 
HETATM    7  H   UNL     1      42.743 -15.080   3.602  1.00  0.00     0.169 HD
HETATM    8  O   UNL     1      40.133 -16.429   4.775  1.00  0.00    -0.271 OA
BRANCH   6   9
HETATM    9  C   UNL     1      42.883 -17.144   3.861  1.00  0.00     0.036 A 
HETATM   10  C   UNL     1      42.893 -18.008   2.764  1.00  0.00     0.053 A 
HETATM   11  C   UNL     1      43.554 -19.235   2.848  1.00  0.00     0.036 A 
HETATM   12 CL   UNL     1      43.553 -20.302   1.497  1.00  0.00    -0.084 Cl
HETATM   13  C   UNL     1      44.210 -19.612   4.018  1.00  0.00     0.024 A 
HETATM   14  C   UNL     1      44.212 -18.751   5.113  1.00  0.00     0.004 A 
HETATM   15  C   UNL     1      43.553 -17.522   5.033  1.00  0.00     0.029 A 
ENDBRANCH   6   9
ENDBRANCH   3   5
ENDBRANCH   1   3
BRANCH   1  16
HETATM   16  N   UNL     1      39.433 -14.611   2.259  1.00  0.00    -0.290 N 
HETATM   17  C   UNL     1      40.071 -14.059   1.150  1.00  0.00     0.245 C 
HETATM   18  O   UNL     1      40.659 -12.979   1.186  1.00  0.00    -0.271 OA
HETATM   19  H   UNL     1      38.705 -15.302   2.084  1.00  0.00     0.183 HD
BRANCH  17  20
HETATM   20  C   UNL     1      39.908 -14.880  -0.130  1.00  0.00     0.196 C 
BRANCH  20  21
HETATM   21  N   UNL     1      38.839 -14.282  -0.948  1.00  0.00    -0.282 NA
HETATM   22  H   UNL     1      38.137 -13.874  -0.314  1.00  0.00     0.128 HD
BRANCH  21  23
HETATM   23  C   UNL     1      39.334 -13.174  -1.696  1.00  0.00     0.042 A 
HETATM   24  C   UNL     1      38.704 -11.915  -1.577  1.00  0.00     0.089 A 
HETATM   25  C   UNL     1      39.210 -10.819  -2.277  1.00  0.00     0.038 A 
HETATM   26  C   UNL     1      40.341 -10.969  -3.085  1.00  0.00     0.003 A 
HETATM   27  C   UNL     1      40.970 -12.209  -3.195  1.00  0.00     0.002 A 
HETATM   28  C   UNL     1      40.470 -13.310  -2.499  1.00  0.00     0.026 A 
BRANCH  24  29
HETATM   29  O   UNL     1      37.610 -11.896  -0.745  1.00  0.00    -0.354 OA
HETATM   30  C   UNL     1      37.485 -10.782   0.129  1.00  0.00     0.210 C 
ENDBRANCH  24  29
ENDBRANCH  21  23
ENDBRANCH  20  21
ENDBRANCH  17  20
ENDBRANCH   1  16
TORSDOF 8
ENDMDL
MODEL 9
REMARK VINA RESULT:      -7.2      2.192      2.941
REMARK  8 active torsions:
REMARK  status: ('A' for Active; 'I' for Inactive)
REMARK    1  A    between atoms: C_2  and  N_3 
REMARK    2  A    between atoms: C_2  and  C_17 
REMARK    3  A    between atoms: N_3  and  N_4 
REMARK       I    between atoms: N_4  and  C_5 
REMARK    4  A    between atoms: C_5  and  C_6 
REMARK    5  A    between atoms: C_6  and  N_7 
REMARK    6  A    between atoms: N_7  and  C_8 
REMARK    7  A    between atoms: C_9  and  O_10 
REMARK       I    between atoms: C_17  and  N_18 
REMARK    8  A    between atoms: N_18  and  C_19 
ROOT
HETATM    1  N   UNL     1      43.722 -12.605   8.065  1.00  0.00    -0.225 NA
HETATM    2  H   UNL     1      43.010 -12.413   8.786  1.00  0.00     0.147 HD
ENDROOT
BRANCH   1   3
HETATM    3  C   UNL     1      44.026 -11.285   7.428  1.00  0.00     0.165 C 
HETATM    4  C   UNL     1      43.177 -11.144   6.169  1.00  0.00     0.038 C 
BRANCH   3   5
HETATM    5  C   UNL     1      43.712 -10.118   8.384  1.00  0.00     0.241 C 
HETATM    6  N   UNL     1      43.091 -10.531   9.551  1.00  0.00    -0.326 N 
HETATM    7  H   UNL     1      42.987 -11.541   9.615  1.00  0.00     0.169 HD
HETATM    8  O   UNL     1      43.968  -8.959   8.070  1.00  0.00    -0.271 OA
BRANCH   6   9
HETATM    9  C   UNL     1      42.737  -9.760  10.670  1.00  0.00     0.036 A 
HETATM   10  C   UNL     1      41.421  -9.557  11.092  1.00  0.00     0.053 A 
HETATM   11  C   UNL     1      41.161  -8.748  12.199  1.00  0.00     0.036 A 
HETATM   12 CL   UNL     1      39.537  -8.492  12.709  1.00  0.00    -0.084 Cl
HETATM   13  C   UNL     1      42.202  -8.136  12.894  1.00  0.00     0.024 A 
HETATM   14  C   UNL     1      43.517  -8.340  12.484  1.00  0.00     0.004 A 
HETATM   15  C   UNL     1      43.782  -9.151  11.378  1.00  0.00     0.029 A 
ENDBRANCH   6   9
ENDBRANCH   3   5
ENDBRANCH   1   3
BRANCH   1  16
HETATM   16  N   UNL     1      43.108 -13.494   7.135  1.00  0.00    -0.290 N 
HETATM   17  C   UNL     1      42.944 -14.833   7.482  1.00  0.00     0.245 C 
HETATM   18  O   UNL     1      43.251 -15.280   8.587  1.00  0.00    -0.271 OA
HETATM   19  H   UNL     1      43.158 -13.272   6.142  1.00  0.00     0.183 HD
BRANCH  17  20
HETATM   20  C   UNL     1      42.420 -15.708   6.343  1.00  0.00     0.196 C 
BRANCH  20  21
HETATM   21  N   UNL     1      43.250 -15.483   5.147  1.00  0.00    -0.282 NA
HETATM   22  H   UNL     1      44.204 -15.246   5.456  1.00  0.00     0.128 HD
BRANCH  21  23
HETATM   23  C   UNL     1      43.404 -16.688   4.402  1.00  0.00     0.042 A 
HETATM   24  C   UNL     1      42.747 -16.830   3.159  1.00  0.00     0.089 A 
HETATM   25  C   UNL     1      42.927 -17.992   2.409  1.00  0.00     0.038 A 
HETATM   26  C   UNL     1      43.762 -19.007   2.884  1.00  0.00     0.003 A 
HETATM   27  C   UNL     1      44.419 -18.865   4.107  1.00  0.00     0.002 A 
HETATM   28  C   UNL     1      44.244 -17.706   4.864  1.00  0.00     0.026 A 
BRANCH  24  29
HETATM   29  O   UNL     1      41.965 -15.758   2.798  1.00  0.00    -0.354 OA
HETATM   30  C   UNL     1      41.995 -15.371   1.430  1.00  0.00     0.210 C 
ENDBRANCH  24  29
ENDBRANCH  21  23
ENDBRANCH  20  21
ENDBRANCH  17  20
ENDBRANCH   1  16
TORSDOF 8
ENDMDL
MODEL 10
REMARK VINA RESULT:      -7.2      2.018      3.198
REMARK  8 active torsions:
REMARK  status: ('A' for Active; 'I' for Inactive)
REMARK    1  A    between atoms: C_2  and  N_3 
REMARK    2  A    between atoms: C_2  and  C_17 
REMARK    3  A    between atoms: N_3  and  N_4 
REMARK       I    between atoms: N_4  and  C_5 
REMARK    4  A    between atoms: C_5  and  C_6 
REMARK    5  A    between atoms: C_6  and  N_7 
REMARK    6  A    between atoms: N_7  and  C_8 
REMARK    7  A    between atoms: C_9  and  O_10 
REMARK       I    between atoms: C_17  and  N_18 
REMARK    8  A    between atoms: N_18  and  C_19 
ROOT
HETATM    1  N   UNL     1      39.621 -13.201   4.270  1.00  0.00    -0.225 NA
HETATM    2  H   UNL     1      40.077 -12.501   3.664  1.00  0.00     0.147 HD
ENDROOT
BRANCH   1   3
HETATM    3  C   UNL     1      40.138 -12.947   5.651  1.00  0.00     0.165 C 
HETATM    4  C   UNL     1      40.425 -14.288   6.320  1.00  0.00     0.038 C 
BRANCH   3   5
HETATM    5  C   UNL     1      41.432 -12.111   5.617  1.00  0.00     0.241 C 
HETATM    6  N   UNL     1      42.230 -12.310   6.732  1.00  0.00    -0.326 N 
HETATM    7  H   UNL     1      41.863 -13.013   7.368  1.00  0.00     0.169 HD
HETATM    8  O   UNL     1      41.656 -11.331   4.696  1.00  0.00    -0.271 OA
BRANCH   6   9
HETATM    9  C   UNL     1      43.504 -11.783   6.996  1.00  0.00     0.036 A 
HETATM   10  C   UNL     1      43.831 -11.083   8.160  1.00  0.00     0.053 A 
HETATM   11  C   UNL     1      45.117 -10.566   8.324  1.00  0.00     0.036 A 
HETATM   12 CL   UNL     1      45.512  -9.695   9.756  1.00  0.00    -0.084 Cl
HETATM   13  C   UNL     1      46.086 -10.740   7.339  1.00  0.00     0.024 A 
HETATM   14  C   UNL     1      45.770 -11.444   6.180  1.00  0.00     0.004 A 
HETATM   15  C   UNL     1      44.484 -11.965   6.011  1.00  0.00     0.029 A 
ENDBRANCH   6   9
ENDBRANCH   3   5
ENDBRANCH   1   3
BRANCH   1  16
HETATM   16  N   UNL     1      40.049 -14.474   3.788  1.00  0.00    -0.290 N 
HETATM   17  C   UNL     1      40.718 -14.548   2.568  1.00  0.00     0.245 C 
HETATM   18  O   UNL     1      41.015 -13.554   1.906  1.00  0.00    -0.271 OA
HETATM   19  H   UNL     1      39.550 -15.306   4.099  1.00  0.00     0.183 HD
BRANCH  17  20
HETATM   20  C   UNL     1      40.981 -15.978   2.093  1.00  0.00     0.196 C 
BRANCH  20  21
HETATM   21  N   UNL     1      42.432 -16.167   1.930  1.00  0.00    -0.282 NA
HETATM   22  H   UNL     1      42.870 -15.241   1.825  1.00  0.00     0.128 HD
BRANCH  21  23
HETATM   23  C   UNL     1      43.010 -16.704   3.118  1.00  0.00     0.042 A 
HETATM   24  C   UNL     1      43.392 -18.064   3.156  1.00  0.00     0.089 A 
HETATM   25  C   UNL     1      43.994 -18.582   4.303  1.00  0.00     0.038 A 
HETATM   26  C   UNL     1      44.225 -17.753   5.405  1.00  0.00     0.003 A 
HETATM   27  C   UNL     1      43.858 -16.408   5.365  1.00  0.00     0.002 A 
HETATM   28  C   UNL     1      43.255 -15.882   4.222  1.00  0.00     0.026 A 
BRANCH  24  29
HETATM   29  O   UNL     1      43.122 -18.769   2.007  1.00  0.00    -0.354 OA
HETATM   30  C   UNL     1      43.271 -20.181   2.068  1.00  0.00     0.210 C 
ENDBRANCH  24  29
ENDBRANCH  21  23
ENDBRANCH  20  21
ENDBRANCH  17  20
ENDBRANCH   1  16
TORSDOF 8
ENDMDL
