MODEL 1
REMARK VINA RESULT:      -7.9      0.000      0.000
REMARK  6 active torsions:
REMARK  status: ('A' for Active; 'I' for Inactive)
REMARK    1  A    between atoms: C_3  and  O_4 
REMARK    2  A    between atoms: O_4  and  C_5 
REMARK    3  A    between atoms: C_13  and  N_14 
REMARK       I    between atoms: N_14  and  C_15 
REMARK       I    between atoms: C_15  and  N_16 
REMARK    4  A    between atoms: N_16  and  C_17 
REMARK    5  A    between atoms: C_17  and  C_18 
REMARK    6  A    between atoms: C_18  and  C_19 
ROOT
HETATM    1  N   UNL     1      41.042 -14.405   1.125  1.00  0.00    -0.308 N 
HETATM    2  C   UNL     1      41.247 -13.113   0.692  1.00  0.00     0.320 C 
HETATM    3  N   UNL     1      40.861 -12.982  -0.627  1.00  0.00    -0.342 N 
HETATM    4  O   UNL     1      41.660 -12.168   1.350  1.00  0.00    -0.247 OA
HETATM    5  H   UNL     1      40.478 -14.956   0.499  1.00  0.00     0.170 HD
HETATM    6  H   UNL     1      41.062 -13.781  -1.218  1.00  0.00     0.164 HD
ENDROOT
BRANCH   1   7
HETATM    7  C   UNL     1      41.306 -14.946   2.406  1.00  0.00     0.045 A 
HETATM    8  C   UNL     1      42.437 -15.780   2.581  1.00  0.00    -0.002 A 
HETATM    9  C   UNL     1      43.377 -16.073   1.439  1.00  0.00     0.053 C 
HETATM   10  C   UNL     1      42.647 -16.387   3.837  1.00  0.00     0.077 A 
HETATM   11  C   UNL     1      41.824 -16.092   4.923  1.00  0.00     0.037 A 
HETATM   12  C   UNL     1      40.741 -15.237   4.756  1.00  0.00     0.005 A 
HETATM   13  C   UNL     1      40.479 -14.677   3.503  1.00  0.00     0.030 A 
BRANCH  10  14
HETATM   14  O   UNL     1      43.714 -17.243   3.963  1.00  0.00    -0.345 OA
BRANCH  14  15
HETATM   15  C   UNL     1      43.363 -18.624   4.067  1.00  0.00     0.129 C 
HETATM   16  C   UNL     1      43.926 -19.497   2.946  1.00  0.00     0.032 C 
HETATM   17  C   UNL     1      43.881 -20.893   3.541  1.00  0.00     0.002 C 
HETATM   18  C   UNL     1      44.226 -20.701   5.015  1.00  0.00     0.002 C 
HETATM   19  C   UNL     1      44.044 -19.213   5.306  1.00  0.00     0.032 C 
ENDBRANCH  14  15
ENDBRANCH  10  14
ENDBRANCH   1   7
BRANCH   3  20
HETATM   20  C   UNL     1      40.986 -11.699  -1.305  1.00  0.00     0.132 C 
BRANCH  20  21
HETATM   21  C   UNL     1      40.051 -11.564  -2.507  1.00  0.00     0.102 C 
BRANCH  21  22
HETATM   22  C   UNL     1      39.070 -12.681  -2.592  1.00  0.00     0.148 A 
HETATM   23  N   UNL     1      37.951 -12.718  -1.855  1.00  0.00    -0.158 NA
HETATM   24  N   UNL     1      37.395 -13.869  -2.266  1.00  0.00    -0.270 N 
HETATM   25  H   UNL     1      36.507 -14.160  -1.873  1.00  0.00     0.190 HD
HETATM   26  C   UNL     1      38.171 -14.484  -3.196  1.00  0.00     0.227 A 
HETATM   27  N   UNL     1      39.242 -13.762  -3.426  1.00  0.00    -0.226 NA
ENDBRANCH  21  22
ENDBRANCH  20  21
ENDBRANCH   3  20
TORSDOF 6
ENDMDL
MODEL 2
REMARK VINA RESULT:      -7.8      6.384      8.977
REMARK  6 active torsions:
REMARK  status: ('A' for Active; 'I' for Inactive)
REMARK    1  A    between atoms: C_3  and  O_4 
REMARK    2  A    between atoms: O_4  and  C_5 
REMARK    3  A    between atoms: C_13  and  N_14 
REMARK       I    between atoms: N_14  and  C_15 
REMARK       I    between atoms: C_15  and  N_16 
REMARK    4  A    between atoms: N_16  and  C_17 
REMARK    5  A    between atoms: C_17  and  C_18 
REMARK    6  A    between atoms: C_18  and  C_19 
ROOT
HETATM    1  N   UNL     1      43.457 -12.027   6.522  1.00  0.00    -0.308 N 
HETATM    2  C   UNL     1      44.627 -11.491   7.015  1.00  0.00     0.320 C 
HETATM    3  N   UNL     1      44.414 -10.943   8.266  1.00  0.00    -0.342 N 
HETATM    4  O   UNL     1      45.731 -11.511   6.489  1.00  0.00    -0.247 OA
HETATM    5  H   UNL     1      42.729 -12.111   7.213  1.00  0.00     0.170 HD
HETATM    6  H   UNL     1      43.521 -10.479   8.388  1.00  0.00     0.164 HD
ENDROOT
BRANCH   1   7
HETATM    7  C   UNL     1      43.253 -12.677   5.282  1.00  0.00     0.045 A 
HETATM    8  C   UNL     1      42.807 -14.021   5.274  1.00  0.00    -0.002 A 
HETATM    9  C   UNL     1      42.515 -14.756   6.559  1.00  0.00     0.053 C 
HETATM   10  C   UNL     1      42.688 -14.692   4.040  1.00  0.00     0.077 A 
HETATM   11  C   UNL     1      42.900 -14.021   2.835  1.00  0.00     0.037 A 
HETATM   12  C   UNL     1      43.294 -12.689   2.849  1.00  0.00     0.005 A 
HETATM   13  C   UNL     1      43.479 -12.026   4.064  1.00  0.00     0.030 A 
BRANCH  10  14
HETATM   14  O   UNL     1      42.316 -16.014   4.063  1.00  0.00    -0.345 OA
BRANCH  14  15
HETATM   15  C   UNL     1      43.325 -16.927   3.628  1.00  0.00     0.129 C 
HETATM   16  C   UNL     1      43.701 -17.983   4.666  1.00  0.00     0.032 C 
HETATM   17  C   UNL     1      44.337 -19.079   3.828  1.00  0.00     0.002 C 
HETATM   18  C   UNL     1      43.529 -19.099   2.534  1.00  0.00     0.002 C 
HETATM   19  C   UNL     1      42.759 -17.781   2.490  1.00  0.00     0.032 C 
ENDBRANCH  14  15
ENDBRANCH  10  14
ENDBRANCH   1   7
BRANCH   3  20
HETATM   20  C   UNL     1      45.512 -10.315   8.988  1.00  0.00     0.132 C 
BRANCH  20  21
HETATM   21  C   UNL     1      45.037  -9.360  10.084  1.00  0.00     0.102 C 
BRANCH  21  22
HETATM   22  C   UNL     1      44.179 -10.038  11.094  1.00  0.00     0.148 A 
HETATM   23  N   UNL     1      44.224 -11.359  11.312  1.00  0.00    -0.158 NA
HETATM   24  N   UNL     1      43.312 -11.504  12.286  1.00  0.00    -0.270 N 
HETATM   25  H   UNL     1      43.135 -12.426  12.668  1.00  0.00     0.190 HD
HETATM   26  C   UNL     1      42.748 -10.312  12.612  1.00  0.00     0.227 A 
HETATM   27  N   UNL     1      43.271  -9.360  11.875  1.00  0.00    -0.226 NA
ENDBRANCH  21  22
ENDBRANCH  20  21
ENDBRANCH   3  20
TORSDOF 6
ENDMDL
MODEL 3
REMARK VINA RESULT:      -7.5      5.419      7.711
REMARK  6 active torsions:
REMARK  status: ('A' for Active; 'I' for Inactive)
REMARK    1  A    between atoms: C_3  and  O_4 
REMARK    2  A    between atoms: O_4  and  C_5 
REMARK    3  A    between atoms: C_13  and  N_14 
REMARK       I    between atoms: N_14  and  C_15 
REMARK       I    between atoms: C_15  and  N_16 
REMARK    4  A    between atoms: N_16  and  C_17 
REMARK    5  A    between atoms: C_17  and  C_18 
REMARK    6  A    between atoms: C_18  and  C_19 
ROOT
HETATM    1  N   UNL     1      41.404 -12.091   6.447  1.00  0.00    -0.308 N 
HETATM    2  C   UNL     1      41.969 -10.835   6.416  1.00  0.00     0.320 C 
HETATM    3  N   UNL     1      41.855 -10.226   7.651  1.00  0.00    -0.342 N 
HETATM    4  O   UNL     1      42.545 -10.303   5.475  1.00  0.00    -0.247 OA
HETATM    5  H   UNL     1      41.199 -12.419   7.377  1.00  0.00     0.170 HD
HETATM    6  H   UNL     1      40.988 -10.410   8.145  1.00  0.00     0.164 HD
ENDROOT
BRANCH   1   7
HETATM    7  C   UNL     1      41.315 -13.032   5.393  1.00  0.00     0.045 A 
HETATM    8  C   UNL     1      42.355 -13.978   5.226  1.00  0.00    -0.002 A 
HETATM    9  C   UNL     1      43.533 -14.020   6.167  1.00  0.00     0.053 C 
HETATM   10  C   UNL     1      42.306 -14.856   4.123  1.00  0.00     0.077 A 
HETATM   11  C   UNL     1      41.204 -14.873   3.269  1.00  0.00     0.037 A 
HETATM   12  C   UNL     1      40.165 -13.972   3.465  1.00  0.00     0.005 A 
HETATM   13  C   UNL     1      40.226 -13.051   4.513  1.00  0.00     0.030 A 
BRANCH  10  14
HETATM   14  O   UNL     1      43.358 -15.721   3.946  1.00  0.00    -0.345 OA
BRANCH  14  15
HETATM   15  C   UNL     1      42.982 -17.072   3.676  1.00  0.00     0.129 C 
HETATM   16  C   UNL     1      43.227 -17.512   2.233  1.00  0.00     0.032 C 
HETATM   17  C   UNL     1      43.263 -19.027   2.336  1.00  0.00     0.002 C 
HETATM   18  C   UNL     1      43.953 -19.311   3.666  1.00  0.00     0.002 C 
HETATM   19  C   UNL     1      43.909 -18.006   4.459  1.00  0.00     0.032 C 
ENDBRANCH  14  15
ENDBRANCH  10  14
ENDBRANCH   1   7
BRANCH   3  20
HETATM   20  C   UNL     1      42.383  -8.885   7.860  1.00  0.00     0.132 C 
BRANCH  20  21
HETATM   21  C   UNL     1      43.493  -8.836   8.911  1.00  0.00     0.102 C 
BRANCH  21  22
HETATM   22  C   UNL     1      44.807  -9.279   8.368  1.00  0.00     0.148 A 
HETATM   23  N   UNL     1      45.832  -8.437   8.180  1.00  0.00    -0.158 NA
HETATM   24  N   UNL     1      46.776  -9.262   7.701  1.00  0.00    -0.270 N 
HETATM   25  H   UNL     1      47.691  -8.892   7.470  1.00  0.00     0.190 HD
HETATM   26  C   UNL     1      46.311 -10.535   7.602  1.00  0.00     0.227 A 
HETATM   27  N   UNL     1      45.066 -10.583   8.013  1.00  0.00    -0.226 NA
ENDBRANCH  21  22
ENDBRANCH  20  21
ENDBRANCH   3  20
TORSDOF 6
ENDMDL
MODEL 4
REMARK VINA RESULT:      -7.4      6.215      9.355
REMARK  6 active torsions:
REMARK  status: ('A' for Active; 'I' for Inactive)
REMARK    1  A    between atoms: C_3  and  O_4 
REMARK    2  A    between atoms: O_4  and  C_5 
REMARK    3  A    between atoms: C_13  and  N_14 
REMARK       I    between atoms: N_14  and  C_15 
REMARK       I    between atoms: C_15  and  N_16 
REMARK    4  A    between atoms: N_16  and  C_17 
REMARK    5  A    between atoms: C_17  and  C_18 
REMARK    6  A    between atoms: C_18  and  C_19 
ROOT
HETATM    1  N   UNL     1      43.395 -13.020   7.373  1.00  0.00    -0.308 N 
HETATM    2  C   UNL     1      44.369 -12.053   7.257  1.00  0.00     0.320 C 
HETATM    3  N   UNL     1      44.371 -11.238   8.372  1.00  0.00    -0.342 N 
HETATM    4  O   UNL     1      45.176 -11.919   6.347  1.00  0.00    -0.247 OA
HETATM    5  H   UNL     1      43.006 -13.094   8.299  1.00  0.00     0.170 HD
HETATM    6  H   UNL     1      43.455 -11.030   8.757  1.00  0.00     0.164 HD
ENDROOT
BRANCH   1   7
HETATM    7  C   UNL     1      43.071 -14.044   6.450  1.00  0.00     0.045 A 
HETATM    8  C   UNL     1      41.970 -13.862   5.578  1.00  0.00    -0.002 A 
HETATM    9  C   UNL     1      41.163 -12.588   5.593  1.00  0.00     0.053 C 
HETATM   10  C   UNL     1      41.598 -14.918   4.722  1.00  0.00     0.077 A 
HETATM   11  C   UNL     1      42.358 -16.086   4.650  1.00  0.00     0.037 A 
HETATM   12  C   UNL     1      43.464 -16.240   5.478  1.00  0.00     0.005 A 
HETATM   13  C   UNL     1      43.810 -15.230   6.378  1.00  0.00     0.030 A 
BRANCH  10  14
HETATM   14  O   UNL     1      40.488 -14.742   3.932  1.00  0.00    -0.345 OA
BRANCH  14  15
HETATM   15  C   UNL     1      40.757 -14.676   2.530  1.00  0.00     0.129 C 
HETATM   16  C   UNL     1      39.966 -15.683   1.695  1.00  0.00     0.032 C 
HETATM   17  C   UNL     1      40.011 -15.083   0.300  1.00  0.00     0.002 C 
HETATM   18  C   UNL     1      39.917 -13.576   0.520  1.00  0.00     0.002 C 
HETATM   19  C   UNL     1      40.243 -13.338   1.993  1.00  0.00     0.032 C 
ENDBRANCH  14  15
ENDBRANCH  10  14
ENDBRANCH   1   7
BRANCH   3  20
HETATM   20  C   UNL     1      45.320 -10.138   8.476  1.00  0.00     0.132 C 
BRANCH  20  21
HETATM   21  C   UNL     1      45.370  -9.521   9.874  1.00  0.00     0.102 C 
BRANCH  21  22
HETATM   22  C   UNL     1      44.281 -10.025  10.756  1.00  0.00     0.148 A 
HETATM   23  N   UNL     1      44.357 -11.195  11.403  1.00  0.00    -0.158 NA
HETATM   24  N   UNL     1      43.186 -11.219  12.059  1.00  0.00    -0.270 N 
HETATM   25  H   UNL     1      42.966 -12.008  12.656  1.00  0.00     0.190 HD
HETATM   26  C   UNL     1      42.451 -10.108  11.791  1.00  0.00     0.227 A 
HETATM   27  N   UNL     1      43.112  -9.330  10.966  1.00  0.00    -0.226 NA
ENDBRANCH  21  22
ENDBRANCH  20  21
ENDBRANCH   3  20
TORSDOF 6
ENDMDL
MODEL 5
REMARK VINA RESULT:      -7.3      6.037      8.513
REMARK  6 active torsions:
REMARK  status: ('A' for Active; 'I' for Inactive)
REMARK    1  A    between atoms: C_3  and  O_4 
REMARK    2  A    between atoms: O_4  and  C_5 
REMARK    3  A    between atoms: C_13  and  N_14 
REMARK       I    between atoms: N_14  and  C_15 
REMARK       I    between atoms: C_15  and  N_16 
REMARK    4  A    between atoms: N_16  and  C_17 
REMARK    5  A    between atoms: C_17  and  C_18 
REMARK    6  A    between atoms: C_18  and  C_19 
ROOT
HETATM    1  N   UNL     1      42.935 -12.857   7.229  1.00  0.00    -0.308 N 
HETATM    2  C   UNL     1      43.896 -11.883   7.383  1.00  0.00     0.320 C 
HETATM    3  N   UNL     1      43.307 -10.671   7.689  1.00  0.00    -0.342 N 
HETATM    4  O   UNL     1      45.111 -12.023   7.319  1.00  0.00    -0.247 OA
HETATM    5  H   UNL     1      42.023 -12.580   7.555  1.00  0.00     0.170 HD
HETATM    6  H   UNL     1      42.430 -10.486   7.215  1.00  0.00     0.164 HD
ENDROOT
BRANCH   1   7
HETATM    7  C   UNL     1      43.124 -14.225   6.915  1.00  0.00     0.045 A 
HETATM    8  C   UNL     1      43.248 -14.608   5.557  1.00  0.00    -0.002 A 
HETATM    9  C   UNL     1      43.215 -13.586   4.449  1.00  0.00     0.053 C 
HETATM   10  C   UNL     1      43.348 -15.979   5.244  1.00  0.00     0.077 A 
HETATM   11  C   UNL     1      43.434 -16.941   6.251  1.00  0.00     0.037 A 
HETATM   12  C   UNL     1      43.356 -16.553   7.583  1.00  0.00     0.005 A 
HETATM   13  C   UNL     1      43.192 -15.206   7.911  1.00  0.00     0.030 A 
BRANCH  10  14
HETATM   14  O   UNL     1      43.402 -16.331   3.917  1.00  0.00    -0.345 OA
BRANCH  14  15
HETATM   15  C   UNL     1      43.098 -17.701   3.649  1.00  0.00     0.129 C 
HETATM   16  C   UNL     1      42.528 -17.952   2.253  1.00  0.00     0.032 C 
HETATM   17  C   UNL     1      42.791 -19.433   2.037  1.00  0.00     0.002 C 
HETATM   18  C   UNL     1      44.142 -19.691   2.697  1.00  0.00     0.002 C 
HETATM   19  C   UNL     1      44.405 -18.497   3.612  1.00  0.00     0.032 C 
ENDBRANCH  14  15
ENDBRANCH  10  14
ENDBRANCH   1   7
BRANCH   3  20
HETATM   20  C   UNL     1      44.129  -9.487   7.898  1.00  0.00     0.132 C 
BRANCH  20  21
HETATM   21  C   UNL     1      44.710  -9.404   9.310  1.00  0.00     0.102 C 
BRANCH  21  22
HETATM   22  C   UNL     1      43.748  -9.869  10.347  1.00  0.00     0.148 A 
HETATM   23  N   UNL     1      43.919 -11.007  11.034  1.00  0.00    -0.158 NA
HETATM   24  N   UNL     1      42.842 -11.003  11.836  1.00  0.00    -0.270 N 
HETATM   25  H   UNL     1      42.709 -11.764  12.493  1.00  0.00     0.190 HD
HETATM   26  C   UNL     1      42.067  -9.910  11.612  1.00  0.00     0.227 A 
HETATM   27  N   UNL     1      42.608  -9.171  10.673  1.00  0.00    -0.226 NA
ENDBRANCH  21  22
ENDBRANCH  20  21
ENDBRANCH   3  20
TORSDOF 6
ENDMDL
MODEL 6
REMARK VINA RESULT:      -7.0      1.553      1.875
REMARK  6 active torsions:
REMARK  status: ('A' for Active; 'I' for Inactive)
REMARK    1  A    between atoms: C_3  and  O_4 
REMARK    2  A    between atoms: O_4  and  C_5 
REMARK    3  A    between atoms: C_13  and  N_14 
REMARK       I    between atoms: N_14  and  C_15 
REMARK       I    between atoms: C_15  and  N_16 
REMARK    4  A    between atoms: N_16  and  C_17 
REMARK    5  A    between atoms: C_17  and  C_18 
REMARK    6  A    between atoms: C_18  and  C_19 
ROOT
HETATM    1  N   UNL     1      39.422 -13.566   2.036  1.00  0.00    -0.308 N 
HETATM    2  C   UNL     1      39.251 -12.340   1.432  1.00  0.00     0.320 C 
HETATM    3  N   UNL     1      38.237 -12.403   0.495  1.00  0.00    -0.342 N 
HETATM    4  O   UNL     1      39.846 -11.300   1.683  1.00  0.00    -0.247 OA
HETATM    5  H   UNL     1      38.675 -14.216   1.849  1.00  0.00     0.170 HD
HETATM    6  H   UNL     1      38.188 -13.268  -0.031  1.00  0.00     0.164 HD
ENDROOT
BRANCH   1   7
HETATM    7  C   UNL     1      40.352 -13.919   3.043  1.00  0.00     0.045 A 
HETATM    8  C   UNL     1      41.471 -14.715   2.699  1.00  0.00    -0.002 A 
HETATM    9  C   UNL     1      41.704 -15.164   1.278  1.00  0.00     0.053 C 
HETATM   10  C   UNL     1      42.347 -15.136   3.720  1.00  0.00     0.077 A 
HETATM   11  C   UNL     1      42.184 -14.693   5.033  1.00  0.00     0.037 A 
HETATM   12  C   UNL     1      41.109 -13.874   5.356  1.00  0.00     0.005 A 
HETATM   13  C   UNL     1      40.194 -13.499   4.369  1.00  0.00     0.030 A 
BRANCH  10  14
HETATM   14  O   UNL     1      43.388 -15.962   3.372  1.00  0.00    -0.345 OA
BRANCH  14  15
HETATM   15  C   UNL     1      43.176 -17.345   3.659  1.00  0.00     0.129 C 
HETATM   16  C   UNL     1      43.447 -18.276   2.478  1.00  0.00     0.032 C 
HETATM   17  C   UNL     1      43.670 -19.622   3.146  1.00  0.00     0.002 C 
HETATM   18  C   UNL     1      44.414 -19.299   4.438  1.00  0.00     0.002 C 
HETATM   19  C   UNL     1      44.224 -17.802   4.677  1.00  0.00     0.032 C 
ENDBRANCH  14  15
ENDBRANCH  10  14
ENDBRANCH   1   7
BRANCH   3  20
HETATM   20  C   UNL     1      37.874 -11.221  -0.274  1.00  0.00     0.132 C 
BRANCH  20  21
HETATM   21  C   UNL     1      38.405 -11.253  -1.707  1.00  0.00     0.102 C 
BRANCH  21  22
HETATM   22  C   UNL     1      39.043 -12.555  -2.046  1.00  0.00     0.148 A 
HETATM   23  N   UNL     1      40.370 -12.736  -2.031  1.00  0.00    -0.158 NA
HETATM   24  N   UNL     1      40.472 -14.027  -2.382  1.00  0.00    -0.270 N 
HETATM   25  H   UNL     1      41.390 -14.455  -2.446  1.00  0.00     0.190 HD
HETATM   26  C   UNL     1      39.248 -14.573  -2.608  1.00  0.00     0.227 A 
HETATM   27  N   UNL     1      38.319 -13.669  -2.407  1.00  0.00    -0.226 NA
ENDBRANCH  21  22
ENDBRANCH  20  21
ENDBRANCH   3  20
TORSDOF 6
ENDMDL
MODEL 7
REMARK VINA RESULT:      -7.0     13.922     16.857
REMARK  6 active torsions:
REMARK  status: ('A' for Active; 'I' for Inactive)
REMARK    1  A    between atoms: C_3  and  O_4 
REMARK    2  A    between atoms: O_4  and  C_5 
REMARK    3  A    between atoms: C_13  and  N_14 
REMARK       I    between atoms: N_14  and  C_15 
REMARK       I    between atoms: C_15  and  N_16 
REMARK    4  A    between atoms: N_16  and  C_17 
REMARK    5  A    between atoms: C_17  and  C_18 
REMARK    6  A    between atoms: C_18  and  C_19 
ROOT
HETATM    1  N   UNL     1      41.345  -8.535  15.720  1.00  0.00    -0.308 N 
HETATM    2  C   UNL     1      40.725  -7.522  16.419  1.00  0.00     0.320 C 
HETATM    3  N   UNL     1      41.042  -7.601  17.761  1.00  0.00    -0.342 N 
HETATM    4  O   UNL     1      40.024  -6.628  15.964  1.00  0.00    -0.247 OA
HETATM    5  H   UNL     1      42.057  -9.012  16.248  1.00  0.00     0.170 HD
HETATM    6  H   UNL     1      41.114  -8.541  18.134  1.00  0.00     0.164 HD
ENDROOT
BRANCH   1   7
HETATM    7  C   UNL     1      41.277  -8.802  14.332  1.00  0.00     0.045 A 
HETATM    8  C   UNL     1      42.208  -8.180  13.465  1.00  0.00    -0.002 A 
HETATM    9  C   UNL     1      43.285  -7.269  13.997  1.00  0.00     0.053 C 
HETATM   10  C   UNL     1      42.083  -8.381  12.074  1.00  0.00     0.077 A 
HETATM   11  C   UNL     1      41.130  -9.259  11.560  1.00  0.00     0.037 A 
HETATM   12  C   UNL     1      40.247  -9.902  12.420  1.00  0.00     0.005 A 
HETATM   13  C   UNL     1      40.315  -9.666  13.795  1.00  0.00     0.030 A 
BRANCH  10  14
HETATM   14  O   UNL     1      42.957  -7.716  11.250  1.00  0.00    -0.345 OA
BRANCH  14  15
HETATM   15  C   UNL     1      43.496  -8.506  10.189  1.00  0.00     0.129 C 
HETATM   16  C   UNL     1      44.182  -7.693   9.092  1.00  0.00     0.032 C 
HETATM   17  C   UNL     1      45.084  -8.714   8.420  1.00  0.00     0.002 C 
HETATM   18  C   UNL     1      45.583  -9.602   9.555  1.00  0.00     0.002 C 
HETATM   19  C   UNL     1      44.653  -9.345  10.740  1.00  0.00     0.032 C 
ENDBRANCH  14  15
ENDBRANCH  10  14
ENDBRANCH   1   7
BRANCH   3  20
HETATM   20  C   UNL     1      40.500  -6.630  18.702  1.00  0.00     0.132 C 
BRANCH  20  21
HETATM   21  C   UNL     1      40.546  -7.113  20.152  1.00  0.00     0.102 C 
BRANCH  21  22
HETATM   22  C   UNL     1      40.988  -8.530  20.264  1.00  0.00     0.148 A 
HETATM   23  N   UNL     1      40.137  -9.562  20.179  1.00  0.00    -0.158 NA
HETATM   24  N   UNL     1      40.965 -10.608  20.323  1.00  0.00    -0.270 N 
HETATM   25  H   UNL     1      40.588 -11.549  20.290  1.00  0.00     0.190 HD
HETATM   26  C   UNL     1      42.248 -10.198  20.500  1.00  0.00     0.227 A 
HETATM   27  N   UNL     1      42.300  -8.888  20.471  1.00  0.00    -0.226 NA
ENDBRANCH  21  22
ENDBRANCH  20  21
ENDBRANCH   3  20
TORSDOF 6
ENDMDL
MODEL 8
REMARK VINA RESULT:      -6.9      4.086      5.222
REMARK  6 active torsions:
REMARK  status: ('A' for Active; 'I' for Inactive)
REMARK    1  A    between atoms: C_3  and  O_4 
REMARK    2  A    between atoms: O_4  and  C_5 
REMARK    3  A    between atoms: C_13  and  N_14 
REMARK       I    between atoms: N_14  and  C_15 
REMARK       I    between atoms: C_15  and  N_16 
REMARK    4  A    between atoms: N_16  and  C_17 
REMARK    5  A    between atoms: C_17  and  C_18 
REMARK    6  A    between atoms: C_18  and  C_19 
ROOT
HETATM    1  N   UNL     1      41.911 -13.226   6.213  1.00  0.00    -0.308 N 
HETATM    2  C   UNL     1      40.552 -13.003   6.251  1.00  0.00     0.320 C 
HETATM    3  N   UNL     1      40.282 -11.656   6.110  1.00  0.00    -0.342 N 
HETATM    4  O   UNL     1      39.665 -13.842   6.344  1.00  0.00    -0.247 OA
HETATM    5  H   UNL     1      42.442 -12.432   5.894  1.00  0.00     0.170 HD
HETATM    6  H   UNL     1      40.938 -11.034   6.569  1.00  0.00     0.164 HD
ENDROOT
BRANCH   1   7
HETATM    7  C   UNL     1      42.594 -14.461   6.321  1.00  0.00     0.045 A 
HETATM    8  C   UNL     1      43.102 -15.072   5.148  1.00  0.00    -0.002 A 
HETATM    9  C   UNL     1      42.956 -14.415   3.799  1.00  0.00     0.053 C 
HETATM   10  C   UNL     1      43.704 -16.343   5.249  1.00  0.00     0.077 A 
HETATM   11  C   UNL     1      43.899 -16.948   6.491  1.00  0.00     0.037 A 
HETATM   12  C   UNL     1      43.438 -16.322   7.643  1.00  0.00     0.005 A 
HETATM   13  C   UNL     1      42.781 -15.093   7.556  1.00  0.00     0.030 A 
BRANCH  10  14
HETATM   14  O   UNL     1      44.131 -16.943   4.090  1.00  0.00    -0.345 OA
BRANCH  14  15
HETATM   15  C   UNL     1      43.396 -18.110   3.716  1.00  0.00     0.129 C 
HETATM   16  C   UNL     1      43.005 -18.156   2.240  1.00  0.00     0.032 C 
HETATM   17  C   UNL     1      42.742 -19.633   1.999  1.00  0.00     0.002 C 
HETATM   18  C   UNL     1      43.783 -20.358   2.846  1.00  0.00     0.002 C 
HETATM   19  C   UNL     1      44.313 -19.330   3.844  1.00  0.00     0.032 C 
ENDBRANCH  14  15
ENDBRANCH  10  14
ENDBRANCH   1   7
BRANCH   3  20
HETATM   20  C   UNL     1      38.906 -11.178   6.120  1.00  0.00     0.132 C 
BRANCH  20  21
HETATM   21  C   UNL     1      38.561 -10.324   4.899  1.00  0.00     0.102 C 
BRANCH  21  22
HETATM   22  C   UNL     1      39.763  -9.975   4.093  1.00  0.00     0.148 A 
HETATM   23  N   UNL     1      40.499  -8.880   4.327  1.00  0.00    -0.158 NA
HETATM   24  N   UNL     1      41.451  -8.987   3.388  1.00  0.00    -0.270 N 
HETATM   25  H   UNL     1      42.176  -8.280   3.331  1.00  0.00     0.190 HD
HETATM   26  C   UNL     1      41.267 -10.097   2.626  1.00  0.00     0.227 A 
HETATM   27  N   UNL     1      40.205 -10.746   3.042  1.00  0.00    -0.226 NA
ENDBRANCH  21  22
ENDBRANCH  20  21
ENDBRANCH   3  20
TORSDOF 6
ENDMDL
MODEL 9
REMARK VINA RESULT:      -6.8     14.895     17.319
REMARK  6 active torsions:
REMARK  status: ('A' for Active; 'I' for Inactive)
REMARK    1  A    between atoms: C_3  and  O_4 
REMARK    2  A    between atoms: O_4  and  C_5 
REMARK    3  A    between atoms: C_13  and  N_14 
REMARK       I    between atoms: N_14  and  C_15 
REMARK       I    between atoms: C_15  and  N_16 
REMARK    4  A    between atoms: N_16  and  C_17 
REMARK    5  A    between atoms: C_17  and  C_18 
REMARK    6  A    between atoms: C_18  and  C_19 
ROOT
HETATM    1  N   UNL     1      40.931 -31.476   2.296  1.00  0.00    -0.308 N 
HETATM    2  C   UNL     1      40.980 -31.979   3.578  1.00  0.00     0.320 C 
HETATM    3  N   UNL     1      39.768 -31.793   4.213  1.00  0.00    -0.342 N 
HETATM    4  O   UNL     1      41.917 -32.558   4.111  1.00  0.00    -0.247 OA
HETATM    5  H   UNL     1      39.999 -31.257   1.983  1.00  0.00     0.170 HD
HETATM    6  H   UNL     1      39.297 -30.921   3.999  1.00  0.00     0.164 HD
ENDROOT
BRANCH   1   7
HETATM    7  C   UNL     1      41.959 -31.470   1.323  1.00  0.00     0.045 A 
HETATM    8  C   UNL     1      42.617 -30.252   1.024  1.00  0.00    -0.002 A 
HETATM    9  C   UNL     1      42.264 -28.975   1.745  1.00  0.00     0.053 C 
HETATM   10  C   UNL     1      43.579 -30.233  -0.006  1.00  0.00     0.077 A 
HETATM   11  C   UNL     1      43.962 -31.408  -0.652  1.00  0.00     0.037 A 
HETATM   12  C   UNL     1      43.345 -32.609  -0.322  1.00  0.00     0.005 A 
HETATM   13  C   UNL     1      42.343 -32.636   0.651  1.00  0.00     0.030 A 
BRANCH  10  14
HETATM   14  O   UNL     1      44.156 -29.027  -0.321  1.00  0.00    -0.345 OA
BRANCH  14  15
HETATM   15  C   UNL     1      45.548 -29.094  -0.635  1.00  0.00     0.129 C 
HETATM   16  C   UNL     1      45.970 -28.197  -1.798  1.00  0.00     0.032 C 
HETATM   17  C   UNL     1      47.466 -28.041  -1.587  1.00  0.00     0.002 C 
HETATM   18  C   UNL     1      47.643 -27.974  -0.074  1.00  0.00     0.002 C 
HETATM   19  C   UNL     1      46.344 -28.504   0.532  1.00  0.00     0.032 C 
ENDBRANCH  14  15
ENDBRANCH  10  14
ENDBRANCH   1   7
BRANCH   3  20
HETATM   20  C   UNL     1      39.581 -32.247   5.584  1.00  0.00     0.132 C 
BRANCH  20  21
HETATM   21  C   UNL     1      38.721 -33.507   5.686  1.00  0.00     0.102 C 
BRANCH  21  22
HETATM   22  C   UNL     1      37.437 -33.378   4.943  1.00  0.00     0.148 A 
HETATM   23  N   UNL     1      36.260 -33.200   5.557  1.00  0.00    -0.158 NA
HETATM   24  N   UNL     1      35.418 -33.131   4.514  1.00  0.00    -0.270 N 
HETATM   25  H   UNL     1      34.428 -32.986   4.682  1.00  0.00     0.190 HD
HETATM   26  C   UNL     1      36.081 -33.279   3.337  1.00  0.00     0.227 A 
HETATM   27  N   UNL     1      37.362 -33.440   3.570  1.00  0.00    -0.226 NA
ENDBRANCH  21  22
ENDBRANCH  20  21
ENDBRANCH   3  20
TORSDOF 6
ENDMDL
MODEL 10
REMARK VINA RESULT:      -6.7      2.255      3.225
REMARK  6 active torsions:
REMARK  status: ('A' for Active; 'I' for Inactive)
REMARK    1  A    between atoms: C_3  and  O_4 
REMARK    2  A    between atoms: O_4  and  C_5 
REMARK    3  A    between atoms: C_13  and  N_14 
REMARK       I    between atoms: N_14  and  C_15 
REMARK       I    between atoms: C_15  and  N_16 
REMARK    4  A    between atoms: N_16  and  C_17 
REMARK    5  A    between atoms: C_17  and  C_18 
REMARK    6  A    between atoms: C_18  and  C_19 
ROOT
HETATM    1  N   UNL     1      39.407 -13.233   0.970  1.00  0.00    -0.308 N 
HETATM    2  C   UNL     1      39.309 -13.134  -0.400  1.00  0.00     0.320 C 
HETATM    3  N   UNL     1      38.011 -12.838  -0.769  1.00  0.00    -0.342 N 
HETATM    4  O   UNL     1      40.215 -13.236  -1.218  1.00  0.00    -0.247 OA
HETATM    5  H   UNL     1      38.599 -12.883   1.459  1.00  0.00     0.170 HD
HETATM    6  H   UNL     1      37.291 -13.286  -0.213  1.00  0.00     0.164 HD
ENDROOT
BRANCH   1   7
HETATM    7  C   UNL     1      40.558 -13.521   1.742  1.00  0.00     0.045 A 
HETATM    8  C   UNL     1      40.706 -14.813   2.301  1.00  0.00    -0.002 A 
HETATM    9  C   UNL     1      39.680 -15.892   2.061  1.00  0.00     0.053 C 
HETATM   10  C   UNL     1      41.810 -15.070   3.141  1.00  0.00     0.077 A 
HETATM   11  C   UNL     1      42.800 -14.107   3.337  1.00  0.00     0.037 A 
HETATM   12  C   UNL     1      42.671 -12.855   2.749  1.00  0.00     0.005 A 
HETATM   13  C   UNL     1      41.553 -12.562   1.966  1.00  0.00     0.030 A 
BRANCH  10  14
HETATM   14  O   UNL     1      41.897 -16.310   3.724  1.00  0.00    -0.345 OA
BRANCH  14  15
HETATM   15  C   UNL     1      43.099 -17.024   3.431  1.00  0.00     0.129 C 
HETATM   16  C   UNL     1      43.664 -17.808   4.615  1.00  0.00     0.032 C 
HETATM   17  C   UNL     1      44.557 -18.841   3.949  1.00  0.00     0.002 C 
HETATM   18  C   UNL     1      43.822 -19.228   2.670  1.00  0.00     0.002 C 
HETATM   19  C   UNL     1      42.779 -18.138   2.430  1.00  0.00     0.032 C 
ENDBRANCH  14  15
ENDBRANCH  10  14
ENDBRANCH   1   7
BRANCH   3  20
HETATM   20  C   UNL     1      37.665 -12.684  -2.175  1.00  0.00     0.132 C 
BRANCH  20  21
HETATM   21  C   UNL     1      37.372 -11.235  -2.565  1.00  0.00     0.102 C 
BRANCH  21  22
HETATM   22  C   UNL     1      37.453 -10.308  -1.402  1.00  0.00     0.148 A 
HETATM   23  N   UNL     1      36.410 -10.062  -0.598  1.00  0.00    -0.158 NA
HETATM   24  N   UNL     1      36.944  -9.203   0.284  1.00  0.00    -0.270 N 
HETATM   25  H   UNL     1      36.369  -8.843   1.038  1.00  0.00     0.190 HD
HETATM   26  C   UNL     1      38.247  -8.949  -0.006  1.00  0.00     0.227 A 
HETATM   27  N   UNL     1      38.603  -9.629  -1.069  1.00  0.00    -0.226 NA
ENDBRANCH  21  22
ENDBRANCH  20  21
ENDBRANCH   3  20
TORSDOF 6
ENDMDL
