MODEL 1
REMARK VINA RESULT:     -10.1      0.000      0.000
REMARK  6 active torsions:
REMARK  status: ('A' for Active; 'I' for Inactive)
REMARK    1  A    between atoms: C_4  and  C_5 
REMARK    2  A    between atoms: C_9  and  C_10 
REMARK       I    between atoms: C_10  and  N_11 
REMARK    3  A    between atoms: N_11  and  N_12 
REMARK       I    between atoms: N_12  and  C_13 
REMARK    4  A    between atoms: C_13  and  C_14 
REMARK    5  A    between atoms: C_14  and  O_15 
REMARK    6  A    between atoms: O_15  and  C_16 
ROOT
HETATM    1  C   UNL     1      44.469 -11.649   7.466  1.00  0.00     0.288 C 
HETATM    2  N   UNL     1      43.421 -12.539   7.639  1.00  0.00    -0.262 N 
HETATM    3  O   UNL     1      45.409 -11.902   6.713  1.00  0.00    -0.264 OA
HETATM    4  H   UNL     1      42.497 -12.171   7.867  1.00  0.00     0.190 HD
ENDROOT
BRANCH   2   5
HETATM    5  N   UNL     1      43.381 -13.657   6.776  1.00  0.00    -0.265 N 
HETATM    6  C   UNL     1      43.164 -14.889   7.362  1.00  0.00     0.260 C 
HETATM    7  O   UNL     1      43.226 -15.054   8.581  1.00  0.00    -0.269 OA
HETATM    8  H   UNL     1      43.035 -13.487   5.830  1.00  0.00     0.190 HD
BRANCH   6   9
HETATM    9  C   UNL     1      42.797 -16.006   6.391  1.00  0.00     0.280 C 
BRANCH   9  10
HETATM   10  O   UNL     1      43.969 -16.571   5.798  1.00  0.00    -0.341 OA
BRANCH  10  11
HETATM   11  C   UNL     1      43.697 -16.983   4.515  1.00  0.00     0.080 A 
HETATM   12  C   UNL     1      43.760 -18.348   4.164  1.00  0.00     0.007 A 
HETATM   13  C   UNL     1      43.492 -18.705   2.822  1.00  0.00    -0.023 A 
HETATM   14  C   UNL     1      44.077 -19.370   5.085  1.00  0.00     0.015 A 
HETATM   15  C   UNL     1      43.567 -20.054   2.436  1.00  0.00     0.012 A 
HETATM   16  C   UNL     1      43.148 -17.709   1.892  1.00  0.00     0.012 A 
HETATM   17  C   UNL     1      43.893 -21.047   3.361  1.00  0.00     0.001 A 
HETATM   18  C   UNL     1      44.143 -20.706   4.685  1.00  0.00     0.001 A 
HETATM   19  C   UNL     1      43.055 -16.370   2.275  1.00  0.00     0.004 A 
HETATM   20  C   UNL     1      43.323 -16.006   3.589  1.00  0.00     0.037 A 
ENDBRANCH  10  11
ENDBRANCH   9  10
ENDBRANCH   6   9
ENDBRANCH   2   5
BRANCH   1  21
HETATM   21  C   UNL     1      44.357 -10.422   8.210  1.00  0.00     0.121 A 
HETATM   22  N   UNL     1      44.821  -9.197   7.824  1.00  0.00    -0.272 N 
HETATM   23  N   UNL     1      44.555  -8.209   8.687  1.00  0.00    -0.174 NA
HETATM   24  H   UNL     1      45.306  -8.955   6.967  1.00  0.00     0.189 HD
HETATM   25  C   UNL     1      43.875  -8.800   9.683  1.00  0.00     0.089 A 
HETATM   26  C   UNL     1      43.721 -10.186   9.413  1.00  0.00     0.071 A 
BRANCH  25  27
HETATM   27  C   UNL     1      43.381  -8.045  10.836  1.00  0.00    -0.006 A 
HETATM   28  C   UNL     1      42.698  -6.834  10.650  1.00  0.00     0.014 A 
HETATM   29  C   UNL     1      42.209  -6.115  11.744  1.00  0.00     0.001 A 
HETATM   30  C   UNL     1      42.406  -6.595  13.037  1.00  0.00     0.000 A 
HETATM   31  C   UNL     1      43.091  -7.792  13.237  1.00  0.00     0.001 A 
HETATM   32  C   UNL     1      43.576  -8.515  12.142  1.00  0.00     0.014 A 
ENDBRANCH  25  27
ENDBRANCH   1  21
TORSDOF 6
ENDMDL
MODEL 2
REMARK VINA RESULT:      -9.5      1.750     11.138
REMARK  6 active torsions:
REMARK  status: ('A' for Active; 'I' for Inactive)
REMARK    1  A    between atoms: C_4  and  C_5 
REMARK    2  A    between atoms: C_9  and  C_10 
REMARK       I    between atoms: C_10  and  N_11 
REMARK    3  A    between atoms: N_11  and  N_12 
REMARK       I    between atoms: N_12  and  C_13 
REMARK    4  A    between atoms: C_13  and  C_14 
REMARK    5  A    between atoms: C_14  and  O_15 
REMARK    6  A    between atoms: O_15  and  C_16 
ROOT
HETATM    1  C   UNL     1      42.787 -13.515   5.682  1.00  0.00     0.288 C 
HETATM    2  N   UNL     1      43.625 -13.512   6.786  1.00  0.00    -0.262 N 
HETATM    3  O   UNL     1      41.972 -12.614   5.491  1.00  0.00    -0.264 OA
HETATM    4  H   UNL     1      44.540 -13.957   6.709  1.00  0.00     0.190 HD
ENDROOT
BRANCH   2   5
HETATM    5  N   UNL     1      43.638 -12.341   7.575  1.00  0.00    -0.265 N 
HETATM    6  C   UNL     1      44.657 -11.439   7.336  1.00  0.00     0.260 C 
HETATM    7  O   UNL     1      45.634 -11.725   6.642  1.00  0.00    -0.269 OA
HETATM    8  H   UNL     1      42.728 -11.993   7.885  1.00  0.00     0.190 HD
BRANCH   6   9
HETATM    9  C   UNL     1      44.454 -10.060   7.954  1.00  0.00     0.280 C 
BRANCH   9  10
HETATM   10  O   UNL     1      43.838 -10.165   9.241  1.00  0.00    -0.341 OA
BRANCH  10  11
HETATM   11  C   UNL     1      43.508  -8.915   9.710  1.00  0.00     0.080 A 
HETATM   12  C   UNL     1      43.122  -8.725  11.053  1.00  0.00     0.007 A 
HETATM   13  C   UNL     1      42.772  -7.419  11.469  1.00  0.00    -0.023 A 
HETATM   14  C   UNL     1      43.066  -9.772  11.998  1.00  0.00     0.015 A 
HETATM   15  C   UNL     1      42.361  -7.200  12.794  1.00  0.00     0.012 A 
HETATM   16  C   UNL     1      42.844  -6.355  10.553  1.00  0.00     0.012 A 
HETATM   17  C   UNL     1      42.303  -8.252  13.709  1.00  0.00     0.001 A 
HETATM   18  C   UNL     1      42.660  -9.536  13.313  1.00  0.00     0.001 A 
HETATM   19  C   UNL     1      43.267  -6.565   9.240  1.00  0.00     0.004 A 
HETATM   20  C   UNL     1      43.607  -7.844   8.818  1.00  0.00     0.037 A 
ENDBRANCH  10  11
ENDBRANCH   9  10
ENDBRANCH   6   9
ENDBRANCH   2   5
BRANCH   1  21
HETATM   21  C   UNL     1      42.961 -14.629   4.786  1.00  0.00     0.121 A 
HETATM   22  N   UNL     1      43.106 -14.562   3.430  1.00  0.00    -0.272 N 
HETATM   23  N   UNL     1      43.288 -15.748   2.835  1.00  0.00    -0.174 NA
HETATM   24  H   UNL     1      43.120 -13.735   2.845  1.00  0.00     0.189 HD
HETATM   25  C   UNL     1      43.276 -16.639   3.840  1.00  0.00     0.089 A 
HETATM   26  C   UNL     1      43.084 -15.973   5.080  1.00  0.00     0.071 A 
BRANCH  25  27
HETATM   27  C   UNL     1      43.460 -18.072   3.603  1.00  0.00    -0.006 A 
HETATM   28  C   UNL     1      43.138 -18.632   2.358  1.00  0.00     0.014 A 
HETATM   29  C   UNL     1      43.327 -19.995   2.119  1.00  0.00     0.001 A 
HETATM   30  C   UNL     1      43.832 -20.815   3.124  1.00  0.00     0.000 A 
HETATM   31  C   UNL     1      44.148 -20.275   4.369  1.00  0.00     0.001 A 
HETATM   32  C   UNL     1      43.965 -18.909   4.608  1.00  0.00     0.014 A 
ENDBRANCH  25  27
ENDBRANCH   1  21
TORSDOF 6
ENDMDL
MODEL 3
REMARK VINA RESULT:      -9.4      2.060      2.722
REMARK  6 active torsions:
REMARK  status: ('A' for Active; 'I' for Inactive)
REMARK    1  A    between atoms: C_4  and  C_5 
REMARK    2  A    between atoms: C_9  and  C_10 
REMARK       I    between atoms: C_10  and  N_11 
REMARK    3  A    between atoms: N_11  and  N_12 
REMARK       I    between atoms: N_12  and  C_13 
REMARK    4  A    between atoms: C_13  and  C_14 
REMARK    5  A    between atoms: C_14  and  O_15 
REMARK    6  A    between atoms: O_15  and  C_16 
ROOT
HETATM    1  C   UNL     1      42.995 -10.167   8.548  1.00  0.00     0.288 C 
HETATM    2  N   UNL     1      43.763 -11.212   8.056  1.00  0.00    -0.262 N 
HETATM    3  O   UNL     1      42.372  -9.418   7.796  1.00  0.00    -0.264 OA
HETATM    4  H   UNL     1      43.884 -12.045   8.632  1.00  0.00     0.190 HD
ENDROOT
BRANCH   2   5
HETATM    5  N   UNL     1      43.647 -11.496   6.677  1.00  0.00    -0.265 N 
HETATM    6  C   UNL     1      43.518 -12.826   6.324  1.00  0.00     0.260 C 
HETATM    7  O   UNL     1      43.718 -13.738   7.127  1.00  0.00    -0.269 OA
HETATM    8  H   UNL     1      43.194 -10.782   6.103  1.00  0.00     0.190 HD
BRANCH   6   9
HETATM    9  C   UNL     1      43.064 -13.068   4.889  1.00  0.00     0.280 C 
BRANCH   9  10
HETATM   10  O   UNL     1      42.146 -14.164   4.824  1.00  0.00    -0.341 OA
BRANCH  10  11
HETATM   11  C   UNL     1      42.550 -15.061   3.863  1.00  0.00     0.080 A 
HETATM   12  C   UNL     1      43.022 -16.341   4.222  1.00  0.00     0.007 A 
HETATM   13  C   UNL     1      43.445 -17.211   3.189  1.00  0.00    -0.023 A 
HETATM   14  C   UNL     1      43.095 -16.793   5.558  1.00  0.00     0.015 A 
HETATM   15  C   UNL     1      43.942 -18.484   3.516  1.00  0.00     0.012 A 
HETATM   16  C   UNL     1      43.358 -16.793   1.850  1.00  0.00     0.012 A 
HETATM   17  C   UNL     1      44.014 -18.906   4.844  1.00  0.00     0.001 A 
HETATM   18  C   UNL     1      43.587 -18.064   5.863  1.00  0.00     0.001 A 
HETATM   19  C   UNL     1      42.850 -15.536   1.521  1.00  0.00     0.004 A 
HETATM   20  C   UNL     1      42.439 -14.670   2.527  1.00  0.00     0.037 A 
ENDBRANCH  10  11
ENDBRANCH   9  10
ENDBRANCH   6   9
ENDBRANCH   2   5
BRANCH   1  21
HETATM   21  C   UNL     1      42.974 -10.048   9.982  1.00  0.00     0.121 A 
HETATM   22  N   UNL     1      43.371 -10.998  10.879  1.00  0.00    -0.272 N 
HETATM   23  N   UNL     1      43.281 -10.621  12.160  1.00  0.00    -0.174 NA
HETATM   24  H   UNL     1      43.744 -11.921  10.685  1.00  0.00     0.189 HD
HETATM   25  C   UNL     1      42.815  -9.362  12.112  1.00  0.00     0.089 A 
HETATM   26  C   UNL     1      42.621  -8.964  10.762  1.00  0.00     0.071 A 
BRANCH  25  27
HETATM   27  C   UNL     1      42.587  -8.576  13.326  1.00  0.00    -0.006 A 
HETATM   28  C   UNL     1      41.618  -8.977  14.258  1.00  0.00     0.014 A 
HETATM   29  C   UNL     1      41.405  -8.243  15.427  1.00  0.00     0.001 A 
HETATM   30  C   UNL     1      42.154  -7.094  15.674  1.00  0.00     0.000 A 
HETATM   31  C   UNL     1      43.113  -6.679  14.753  1.00  0.00     0.001 A 
HETATM   32  C   UNL     1      43.331  -7.416  13.585  1.00  0.00     0.014 A 
ENDBRANCH  25  27
ENDBRANCH   1  21
TORSDOF 6
ENDMDL
MODEL 4
REMARK VINA RESULT:      -9.4      1.834     11.248
REMARK  6 active torsions:
REMARK  status: ('A' for Active; 'I' for Inactive)
REMARK    1  A    between atoms: C_4  and  C_5 
REMARK    2  A    between atoms: C_9  and  C_10 
REMARK       I    between atoms: C_10  and  N_11 
REMARK    3  A    between atoms: N_11  and  N_12 
REMARK       I    between atoms: N_12  and  C_13 
REMARK    4  A    between atoms: C_13  and  C_14 
REMARK    5  A    between atoms: C_14  and  O_15 
REMARK    6  A    between atoms: O_15  and  C_16 
ROOT
HETATM    1  C   UNL     1      42.447 -13.616   5.392  1.00  0.00     0.288 C 
HETATM    2  N   UNL     1      43.198 -13.509   6.552  1.00  0.00    -0.262 N 
HETATM    3  O   UNL     1      41.591 -12.782   5.101  1.00  0.00    -0.264 OA
HETATM    4  H   UNL     1      44.143 -13.892   6.562  1.00  0.00     0.190 HD
ENDROOT
BRANCH   2   5
HETATM    5  N   UNL     1      43.072 -12.308   7.286  1.00  0.00    -0.265 N 
HETATM    6  C   UNL     1      44.158 -11.454   7.273  1.00  0.00     0.260 C 
HETATM    7  O   UNL     1      45.259 -11.802   6.844  1.00  0.00    -0.269 OA
HETATM    8  H   UNL     1      42.131 -11.917   7.357  1.00  0.00     0.190 HD
BRANCH   6   9
HETATM    9  C   UNL     1      43.874 -10.045   7.782  1.00  0.00     0.280 C 
BRANCH   9  10
HETATM   10  O   UNL     1      44.783  -9.689   8.828  1.00  0.00    -0.341 OA
BRANCH  10  11
HETATM   11  C   UNL     1      44.098  -9.508  10.007  1.00  0.00     0.080 A 
HETATM   12  C   UNL     1      43.512  -8.263  10.319  1.00  0.00     0.007 A 
HETATM   13  C   UNL     1      42.841  -8.134  11.558  1.00  0.00    -0.023 A 
HETATM   14  C   UNL     1      43.564  -7.145   9.460  1.00  0.00     0.015 A 
HETATM   15  C   UNL     1      42.266  -6.901  11.909  1.00  0.00     0.012 A 
HETATM   16  C   UNL     1      42.752  -9.241  12.420  1.00  0.00     0.012 A 
HETATM   17  C   UNL     1      42.339  -5.806  11.048  1.00  0.00     0.001 A 
HETATM   18  C   UNL     1      42.983  -5.929   9.822  1.00  0.00     0.001 A 
HETATM   19  C   UNL     1      43.308 -10.472  12.068  1.00  0.00     0.004 A 
HETATM   20  C   UNL     1      43.975 -10.609  10.858  1.00  0.00     0.037 A 
ENDBRANCH  10  11
ENDBRANCH   9  10
ENDBRANCH   6   9
ENDBRANCH   2   5
BRANCH   1  21
HETATM   21  C   UNL     1      42.762 -14.751   4.564  1.00  0.00     0.121 A 
HETATM   22  N   UNL     1      43.084 -14.719   3.237  1.00  0.00    -0.272 N 
HETATM   23  N   UNL     1      43.369 -15.916   2.709  1.00  0.00    -0.174 NA
HETATM   24  H   UNL     1      43.158 -13.909   2.632  1.00  0.00     0.189 HD
HETATM   25  C   UNL     1      43.243 -16.778   3.732  1.00  0.00     0.089 A 
HETATM   26  C   UNL     1      42.874 -16.082   4.914  1.00  0.00     0.071 A 
BRANCH  25  27
HETATM   27  C   UNL     1      43.487 -18.212   3.568  1.00  0.00    -0.006 A 
HETATM   28  C   UNL     1      43.948 -18.981   4.647  1.00  0.00     0.014 A 
HETATM   29  C   UNL     1      44.168 -20.353   4.503  1.00  0.00     0.001 A 
HETATM   30  C   UNL     1      43.938 -20.970   3.276  1.00  0.00     0.000 A 
HETATM   31  C   UNL     1      43.489 -20.218   2.193  1.00  0.00     0.001 A 
HETATM   32  C   UNL     1      43.263 -18.845   2.337  1.00  0.00     0.014 A 
ENDBRANCH  25  27
ENDBRANCH   1  21
TORSDOF 6
ENDMDL
MODEL 5
REMARK VINA RESULT:      -8.9      2.647     10.583
REMARK  6 active torsions:
REMARK  status: ('A' for Active; 'I' for Inactive)
REMARK    1  A    between atoms: C_4  and  C_5 
REMARK    2  A    between atoms: C_9  and  C_10 
REMARK       I    between atoms: C_10  and  N_11 
REMARK    3  A    between atoms: N_11  and  N_12 
REMARK       I    between atoms: N_12  and  C_13 
REMARK    4  A    between atoms: C_13  and  C_14 
REMARK    5  A    between atoms: C_14  and  O_15 
REMARK    6  A    between atoms: O_15  and  C_16 
ROOT
HETATM    1  C   UNL     1      42.741 -13.473   5.312  1.00  0.00     0.288 C 
HETATM    2  N   UNL     1      41.428 -13.043   5.433  1.00  0.00    -0.262 N 
HETATM    3  O   UNL     1      43.662 -12.894   5.886  1.00  0.00    -0.264 OA
HETATM    4  H   UNL     1      40.678 -13.729   5.358  1.00  0.00     0.190 HD
ENDROOT
BRANCH   2   5
HETATM    5  N   UNL     1      41.172 -12.035   6.388  1.00  0.00    -0.265 N 
HETATM    6  C   UNL     1      40.756 -10.809   5.904  1.00  0.00     0.260 C 
HETATM    7  O   UNL     1      40.819 -10.523   4.707  1.00  0.00    -0.269 OA
HETATM    8  H   UNL     1      40.837 -12.349   7.301  1.00  0.00     0.190 HD
BRANCH   6   9
HETATM    9  C   UNL     1      40.174  -9.868   6.953  1.00  0.00     0.280 C 
BRANCH   9  10
HETATM   10  O   UNL     1      41.160  -8.934   7.402  1.00  0.00    -0.341 OA
BRANCH  10  11
HETATM   11  C   UNL     1      41.465  -9.168   8.722  1.00  0.00     0.080 A 
HETATM   12  C   UNL     1      42.807  -9.271   9.147  1.00  0.00     0.007 A 
HETATM   13  C   UNL     1      43.055  -9.537  10.514  1.00  0.00    -0.023 A 
HETATM   14  C   UNL     1      43.908  -9.123   8.277  1.00  0.00     0.015 A 
HETATM   15  C   UNL     1      44.380  -9.666  10.965  1.00  0.00     0.012 A 
HETATM   16  C   UNL     1      41.976  -9.662  11.406  1.00  0.00     0.012 A 
HETATM   17  C   UNL     1      45.453  -9.526  10.085  1.00  0.00     0.001 A 
HETATM   18  C   UNL     1      45.218  -9.250   8.743  1.00  0.00     0.001 A 
HETATM   19  C   UNL     1      40.660  -9.518  10.965  1.00  0.00     0.004 A 
HETATM   20  C   UNL     1      40.403  -9.264   9.624  1.00  0.00     0.037 A 
ENDBRANCH  10  11
ENDBRANCH   9  10
ENDBRANCH   6   9
ENDBRANCH   2   5
BRANCH   1  21
HETATM   21  C   UNL     1      42.926 -14.642   4.493  1.00  0.00     0.121 A 
HETATM   22  N   UNL     1      43.058 -14.665   3.134  1.00  0.00    -0.272 N 
HETATM   23  N   UNL     1      43.255 -15.885   2.619  1.00  0.00    -0.174 NA
HETATM   24  H   UNL     1      43.052 -13.879   2.493  1.00  0.00     0.189 HD
HETATM   25  C   UNL     1      43.268 -16.706   3.682  1.00  0.00     0.089 A 
HETATM   26  C   UNL     1      43.076 -15.961   4.876  1.00  0.00     0.071 A 
BRANCH  25  27
HETATM   27  C   UNL     1      43.475 -18.148   3.541  1.00  0.00    -0.006 A 
HETATM   28  C   UNL     1      43.244 -18.781   2.310  1.00  0.00     0.014 A 
HETATM   29  C   UNL     1      43.456 -20.154   2.163  1.00  0.00     0.001 A 
HETATM   30  C   UNL     1      43.893 -20.911   3.247  1.00  0.00     0.000 A 
HETATM   31  C   UNL     1      44.117 -20.299   4.478  1.00  0.00     0.001 A 
HETATM   32  C   UNL     1      43.911 -18.923   4.625  1.00  0.00     0.014 A 
ENDBRANCH  25  27
ENDBRANCH   1  21
TORSDOF 6
ENDMDL
MODEL 6
REMARK VINA RESULT:      -8.9      1.678      2.154
REMARK  6 active torsions:
REMARK  status: ('A' for Active; 'I' for Inactive)
REMARK    1  A    between atoms: C_4  and  C_5 
REMARK    2  A    between atoms: C_9  and  C_10 
REMARK       I    between atoms: C_10  and  N_11 
REMARK    3  A    between atoms: N_11  and  N_12 
REMARK       I    between atoms: N_12  and  C_13 
REMARK    4  A    between atoms: C_13  and  C_14 
REMARK    5  A    between atoms: C_14  and  O_15 
REMARK    6  A    between atoms: O_15  and  C_16 
ROOT
HETATM    1  C   UNL     1      43.833 -11.065   7.778  1.00  0.00     0.288 C 
HETATM    2  N   UNL     1      42.624 -11.398   7.187  1.00  0.00    -0.262 N 
HETATM    3  O   UNL     1      44.850 -11.729   7.580  1.00  0.00    -0.264 OA
HETATM    4  H   UNL     1      41.957 -10.654   6.983  1.00  0.00     0.190 HD
ENDROOT
BRANCH   2   5
HETATM    5  N   UNL     1      42.651 -12.411   6.204  1.00  0.00    -0.265 N 
HETATM    6  C   UNL     1      41.524 -12.545   5.416  1.00  0.00     0.260 C 
HETATM    7  O   UNL     1      40.465 -11.978   5.688  1.00  0.00    -0.269 OA
HETATM    8  H   UNL     1      43.566 -12.633   5.806  1.00  0.00     0.190 HD
BRANCH   6   9
HETATM    9  C   UNL     1      41.709 -13.402   4.168  1.00  0.00     0.280 C 
BRANCH   9  10
HETATM   10  O   UNL     1      43.077 -13.797   4.021  1.00  0.00    -0.341 OA
BRANCH  10  11
HETATM   11  C   UNL     1      43.148 -15.040   3.437  1.00  0.00     0.080 A 
HETATM   12  C   UNL     1      43.362 -16.195   4.218  1.00  0.00     0.007 A 
HETATM   13  C   UNL     1      43.450 -17.442   3.555  1.00  0.00    -0.023 A 
HETATM   14  C   UNL     1      43.494 -16.166   5.623  1.00  0.00     0.015 A 
HETATM   15  C   UNL     1      43.685 -18.608   4.302  1.00  0.00     0.012 A 
HETATM   16  C   UNL     1      43.296 -17.500   2.159  1.00  0.00     0.012 A 
HETATM   17  C   UNL     1      43.822 -18.555   5.690  1.00  0.00     0.001 A 
HETATM   18  C   UNL     1      43.723 -17.336   6.350  1.00  0.00     0.001 A 
HETATM   19  C   UNL     1      43.046 -16.346   1.415  1.00  0.00     0.004 A 
HETATM   20  C   UNL     1      42.965 -15.115   2.054  1.00  0.00     0.037 A 
ENDBRANCH  10  11
ENDBRANCH   9  10
ENDBRANCH   6   9
ENDBRANCH   2   5
BRANCH   1  21
HETATM   21  C   UNL     1      43.803  -9.890   8.609  1.00  0.00     0.121 A 
HETATM   22  N   UNL     1      44.301  -8.659   8.289  1.00  0.00    -0.272 N 
HETATM   23  N   UNL     1      44.113  -7.726   9.229  1.00  0.00    -0.174 NA
HETATM   24  H   UNL     1      44.758  -8.376   7.429  1.00  0.00     0.189 HD
HETATM   25  C   UNL     1      43.451  -8.360  10.211  1.00  0.00     0.089 A 
HETATM   26  C   UNL     1      43.229  -9.716   9.854  1.00  0.00     0.071 A 
BRANCH  25  27
HETATM   27  C   UNL     1      43.038  -7.670  11.435  1.00  0.00    -0.006 A 
HETATM   28  C   UNL     1      42.299  -6.480  11.363  1.00  0.00     0.014 A 
HETATM   29  C   UNL     1      41.887  -5.824  12.525  1.00  0.00     0.001 A 
HETATM   30  C   UNL     1      42.217  -6.346  13.774  1.00  0.00     0.000 A 
HETATM   31  C   UNL     1      42.959  -7.522  13.861  1.00  0.00     0.001 A 
HETATM   32  C   UNL     1      43.367  -8.183  12.698  1.00  0.00     0.014 A 
ENDBRANCH  25  27
ENDBRANCH   1  21
TORSDOF 6
ENDMDL
MODEL 7
REMARK VINA RESULT:      -8.7      2.766     11.169
REMARK  6 active torsions:
REMARK  status: ('A' for Active; 'I' for Inactive)
REMARK    1  A    between atoms: C_4  and  C_5 
REMARK    2  A    between atoms: C_9  and  C_10 
REMARK       I    between atoms: C_10  and  N_11 
REMARK    3  A    between atoms: N_11  and  N_12 
REMARK       I    between atoms: N_12  and  C_13 
REMARK    4  A    between atoms: C_13  and  C_14 
REMARK    5  A    between atoms: C_14  and  O_15 
REMARK    6  A    between atoms: O_15  and  C_16 
ROOT
HETATM    1  C   UNL     1      42.107 -11.986   6.042  1.00  0.00     0.288 C 
HETATM    2  N   UNL     1      40.928 -11.465   6.553  1.00  0.00    -0.262 N 
HETATM    3  O   UNL     1      43.180 -11.398   6.176  1.00  0.00    -0.264 OA
HETATM    4  H   UNL     1      40.190 -12.109   6.837  1.00  0.00     0.190 HD
ENDROOT
BRANCH   2   5
HETATM    5  N   UNL     1      41.039 -10.335   7.393  1.00  0.00    -0.265 N 
HETATM    6  C   UNL     1      39.884  -9.910   8.022  1.00  0.00     0.260 C 
HETATM    7  O   UNL     1      38.773 -10.337   7.705  1.00  0.00    -0.269 OA
HETATM    8  H   UNL     1      41.938 -10.204   7.861  1.00  0.00     0.190 HD
BRANCH   6   9
HETATM    9  C   UNL     1      40.100  -8.919   9.160  1.00  0.00     0.280 C 
BRANCH   9  10
HETATM   10  O   UNL     1      40.256  -9.602  10.407  1.00  0.00    -0.341 OA
BRANCH  10  11
HETATM   11  C   UNL     1      41.446  -9.245  10.995  1.00  0.00     0.080 A 
HETATM   12  C   UNL     1      41.467  -8.581  12.240  1.00  0.00     0.007 A 
HETATM   13  C   UNL     1      42.722  -8.218  12.782  1.00  0.00    -0.023 A 
HETATM   14  C   UNL     1      40.300  -8.260  12.966  1.00  0.00     0.015 A 
HETATM   15  C   UNL     1      42.776  -7.536  14.009  1.00  0.00     0.012 A 
HETATM   16  C   UNL     1      43.900  -8.549  12.090  1.00  0.00     0.012 A 
HETATM   17  C   UNL     1      41.608  -7.221  14.705  1.00  0.00     0.001 A 
HETATM   18  C   UNL     1      40.372  -7.587  14.187  1.00  0.00     0.001 A 
HETATM   19  C   UNL     1      43.852  -9.241  10.879  1.00  0.00     0.004 A 
HETATM   20  C   UNL     1      42.625  -9.596  10.333  1.00  0.00     0.037 A 
ENDBRANCH  10  11
ENDBRANCH   9  10
ENDBRANCH   6   9
ENDBRANCH   2   5
BRANCH   1  21
HETATM   21  C   UNL     1      41.976 -13.255   5.375  1.00  0.00     0.121 A 
HETATM   22  N   UNL     1      40.864 -13.720   4.733  1.00  0.00    -0.272 N 
HETATM   23  N   UNL     1      41.017 -14.922   4.164  1.00  0.00    -0.174 NA
HETATM   24  H   UNL     1      39.970 -13.256   4.619  1.00  0.00     0.189 HD
HETATM   25  C   UNL     1      42.289 -15.264   4.427  1.00  0.00     0.089 A 
HETATM   26  C   UNL     1      42.926 -14.238   5.176  1.00  0.00     0.071 A 
BRANCH  25  27
HETATM   27  C   UNL     1      42.863 -16.525   3.956  1.00  0.00    -0.006 A 
HETATM   28  C   UNL     1      43.800 -17.215   4.740  1.00  0.00     0.014 A 
HETATM   29  C   UNL     1      44.339 -18.428   4.305  1.00  0.00     0.001 A 
HETATM   30  C   UNL     1      43.954 -18.961   3.077  1.00  0.00     0.000 A 
HETATM   31  C   UNL     1      43.032 -18.282   2.283  1.00  0.00     0.001 A 
HETATM   32  C   UNL     1      42.487 -17.071   2.720  1.00  0.00     0.014 A 
ENDBRANCH  25  27
ENDBRANCH   1  21
TORSDOF 6
ENDMDL
MODEL 8
REMARK VINA RESULT:      -8.4      2.911     10.078
REMARK  6 active torsions:
REMARK  status: ('A' for Active; 'I' for Inactive)
REMARK    1  A    between atoms: C_4  and  C_5 
REMARK    2  A    between atoms: C_9  and  C_10 
REMARK       I    between atoms: C_10  and  N_11 
REMARK    3  A    between atoms: N_11  and  N_12 
REMARK       I    between atoms: N_12  and  C_13 
REMARK    4  A    between atoms: C_13  and  C_14 
REMARK    5  A    between atoms: C_14  and  O_15 
REMARK    6  A    between atoms: O_15  and  C_16 
ROOT
HETATM    1  C   UNL     1      42.374 -11.932   4.164  1.00  0.00     0.288 C 
HETATM    2  N   UNL     1      41.064 -11.621   4.495  1.00  0.00    -0.262 N 
HETATM    3  O   UNL     1      43.295 -11.146   4.382  1.00  0.00    -0.264 OA
HETATM    4  H   UNL     1      40.425 -12.379   4.734  1.00  0.00     0.190 HD
ENDROOT
BRANCH   2   5
HETATM    5  N   UNL     1      40.859 -10.453   5.262  1.00  0.00    -0.265 N 
HETATM    6  C   UNL     1      40.147 -10.597   6.438  1.00  0.00     0.260 C 
HETATM    7  O   UNL     1      39.526 -11.627   6.704  1.00  0.00    -0.269 OA
HETATM    8  H   UNL     1      41.588  -9.739   5.206  1.00  0.00     0.190 HD
BRANCH   6   9
HETATM    9  C   UNL     1      40.233  -9.410   7.391  1.00  0.00     0.280 C 
BRANCH   9  10
HETATM   10  O   UNL     1      40.971  -9.753   8.567  1.00  0.00    -0.341 OA
BRANCH  10  11
HETATM   11  C   UNL     1      42.069  -8.934   8.691  1.00  0.00     0.080 A 
HETATM   12  C   UNL     1      43.364  -9.410   8.396  1.00  0.00     0.007 A 
HETATM   13  C   UNL     1      44.455  -8.525   8.566  1.00  0.00    -0.023 A 
HETATM   14  C   UNL     1      43.622 -10.722   7.944  1.00  0.00     0.015 A 
HETATM   15  C   UNL     1      45.759  -8.975   8.303  1.00  0.00     0.012 A 
HETATM   16  C   UNL     1      44.220  -7.205   8.991  1.00  0.00     0.012 A 
HETATM   17  C   UNL     1      45.992 -10.280   7.866  1.00  0.00     0.001 A 
HETATM   18  C   UNL     1      44.925 -11.151   7.683  1.00  0.00     0.001 A 
HETATM   19  C   UNL     1      42.925  -6.749   9.237  1.00  0.00     0.004 A 
HETATM   20  C   UNL     1      41.846  -7.611   9.081  1.00  0.00     0.037 A 
ENDBRANCH  10  11
ENDBRANCH   9  10
ENDBRANCH   6   9
ENDBRANCH   2   5
BRANCH   1  21
HETATM   21  C   UNL     1      42.562 -13.232   3.574  1.00  0.00     0.121 A 
HETATM   22  N   UNL     1      42.520 -13.530   2.242  1.00  0.00    -0.272 N 
HETATM   23  N   UNL     1      42.763 -14.815   1.956  1.00  0.00    -0.174 NA
HETATM   24  H   UNL     1      42.358 -12.897   1.466  1.00  0.00     0.189 HD
HETATM   25  C   UNL     1      42.989 -15.392   3.148  1.00  0.00     0.089 A 
HETATM   26  C   UNL     1      42.882 -14.429   4.185  1.00  0.00     0.071 A 
BRANCH  25  27
HETATM   27  C   UNL     1      43.311 -16.815   3.267  1.00  0.00    -0.006 A 
HETATM   28  C   UNL     1      43.897 -17.314   4.440  1.00  0.00     0.014 A 
HETATM   29  C   UNL     1      44.192 -18.673   4.568  1.00  0.00     0.001 A 
HETATM   30  C   UNL     1      43.912 -19.549   3.522  1.00  0.00     0.000 A 
HETATM   31  C   UNL     1      43.338 -19.067   2.347  1.00  0.00     0.001 A 
HETATM   32  C   UNL     1      43.037 -17.707   2.220  1.00  0.00     0.014 A 
ENDBRANCH  25  27
ENDBRANCH   1  21
TORSDOF 6
ENDMDL
MODEL 9
REMARK VINA RESULT:      -8.4      2.078      2.323
REMARK  6 active torsions:
REMARK  status: ('A' for Active; 'I' for Inactive)
REMARK    1  A    between atoms: C_4  and  C_5 
REMARK    2  A    between atoms: C_9  and  C_10 
REMARK       I    between atoms: C_10  and  N_11 
REMARK    3  A    between atoms: N_11  and  N_12 
REMARK       I    between atoms: N_12  and  C_13 
REMARK    4  A    between atoms: C_13  and  C_14 
REMARK    5  A    between atoms: C_14  and  O_15 
REMARK    6  A    between atoms: O_15  and  C_16 
ROOT
HETATM    1  C   UNL     1      41.849  -9.927   7.198  1.00  0.00     0.288 C 
HETATM    2  N   UNL     1      43.057 -10.603   7.133  1.00  0.00    -0.262 N 
HETATM    3  O   UNL     1      41.070  -9.911   6.246  1.00  0.00    -0.264 OA
HETATM    4  H   UNL     1      43.453 -10.985   7.992  1.00  0.00     0.190 HD
ENDROOT
BRANCH   2   5
HETATM    5  N   UNL     1      43.269 -11.427   6.005  1.00  0.00    -0.265 N 
HETATM    6  C   UNL     1      43.321 -12.790   6.229  1.00  0.00     0.260 C 
HETATM    7  O   UNL     1      43.407 -13.263   7.363  1.00  0.00    -0.269 OA
HETATM    8  H   UNL     1      42.901 -11.082   5.116  1.00  0.00     0.190 HD
BRANCH   6   9
HETATM    9  C   UNL     1      43.212 -13.651   4.976  1.00  0.00     0.280 C 
BRANCH   9  10
HETATM   10  O   UNL     1      43.202 -15.042   5.314  1.00  0.00    -0.341 OA
BRANCH  10  11
HETATM   11  C   UNL     1      43.245 -15.805   4.172  1.00  0.00     0.080 A 
HETATM   12  C   UNL     1      43.487 -17.194   4.238  1.00  0.00     0.007 A 
HETATM   13  C   UNL     1      43.543 -17.920   3.026  1.00  0.00    -0.023 A 
HETATM   14  C   UNL     1      43.678 -17.889   5.452  1.00  0.00     0.015 A 
HETATM   15  C   UNL     1      43.805 -19.300   3.057  1.00  0.00     0.012 A 
HETATM   16  C   UNL     1      43.331 -17.255   1.806  1.00  0.00     0.012 A 
HETATM   17  C   UNL     1      44.000 -19.966   4.268  1.00  0.00     0.001 A 
HETATM   18  C   UNL     1      43.932 -19.262   5.464  1.00  0.00     0.001 A 
HETATM   19  C   UNL     1      43.054 -15.888   1.772  1.00  0.00     0.004 A 
HETATM   20  C   UNL     1      43.004 -15.162   2.955  1.00  0.00     0.037 A 
ENDBRANCH  10  11
ENDBRANCH   9  10
ENDBRANCH   6   9
ENDBRANCH   2   5
BRANCH   1  21
HETATM   21  C   UNL     1      41.581  -9.276   8.454  1.00  0.00     0.121 A 
HETATM   22  N   UNL     1      40.471  -8.544   8.765  1.00  0.00    -0.272 N 
HETATM   23  N   UNL     1      40.453  -8.074  10.018  1.00  0.00    -0.174 NA
HETATM   24  H   UNL     1      39.668  -8.348   8.177  1.00  0.00     0.189 HD
HETATM   25  C   UNL     1      41.594  -8.523  10.567  1.00  0.00     0.089 A 
HETATM   26  C   UNL     1      42.323  -9.290   9.619  1.00  0.00     0.071 A 
BRANCH  25  27
HETATM   27  C   UNL     1      41.949  -8.231  11.957  1.00  0.00    -0.006 A 
HETATM   28  C   UNL     1      42.468  -6.976  12.308  1.00  0.00     0.014 A 
HETATM   29  C   UNL     1      42.793  -6.684  13.635  1.00  0.00     0.001 A 
HETATM   30  C   UNL     1      42.612  -7.647  14.625  1.00  0.00     0.000 A 
HETATM   31  C   UNL     1      42.106  -8.902  14.289  1.00  0.00     0.001 A 
HETATM   32  C   UNL     1      41.775  -9.193  12.962  1.00  0.00     0.014 A 
ENDBRANCH  25  27
ENDBRANCH   1  21
TORSDOF 6
ENDMDL
MODEL 10
REMARK VINA RESULT:      -8.2      7.593     11.908
REMARK  6 active torsions:
REMARK  status: ('A' for Active; 'I' for Inactive)
REMARK    1  A    between atoms: C_4  and  C_5 
REMARK    2  A    between atoms: C_9  and  C_10 
REMARK       I    between atoms: C_10  and  N_11 
REMARK    3  A    between atoms: N_11  and  N_12 
REMARK       I    between atoms: N_12  and  C_13 
REMARK    4  A    between atoms: C_13  and  C_14 
REMARK    5  A    between atoms: C_14  and  O_15 
REMARK    6  A    between atoms: O_15  and  C_16 
ROOT
HETATM    1  C   UNL     1      41.001 -13.799   0.730  1.00  0.00     0.288 C 
HETATM    2  N   UNL     1      39.842 -14.355   0.211  1.00  0.00    -0.262 N 
HETATM    3  O   UNL     1      41.340 -12.648   0.455  1.00  0.00    -0.264 OA
HETATM    4  H   UNL     1      39.352 -15.064   0.755  1.00  0.00     0.190 HD
ENDROOT
BRANCH   2   5
HETATM    5  N   UNL     1      38.974 -13.487  -0.488  1.00  0.00    -0.265 N 
HETATM    6  C   UNL     1      38.621 -13.859  -1.771  1.00  0.00     0.260 C 
HETATM    7  O   UNL     1      39.196 -14.770  -2.369  1.00  0.00    -0.269 OA
HETATM    8  H   UNL     1      38.307 -12.959   0.079  1.00  0.00     0.190 HD
BRANCH   6   9
HETATM    9  C   UNL     1      37.442 -13.093  -2.361  1.00  0.00     0.280 C 
BRANCH   9  10
HETATM   10  O   UNL     1      37.371 -11.772  -1.818  1.00  0.00    -0.341 OA
BRANCH  10  11
HETATM   11  C   UNL     1      37.240 -10.852  -2.832  1.00  0.00     0.080 A 
HETATM   12  C   UNL     1      38.372 -10.203  -3.371  1.00  0.00     0.007 A 
HETATM   13  C   UNL     1      38.170  -9.250  -4.396  1.00  0.00    -0.023 A 
HETATM   14  C   UNL     1      39.690 -10.457  -2.935  1.00  0.00     0.015 A 
HETATM   15  C   UNL     1      39.274  -8.570  -4.937  1.00  0.00     0.012 A 
HETATM   16  C   UNL     1      36.869  -8.998  -4.865  1.00  0.00     0.012 A 
HETATM   17  C   UNL     1      40.568  -8.830  -4.484  1.00  0.00     0.001 A 
HETATM   18  C   UNL     1      40.777  -9.776  -3.488  1.00  0.00     0.001 A 
HETATM   19  C   UNL     1      35.771  -9.683  -4.342  1.00  0.00     0.004 A 
HETATM   20  C   UNL     1      35.956 -10.616  -3.329  1.00  0.00     0.037 A 
ENDBRANCH  10  11
ENDBRANCH   9  10
ENDBRANCH   6   9
ENDBRANCH   2   5
BRANCH   1  21
HETATM   21  C   UNL     1      41.746 -14.656   1.614  1.00  0.00     0.121 A 
HETATM   22  N   UNL     1      42.386 -14.277   2.759  1.00  0.00    -0.272 N 
HETATM   23  N   UNL     1      42.979 -15.280   3.418  1.00  0.00    -0.174 NA
HETATM   24  H   UNL     1      42.435 -13.351   3.169  1.00  0.00     0.189 HD
HETATM   25  C   UNL     1      42.711 -16.374   2.686  1.00  0.00     0.089 A 
HETATM   26  C   UNL     1      41.931 -16.024   1.552  1.00  0.00     0.071 A 
BRANCH  25  27
HETATM   27  C   UNL     1      43.180 -17.703   3.083  1.00  0.00    -0.006 A 
HETATM   28  C   UNL     1      43.725 -17.911   4.359  1.00  0.00     0.014 A 
HETATM   29  C   UNL     1      44.159 -19.179   4.752  1.00  0.00     0.001 A 
HETATM   30  C   UNL     1      44.062 -20.252   3.870  1.00  0.00     0.000 A 
HETATM   31  C   UNL     1      43.532 -20.059   2.596  1.00  0.00     0.001 A 
HETATM   32  C   UNL     1      43.092 -18.791   2.204  1.00  0.00     0.014 A 
ENDBRANCH  25  27
ENDBRANCH   1  21
TORSDOF 6
ENDMDL
