MODEL 1
REMARK VINA RESULT:      -8.7      0.000      0.000
REMARK  5 active torsions:
REMARK  status: ('A' for Active; 'I' for Inactive)
REMARK    1  A    between atoms: C_2  and  O_3 
REMARK    2  A    between atoms: C_2  and  C_4 
REMARK    3  A    between atoms: C_7  and  N_8 
REMARK    4  A    between atoms: N_12  and  C_13 
REMARK    5  A    between atoms: C_13  and  C_14 
ROOT
HETATM    1  N   UNL     1      43.388 -12.867   6.009  1.00  0.00    -0.367 N 
HETATM    2  C   UNL     1      43.619 -12.570   4.575  1.00  0.00     0.127 C 
HETATM    3  C   UNL     1      43.357 -13.787   3.681  1.00  0.00     0.068 C 
HETATM    4  C   UNL     1      42.132 -14.632   4.109  1.00  0.00     0.206 C 
HETATM    5  N   UNL     1      41.950 -15.888   3.262  1.00  0.00     0.105 N 
HETATM    6  C   UNL     1      41.262 -15.632   1.948  1.00  0.00     0.280 C 
HETATM    7  C   UNL     1      39.832 -15.074   2.076  1.00  0.00     0.089 C 
HETATM    8  C   UNL     1      39.861 -13.988   3.056  1.00  0.00     0.037 A 
HETATM    9  C   UNL     1      40.872 -13.776   3.963  1.00  0.00     0.072 A 
HETATM   10  N   UNL     1      40.463 -12.691   4.728  1.00  0.00    -0.352 N 
HETATM   11  H   UNL     1      40.971 -12.318   5.527  1.00  0.00     0.166 HD
HETATM   12  C   UNL     1      39.265 -12.253   4.321  1.00  0.00     0.181 A 
HETATM   13  N   UNL     1      38.905 -13.024   3.291  1.00  0.00    -0.354 N 
HETATM   14  H   UNL     1      38.025 -12.934   2.785  1.00  0.00     0.166 HD
HETATM   15  C   UNL     1      42.221 -14.999   5.622  1.00  0.00     0.068 C 
HETATM   16  C   UNL     1      43.362 -14.293   6.358  1.00  0.00     0.127 C 
ENDROOT
BRANCH   5  17
HETATM   17  C   UNL     1      43.179 -16.672   2.943  1.00  0.00     0.277 C 
BRANCH  17  18
HETATM   18  C   UNL     1      43.372 -18.028   3.649  1.00  0.00     0.006 C 
HETATM   19  C   UNL     1      43.844 -19.110   2.674  1.00  0.00     0.011 C 
HETATM   20  C   UNL     1      44.399 -17.883   4.779  1.00  0.00     0.011 C 
ENDBRANCH  17  18
ENDBRANCH   5  17
BRANCH   1  21
HETATM   21  C   UNL     1      44.115 -12.005   6.856  1.00  0.00     0.103 A 
HETATM   22  N   UNL     1      43.614 -11.547   8.012  1.00  0.00    -0.344 N 
HETATM   23  C   UNL     1      44.266 -10.730   8.864  1.00  0.00     0.039 A 
HETATM   24  H   UNL     1      42.693 -11.831   8.353  1.00  0.00     0.167 HD
HETATM   25  C   UNL     1      45.548 -10.295   8.550  1.00  0.00     0.028 A 
HETATM   26  C   UNL     1      46.121 -10.717   7.358  1.00  0.00     0.006 A 
HETATM   27  C   UNL     1      45.409 -11.569   6.513  1.00  0.00     0.048 A 
BRANCH  23  28
HETATM   28  C   UNL     1      43.520 -10.387  10.120  1.00  0.00     0.163 C 
HETATM   29  C   UNL     1      44.198  -9.299  10.937  1.00  0.00     0.046 C 
BRANCH  28  30
HETATM   30  O   UNL     1      42.237  -9.907   9.670  1.00  0.00    -0.390 OA
HETATM   31  H   UNL     1      41.867  -9.379  10.410  1.00  0.00     0.210 HD
ENDBRANCH  28  30
ENDBRANCH  23  28
ENDBRANCH   1  21
TORSDOF 5
ENDMDL
MODEL 2
REMARK VINA RESULT:      -8.3      3.613      7.342
REMARK  5 active torsions:
REMARK  status: ('A' for Active; 'I' for Inactive)
REMARK    1  A    between atoms: C_2  and  O_3 
REMARK    2  A    between atoms: C_2  and  C_4 
REMARK    3  A    between atoms: C_7  and  N_8 
REMARK    4  A    between atoms: N_12  and  C_13 
REMARK    5  A    between atoms: C_13  and  C_14 
ROOT
HETATM    1  N   UNL     1      41.003 -14.080   2.145  1.00  0.00    -0.367 N 
HETATM    2  C   UNL     1      40.154 -14.647   3.219  1.00  0.00     0.127 C 
HETATM    3  C   UNL     1      40.900 -15.687   4.062  1.00  0.00     0.068 C 
HETATM    4  C   UNL     1      42.377 -15.320   4.353  1.00  0.00     0.206 C 
HETATM    5  N   UNL     1      43.124 -16.414   5.110  1.00  0.00     0.105 N 
HETATM    6  C   UNL     1      42.870 -16.399   6.594  1.00  0.00     0.280 C 
HETATM    7  C   UNL     1      43.313 -15.105   7.302  1.00  0.00     0.089 C 
HETATM    8  C   UNL     1      42.827 -13.974   6.513  1.00  0.00     0.037 A 
HETATM    9  C   UNL     1      42.406 -14.050   5.206  1.00  0.00     0.072 A 
HETATM   10  N   UNL     1      42.095 -12.747   4.839  1.00  0.00    -0.352 N 
HETATM   11  H   UNL     1      41.804 -12.459   3.907  1.00  0.00     0.166 HD
HETATM   12  C   UNL     1      42.311 -11.906   5.859  1.00  0.00     0.181 A 
HETATM   13  N   UNL     1      42.734 -12.649   6.885  1.00  0.00    -0.354 N 
HETATM   14  H   UNL     1      42.993 -12.276   7.798  1.00  0.00     0.166 HD
HETATM   15  C   UNL     1      43.124 -14.959   3.032  1.00  0.00     0.068 C 
HETATM   16  C   UNL     1      42.202 -14.861   1.815  1.00  0.00     0.127 C 
ENDROOT
BRANCH   5  17
HETATM   17  C   UNL     1      42.897 -17.820   4.664  1.00  0.00     0.277 C 
BRANCH  17  18
HETATM   18  C   UNL     1      44.118 -18.629   4.182  1.00  0.00     0.006 C 
HETATM   19  C   UNL     1      44.284 -19.927   4.977  1.00  0.00     0.011 C 
HETATM   20  C   UNL     1      43.966 -18.963   2.694  1.00  0.00     0.011 C 
ENDBRANCH  17  18
ENDBRANCH   5  17
BRANCH   1  21
HETATM   21  C   UNL     1      40.239 -13.578   1.071  1.00  0.00     0.103 A 
HETATM   22  N   UNL     1      40.288 -14.118  -0.156  1.00  0.00    -0.344 N 
HETATM   23  C   UNL     1      39.576 -13.686  -1.216  1.00  0.00     0.039 A 
HETATM   24  H   UNL     1      40.856 -14.942  -0.362  1.00  0.00     0.167 HD
HETATM   25  C   UNL     1      38.727 -12.595  -1.073  1.00  0.00     0.028 A 
HETATM   26  C   UNL     1      38.641 -11.977   0.167  1.00  0.00     0.006 A 
HETATM   27  C   UNL     1      39.393 -12.465   1.236  1.00  0.00     0.048 A 
BRANCH  23  28
HETATM   28  C   UNL     1      39.761 -14.477  -2.478  1.00  0.00     0.163 C 
HETATM   29  C   UNL     1      38.531 -14.468  -3.372  1.00  0.00     0.046 C 
BRANCH  28  30
HETATM   30  O   UNL     1      40.848 -13.827  -3.166  1.00  0.00    -0.390 OA
HETATM   31  H   UNL     1      40.435 -13.230  -3.828  1.00  0.00     0.210 HD
ENDBRANCH  28  30
ENDBRANCH  23  28
ENDBRANCH   1  21
TORSDOF 5
ENDMDL
MODEL 3
REMARK VINA RESULT:      -8.1      3.434      6.973
REMARK  5 active torsions:
REMARK  status: ('A' for Active; 'I' for Inactive)
REMARK    1  A    between atoms: C_2  and  O_3 
REMARK    2  A    between atoms: C_2  and  C_4 
REMARK    3  A    between atoms: C_7  and  N_8 
REMARK    4  A    between atoms: N_12  and  C_13 
REMARK    5  A    between atoms: C_13  and  C_14 
ROOT
HETATM    1  N   UNL     1      42.394 -16.530   3.123  1.00  0.00    -0.367 N 
HETATM    2  C   UNL     1      41.034 -16.451   3.708  1.00  0.00     0.127 C 
HETATM    3  C   UNL     1      40.743 -15.074   4.315  1.00  0.00     0.068 C 
HETATM    4  C   UNL     1      41.300 -13.889   3.487  1.00  0.00     0.206 C 
HETATM    5  N   UNL     1      41.080 -12.538   4.161  1.00  0.00     0.105 N 
HETATM    6  C   UNL     1      39.698 -11.980   3.952  1.00  0.00     0.280 C 
HETATM    7  C   UNL     1      39.337 -11.711   2.479  1.00  0.00     0.089 C 
HETATM    8  C   UNL     1      39.725 -12.888   1.701  1.00  0.00     0.037 A 
HETATM    9  C   UNL     1      40.591 -13.864   2.132  1.00  0.00     0.072 A 
HETATM   10  N   UNL     1      40.720 -14.743   1.065  1.00  0.00    -0.352 N 
HETATM   11  H   UNL     1      41.341 -15.550   1.047  1.00  0.00     0.166 HD
HETATM   12  C   UNL     1      39.977 -14.338   0.028  1.00  0.00     0.181 A 
HETATM   13  N   UNL     1      39.352 -13.223   0.416  1.00  0.00    -0.354 N 
HETATM   14  H   UNL     1      38.726 -12.678  -0.175  1.00  0.00     0.166 HD
HETATM   15  C   UNL     1      42.812 -14.105   3.170  1.00  0.00     0.068 C 
HETATM   16  C   UNL     1      43.330 -15.489   3.567  1.00  0.00     0.127 C 
ENDROOT
BRANCH   5  17
HETATM   17  C   UNL     1      41.342 -12.464   5.628  1.00  0.00     0.277 C 
BRANCH  17  18
HETATM   18  C   UNL     1      42.660 -11.813   6.093  1.00  0.00     0.006 C 
HETATM   19  C   UNL     1      43.675 -12.862   6.555  1.00  0.00     0.011 C 
HETATM   20  C   UNL     1      43.266 -10.993   4.949  1.00  0.00     0.011 C 
ENDBRANCH  17  18
ENDBRANCH   5  17
BRANCH   1  21
HETATM   21  C   UNL     1      42.875 -17.855   3.068  1.00  0.00     0.103 A 
HETATM   22  N   UNL     1      43.393 -18.473   4.139  1.00  0.00    -0.344 N 
HETATM   23  C   UNL     1      43.860 -19.738   4.148  1.00  0.00     0.039 A 
HETATM   24  H   UNL     1      43.432 -18.024   5.057  1.00  0.00     0.167 HD
HETATM   25  C   UNL     1      43.832 -20.486   2.977  1.00  0.00     0.028 A 
HETATM   26  C   UNL     1      43.324 -19.901   1.825  1.00  0.00     0.006 A 
HETATM   27  C   UNL     1      42.846 -18.591   1.868  1.00  0.00     0.048 A 
BRANCH  23  28
HETATM   28  C   UNL     1      44.350 -20.231   5.478  1.00  0.00     0.163 C 
HETATM   29  C   UNL     1      43.468 -19.794   6.637  1.00  0.00     0.046 C 
BRANCH  28  30
HETATM   30  O   UNL     1      44.315 -21.668   5.376  1.00  0.00    -0.390 OA
HETATM   31  H   UNL     1      43.912 -21.993   6.210  1.00  0.00     0.210 HD
ENDBRANCH  28  30
ENDBRANCH  23  28
ENDBRANCH   1  21
TORSDOF 5
ENDMDL
MODEL 4
REMARK VINA RESULT:      -8.1      3.385      7.083
REMARK  5 active torsions:
REMARK  status: ('A' for Active; 'I' for Inactive)
REMARK    1  A    between atoms: C_2  and  O_3 
REMARK    2  A    between atoms: C_2  and  C_4 
REMARK    3  A    between atoms: C_7  and  N_8 
REMARK    4  A    between atoms: N_12  and  C_13 
REMARK    5  A    between atoms: C_13  and  C_14 
ROOT
HETATM    1  N   UNL     1      40.776 -13.986   1.362  1.00  0.00    -0.367 N 
HETATM    2  C   UNL     1      40.062 -14.225   2.639  1.00  0.00     0.127 C 
HETATM    3  C   UNL     1      40.886 -15.068   3.617  1.00  0.00     0.068 C 
HETATM    4  C   UNL     1      42.397 -14.725   3.626  1.00  0.00     0.206 C 
HETATM    5  N   UNL     1      43.209 -15.642   4.537  1.00  0.00     0.105 N 
HETATM    6  C   UNL     1      43.153 -15.250   5.989  1.00  0.00     0.280 C 
HETATM    7  C   UNL     1      43.718 -13.850   6.293  1.00  0.00     0.089 C 
HETATM    8  C   UNL     1      43.160 -12.920   5.311  1.00  0.00     0.037 A 
HETATM    9  C   UNL     1      42.569 -13.289   4.126  1.00  0.00     0.072 A 
HETATM   10  N   UNL     1      42.246 -12.100   3.485  1.00  0.00    -0.352 N 
HETATM   11  H   UNL     1      41.842 -12.032   2.553  1.00  0.00     0.166 HD
HETATM   12  C   UNL     1      42.614 -11.049   4.229  1.00  0.00     0.181 A 
HETATM   13  N   UNL     1      43.150 -11.542   5.349  1.00  0.00    -0.354 N 
HETATM   14  H   UNL     1      43.536 -10.972   6.101  1.00  0.00     0.166 HD
HETATM   15  C   UNL     1      42.973 -14.741   2.177  1.00  0.00     0.068 C 
HETATM   16  C   UNL     1      41.902 -14.892   1.095  1.00  0.00     0.127 C 
ENDROOT
BRANCH   5  17
HETATM   17  C   UNL     1      42.891 -17.099   4.486  1.00  0.00     0.277 C 
BRANCH  17  18
HETATM   18  C   UNL     1      43.807 -18.008   3.642  1.00  0.00     0.006 C 
HETATM   19  C   UNL     1      44.277 -19.230   4.436  1.00  0.00     0.011 C 
HETATM   20  C   UNL     1      43.061 -18.477   2.388  1.00  0.00     0.011 C 
ENDBRANCH  17  18
ENDBRANCH   5  17
BRANCH   1  21
HETATM   21  C   UNL     1      39.891 -13.720   0.297  1.00  0.00     0.103 A 
HETATM   22  N   UNL     1      39.057 -12.670   0.304  1.00  0.00    -0.344 N 
HETATM   23  C   UNL     1      38.197 -12.362  -0.687  1.00  0.00     0.039 A 
HETATM   24  H   UNL     1      39.050 -11.990   1.068  1.00  0.00     0.167 HD
HETATM   25  C   UNL     1      38.129 -13.177  -1.812  1.00  0.00     0.028 A 
HETATM   26  C   UNL     1      38.952 -14.292  -1.877  1.00  0.00     0.006 A 
HETATM   27  C   UNL     1      39.831 -14.565  -0.828  1.00  0.00     0.048 A 
BRANCH  23  28
HETATM   28  C   UNL     1      37.397 -11.111  -0.476  1.00  0.00     0.163 C 
HETATM   29  C   UNL     1      36.964 -10.918   0.969  1.00  0.00     0.046 C 
BRANCH  28  30
HETATM   30  O   UNL     1      38.284 -10.037  -0.848  1.00  0.00    -0.390 OA
HETATM   31  H   UNL     1      37.784  -9.474  -1.478  1.00  0.00     0.210 HD
ENDBRANCH  28  30
ENDBRANCH  23  28
ENDBRANCH   1  21
TORSDOF 5
ENDMDL
MODEL 5
REMARK VINA RESULT:      -8.0      4.110      6.550
REMARK  5 active torsions:
REMARK  status: ('A' for Active; 'I' for Inactive)
REMARK    1  A    between atoms: C_2  and  O_3 
REMARK    2  A    between atoms: C_2  and  C_4 
REMARK    3  A    between atoms: C_7  and  N_8 
REMARK    4  A    between atoms: N_12  and  C_13 
REMARK    5  A    between atoms: C_13  and  C_14 
ROOT
HETATM    1  N   UNL     1      41.873 -15.260   3.696  1.00  0.00    -0.367 N 
HETATM    2  C   UNL     1      42.807 -15.041   2.567  1.00  0.00     0.127 C 
HETATM    3  C   UNL     1      42.085 -14.582   1.296  1.00  0.00     0.068 C 
HETATM    4  C   UNL     1      40.932 -13.580   1.553  1.00  0.00     0.206 C 
HETATM    5  N   UNL     1      40.169 -13.213   0.283  1.00  0.00     0.105 N 
HETATM    6  C   UNL     1      40.849 -12.155  -0.543  1.00  0.00     0.280 C 
HETATM    7  C   UNL     1      41.025 -10.803   0.174  1.00  0.00     0.089 C 
HETATM    8  C   UNL     1      41.552 -11.071   1.513  1.00  0.00     0.037 A 
HETATM    9  C   UNL     1      41.522 -12.295   2.138  1.00  0.00     0.072 A 
HETATM   10  N   UNL     1      42.064 -12.081   3.399  1.00  0.00    -0.352 N 
HETATM   11  H   UNL     1      42.131 -12.786   4.130  1.00  0.00     0.166 HD
HETATM   12  C   UNL     1      42.412 -10.797   3.550  1.00  0.00     0.181 A 
HETATM   13  N   UNL     1      42.124 -10.184   2.399  1.00  0.00    -0.354 N 
HETATM   14  H   UNL     1      42.268  -9.190   2.225  1.00  0.00     0.166 HD
HETATM   15  C   UNL     1      39.958 -14.131   2.639  1.00  0.00     0.068 C 
HETATM   16  C   UNL     1      40.460 -15.405   3.321  1.00  0.00     0.127 C 
ENDROOT
BRANCH   5  17
HETATM   17  C   UNL     1      39.842 -14.327  -0.655  1.00  0.00     0.277 C 
BRANCH  17  18
HETATM   18  C   UNL     1      39.148 -13.969  -1.984  1.00  0.00     0.006 C 
HETATM   19  C   UNL     1      38.759 -15.223  -2.772  1.00  0.00     0.011 C 
HETATM   20  C   UNL     1      37.891 -13.137  -1.706  1.00  0.00     0.011 C 
ENDBRANCH  17  18
ENDBRANCH   5  17
BRANCH   1  21
HETATM   21  C   UNL     1      42.388 -16.165   4.647  1.00  0.00     0.103 A 
HETATM   22  N   UNL     1      43.094 -17.249   4.295  1.00  0.00    -0.344 N 
HETATM   23  C   UNL     1      43.616 -18.142   5.160  1.00  0.00     0.039 A 
HETATM   24  H   UNL     1      43.323 -17.452   3.320  1.00  0.00     0.167 HD
HETATM   25  C   UNL     1      43.420 -17.970   6.525  1.00  0.00     0.028 A 
HETATM   26  C   UNL     1      42.682 -16.877   6.959  1.00  0.00     0.006 A 
HETATM   27  C   UNL     1      42.167 -15.976   6.025  1.00  0.00     0.048 A 
BRANCH  23  28
HETATM   28  C   UNL     1      44.409 -19.252   4.533  1.00  0.00     0.163 C 
HETATM   29  C   UNL     1      44.184 -20.596   5.207  1.00  0.00     0.046 C 
BRANCH  28  30
HETATM   30  O   UNL     1      43.936 -19.322   3.174  1.00  0.00    -0.390 OA
HETATM   31  H   UNL     1      43.619 -18.422   2.946  1.00  0.00     0.210 HD
ENDBRANCH  28  30
ENDBRANCH  23  28
ENDBRANCH   1  21
TORSDOF 5
ENDMDL
MODEL 6
REMARK VINA RESULT:      -8.0      4.021      6.199
REMARK  5 active torsions:
REMARK  status: ('A' for Active; 'I' for Inactive)
REMARK    1  A    between atoms: C_2  and  O_3 
REMARK    2  A    between atoms: C_2  and  C_4 
REMARK    3  A    between atoms: C_7  and  N_8 
REMARK    4  A    between atoms: N_12  and  C_13 
REMARK    5  A    between atoms: C_13  and  C_14 
ROOT
HETATM    1  N   UNL     1      41.701 -15.651   3.045  1.00  0.00    -0.367 N 
HETATM    2  C   UNL     1      42.413 -14.388   2.739  1.00  0.00     0.127 C 
HETATM    3  C   UNL     1      41.668 -13.536   1.706  1.00  0.00     0.068 C 
HETATM    4  C   UNL     1      40.128 -13.534   1.884  1.00  0.00     0.206 C 
HETATM    5  N   UNL     1      39.405 -12.758   0.787  1.00  0.00     0.105 N 
HETATM    6  C   UNL     1      39.392 -11.269   1.013  1.00  0.00     0.280 C 
HETATM    7  C   UNL     1      38.672 -10.828   2.301  1.00  0.00     0.089 C 
HETATM    8  C   UNL     1      39.143 -11.682   3.392  1.00  0.00     0.037 A 
HETATM    9  C   UNL     1      39.792 -12.882   3.226  1.00  0.00     0.072 A 
HETATM   10  N   UNL     1      39.996 -13.375   4.509  1.00  0.00    -0.352 N 
HETATM   11  H   UNL     1      40.407 -14.280   4.726  1.00  0.00     0.166 HD
HETATM   12  C   UNL     1      39.502 -12.529   5.422  1.00  0.00     0.181 A 
HETATM   13  N   UNL     1      39.002 -11.488   4.750  1.00  0.00    -0.354 N 
HETATM   14  H   UNL     1      38.543 -10.689   5.185  1.00  0.00     0.166 HD
HETATM   15  C   UNL     1      39.585 -14.993   1.973  1.00  0.00     0.068 C 
HETATM   16  C   UNL     1      40.685 -16.052   2.063  1.00  0.00     0.127 C 
ENDROOT
BRANCH   5  17
HETATM   17  C   UNL     1      39.880 -12.962  -0.612  1.00  0.00     0.277 C 
BRANCH  17  18
HETATM   18  C   UNL     1      38.999 -13.803  -1.557  1.00  0.00     0.006 C 
HETATM   19  C   UNL     1      37.723 -13.056  -1.953  1.00  0.00     0.011 C 
HETATM   20  C   UNL     1      39.789 -14.160  -2.822  1.00  0.00     0.011 C 
ENDBRANCH  17  18
ENDBRANCH   5  17
BRANCH   1  21
HETATM   21  C   UNL     1      42.571 -16.651   3.525  1.00  0.00     0.103 A 
HETATM   22  N   UNL     1      42.898 -16.756   4.821  1.00  0.00    -0.344 N 
HETATM   23  C   UNL     1      43.716 -17.695   5.336  1.00  0.00     0.039 A 
HETATM   24  H   UNL     1      42.502 -16.135   5.531  1.00  0.00     0.167 HD
HETATM   25  C   UNL     1      44.296 -18.635   4.492  1.00  0.00     0.028 A 
HETATM   26  C   UNL     1      44.015 -18.575   3.134  1.00  0.00     0.006 A 
HETATM   27  C   UNL     1      43.155 -17.588   2.650  1.00  0.00     0.048 A 
BRANCH  23  28
HETATM   28  C   UNL     1      43.897 -17.641   6.824  1.00  0.00     0.163 C 
HETATM   29  C   UNL     1      43.319 -16.380   7.448  1.00  0.00     0.046 C 
BRANCH  28  30
HETATM   30  O   UNL     1      43.180 -18.786   7.327  1.00  0.00    -0.390 OA
HETATM   31  H   UNL     1      42.973 -18.590   8.266  1.00  0.00     0.210 HD
ENDBRANCH  28  30
ENDBRANCH  23  28
ENDBRANCH   1  21
TORSDOF 5
ENDMDL
MODEL 7
REMARK VINA RESULT:      -7.9      1.732      3.796
REMARK  5 active torsions:
REMARK  status: ('A' for Active; 'I' for Inactive)
REMARK    1  A    between atoms: C_2  and  O_3 
REMARK    2  A    between atoms: C_2  and  C_4 
REMARK    3  A    between atoms: C_7  and  N_8 
REMARK    4  A    between atoms: N_12  and  C_13 
REMARK    5  A    between atoms: C_13  and  C_14 
ROOT
HETATM    1  N   UNL     1      43.531 -12.186   5.576  1.00  0.00    -0.367 N 
HETATM    2  C   UNL     1      42.155 -12.550   5.989  1.00  0.00     0.127 C 
HETATM    3  C   UNL     1      41.199 -12.653   4.795  1.00  0.00     0.068 C 
HETATM    4  C   UNL     1      41.829 -13.303   3.537  1.00  0.00     0.206 C 
HETATM    5  N   UNL     1      40.888 -13.306   2.335  1.00  0.00     0.105 N 
HETATM    6  C   UNL     1      39.884 -14.427   2.362  1.00  0.00     0.280 C 
HETATM    7  C   UNL     1      40.503 -15.837   2.338  1.00  0.00     0.089 C 
HETATM    8  C   UNL     1      41.587 -15.867   3.320  1.00  0.00     0.037 A 
HETATM    9  C   UNL     1      42.185 -14.755   3.864  1.00  0.00     0.072 A 
HETATM   10  N   UNL     1      43.191 -15.240   4.689  1.00  0.00    -0.352 N 
HETATM   11  H   UNL     1      43.857 -14.661   5.197  1.00  0.00     0.166 HD
HETATM   12  C   UNL     1      43.220 -16.578   4.660  1.00  0.00     0.181 A 
HETATM   13  N   UNL     1      42.232 -16.965   3.848  1.00  0.00    -0.354 N 
HETATM   14  H   UNL     1      42.022 -17.936   3.619  1.00  0.00     0.166 HD
HETATM   15  C   UNL     1      43.177 -12.607   3.177  1.00  0.00     0.068 C 
HETATM   16  C   UNL     1      43.650 -11.606   4.232  1.00  0.00     0.127 C 
ENDROOT
BRANCH   5  17
HETATM   17  C   UNL     1      40.112 -12.058   2.081  1.00  0.00     0.277 C 
BRANCH  17  18
HETATM   18  C   UNL     1      40.435 -11.257   0.804  1.00  0.00     0.006 C 
HETATM   19  C   UNL     1      41.481 -10.170   1.068  1.00  0.00     0.011 C 
HETATM   20  C   UNL     1      40.953 -12.203  -0.286  1.00  0.00     0.011 C 
ENDBRANCH  17  18
ENDBRANCH   5  17
BRANCH   1  21
HETATM   21  C   UNL     1      44.253 -11.567   6.617  1.00  0.00     0.103 A 
HETATM   22  N   UNL     1      43.681 -11.223   7.780  1.00  0.00    -0.344 N 
HETATM   23  C   UNL     1      44.323 -10.637   8.811  1.00  0.00     0.039 A 
HETATM   24  H   UNL     1      42.700 -11.426   7.981  1.00  0.00     0.167 HD
HETATM   25  C   UNL     1      45.676 -10.339   8.695  1.00  0.00     0.028 A 
HETATM   26  C   UNL     1      46.327 -10.652   7.510  1.00  0.00     0.006 A 
HETATM   27  C   UNL     1      45.621 -11.264   6.474  1.00  0.00     0.048 A 
BRANCH  23  28
HETATM   28  C   UNL     1      43.484 -10.388  10.029  1.00  0.00     0.163 C 
HETATM   29  C   UNL     1      44.077  -9.337  10.955  1.00  0.00     0.046 C 
BRANCH  28  30
HETATM   30  O   UNL     1      42.224  -9.908   9.519  1.00  0.00    -0.390 OA
HETATM   31  H   UNL     1      42.068  -9.038   9.946  1.00  0.00     0.210 HD
ENDBRANCH  28  30
ENDBRANCH  23  28
ENDBRANCH   1  21
TORSDOF 5
ENDMDL
MODEL 8
REMARK VINA RESULT:      -7.8      4.253      7.447
REMARK  5 active torsions:
REMARK  status: ('A' for Active; 'I' for Inactive)
REMARK    1  A    between atoms: C_2  and  O_3 
REMARK    2  A    between atoms: C_2  and  C_4 
REMARK    3  A    between atoms: C_7  and  N_8 
REMARK    4  A    between atoms: N_12  and  C_13 
REMARK    5  A    between atoms: C_13  and  C_14 
ROOT
HETATM    1  N   UNL     1      40.893 -13.562   1.280  1.00  0.00    -0.367 N 
HETATM    2  C   UNL     1      39.807 -14.353   1.906  1.00  0.00     0.127 C 
HETATM    3  C   UNL     1      40.347 -15.455   2.825  1.00  0.00     0.068 C 
HETATM    4  C   UNL     1      41.579 -15.030   3.663  1.00  0.00     0.206 C 
HETATM    5  N   UNL     1      42.154 -16.172   4.496  1.00  0.00     0.105 N 
HETATM    6  C   UNL     1      41.411 -16.410   5.783  1.00  0.00     0.280 C 
HETATM    7  C   UNL     1      41.423 -15.215   6.755  1.00  0.00     0.089 C 
HETATM    8  C   UNL     1      41.096 -14.013   5.989  1.00  0.00     0.037 A 
HETATM    9  C   UNL     1      41.157 -13.913   4.619  1.00  0.00     0.072 A 
HETATM   10  N   UNL     1      40.829 -12.595   4.328  1.00  0.00    -0.352 N 
HETATM   11  H   UNL     1      40.839 -12.185   3.396  1.00  0.00     0.166 HD
HETATM   12  C   UNL     1      40.579 -11.912   5.452  1.00  0.00     0.181 A 
HETATM   13  N   UNL     1      40.717 -12.774   6.463  1.00  0.00    -0.354 N 
HETATM   14  H   UNL     1      40.602 -12.532   7.446  1.00  0.00     0.166 HD
HETATM   15  C   UNL     1      42.678 -14.411   2.747  1.00  0.00     0.068 C 
HETATM   16  C   UNL     1      42.221 -14.190   1.304  1.00  0.00     0.127 C 
ENDROOT
BRANCH   5  17
HETATM   17  C   UNL     1      42.270 -17.502   3.830  1.00  0.00     0.277 C 
BRANCH  17  18
HETATM   18  C   UNL     1      43.672 -17.966   3.386  1.00  0.00     0.006 C 
HETATM   19  C   UNL     1      44.524 -18.408   4.578  1.00  0.00     0.011 C 
HETATM   20  C   UNL     1      43.545 -19.130   2.396  1.00  0.00     0.011 C 
ENDBRANCH  17  18
ENDBRANCH   5  17
BRANCH   1  21
HETATM   21  C   UNL     1      40.484 -12.955   0.075  1.00  0.00     0.103 A 
HETATM   22  N   UNL     1      39.590 -13.524  -0.746  1.00  0.00    -0.344 N 
HETATM   23  C   UNL     1      39.156 -12.987  -1.904  1.00  0.00     0.039 A 
HETATM   24  H   UNL     1      39.134 -14.411  -0.519  1.00  0.00     0.167 HD
HETATM   25  C   UNL     1      39.659 -11.761  -2.321  1.00  0.00     0.028 A 
HETATM   26  C   UNL     1      40.603 -11.123  -1.527  1.00  0.00     0.006 A 
HETATM   27  C   UNL     1      41.015 -11.716  -0.333  1.00  0.00     0.048 A 
BRANCH  23  28
HETATM   28  C   UNL     1      38.116 -13.788  -2.632  1.00  0.00     0.163 C 
HETATM   29  C   UNL     1      36.816 -13.026  -2.839  1.00  0.00     0.046 C 
BRANCH  28  30
HETATM   30  O   UNL     1      38.702 -14.075  -3.917  1.00  0.00    -0.390 OA
HETATM   31  H   UNL     1      38.543 -13.283  -4.474  1.00  0.00     0.210 HD
ENDBRANCH  28  30
ENDBRANCH  23  28
ENDBRANCH   1  21
TORSDOF 5
ENDMDL
MODEL 9
REMARK VINA RESULT:      -7.6      3.607      6.575
REMARK  5 active torsions:
REMARK  status: ('A' for Active; 'I' for Inactive)
REMARK    1  A    between atoms: C_2  and  O_3 
REMARK    2  A    between atoms: C_2  and  C_4 
REMARK    3  A    between atoms: C_7  and  N_8 
REMARK    4  A    between atoms: N_12  and  C_13 
REMARK    5  A    between atoms: C_13  and  C_14 
ROOT
HETATM    1  N   UNL     1      41.985 -15.077   2.689  1.00  0.00    -0.367 N 
HETATM    2  C   UNL     1      40.593 -14.997   3.191  1.00  0.00     0.127 C 
HETATM    3  C   UNL     1      40.085 -13.553   3.271  1.00  0.00     0.068 C 
HETATM    4  C   UNL     1      40.533 -12.662   2.085  1.00  0.00     0.206 C 
HETATM    5  N   UNL     1      40.095 -11.208   2.237  1.00  0.00     0.105 N 
HETATM    6  C   UNL     1      38.668 -10.964   1.827  1.00  0.00     0.280 C 
HETATM    7  C   UNL     1      38.367 -11.278   0.349  1.00  0.00     0.089 C 
HETATM    8  C   UNL     1      38.955 -12.582   0.040  1.00  0.00     0.037 A 
HETATM    9  C   UNL     1      39.913 -13.211   0.799  1.00  0.00     0.072 A 
HETATM   10  N   UNL     1      40.224 -14.378   0.112  1.00  0.00    -0.352 N 
HETATM   11  H   UNL     1      40.945 -15.041   0.388  1.00  0.00     0.166 HD
HETATM   12  C   UNL     1      39.500 -14.470  -1.011  1.00  0.00     0.181 A 
HETATM   13  N   UNL     1      38.712 -13.393  -1.048  1.00  0.00    -0.354 N 
HETATM   14  H   UNL     1      38.057 -13.184  -1.801  1.00  0.00     0.166 HD
HETATM   15  C   UNL     1      42.077 -12.752   1.884  1.00  0.00     0.068 C 
HETATM   16  C   UNL     1      42.746 -13.822   2.750  1.00  0.00     0.127 C 
ENDROOT
BRANCH   5  17
HETATM   17  C   UNL     1      40.252 -10.592   3.586  1.00  0.00     0.277 C 
BRANCH  17  18
HETATM   18  C   UNL     1      41.524  -9.764   3.858  1.00  0.00     0.006 C 
HETATM   19  C   UNL     1      41.188  -8.385   4.433  1.00  0.00     0.011 C 
HETATM   20  C   UNL     1      42.431 -10.514   4.841  1.00  0.00     0.011 C 
ENDBRANCH  17  18
ENDBRANCH   5  17
BRANCH   1  21
HETATM   21  C   UNL     1      42.638 -16.253   3.111  1.00  0.00     0.103 A 
HETATM   22  N   UNL     1      42.922 -16.491   4.400  1.00  0.00    -0.344 N 
HETATM   23  C   UNL     1      43.536 -17.599   4.861  1.00  0.00     0.039 A 
HETATM   24  H   UNL     1      42.646 -15.846   5.143  1.00  0.00     0.167 HD
HETATM   25  C   UNL     1      43.933 -18.585   3.966  1.00  0.00     0.028 A 
HETATM   26  C   UNL     1      43.686 -18.395   2.613  1.00  0.00     0.006 A 
HETATM   27  C   UNL     1      43.040 -17.234   2.185  1.00  0.00     0.048 A 
BRANCH  23  28
HETATM   28  C   UNL     1      43.706 -17.664   6.351  1.00  0.00     0.163 C 
HETATM   29  C   UNL     1      42.820 -16.676   7.094  1.00  0.00     0.046 C 
BRANCH  28  30
HETATM   30  O   UNL     1      43.317 -19.005   6.709  1.00  0.00    -0.390 OA
HETATM   31  H   UNL     1      42.581 -18.916   7.352  1.00  0.00     0.210 HD
ENDBRANCH  28  30
ENDBRANCH  23  28
ENDBRANCH   1  21
TORSDOF 5
ENDMDL
MODEL 10
REMARK VINA RESULT:      -7.5      3.701      6.576
REMARK  5 active torsions:
REMARK  status: ('A' for Active; 'I' for Inactive)
REMARK    1  A    between atoms: C_2  and  O_3 
REMARK    2  A    between atoms: C_2  and  C_4 
REMARK    3  A    between atoms: C_7  and  N_8 
REMARK    4  A    between atoms: N_12  and  C_13 
REMARK    5  A    between atoms: C_13  and  C_14 
ROOT
HETATM    1  N   UNL     1      41.154 -14.674   1.900  1.00  0.00    -0.367 N 
HETATM    2  C   UNL     1      40.507 -15.884   2.460  1.00  0.00     0.127 C 
HETATM    3  C   UNL     1      41.527 -16.888   3.008  1.00  0.00     0.068 C 
HETATM    4  C   UNL     1      42.720 -16.233   3.750  1.00  0.00     0.206 C 
HETATM    5  N   UNL     1      43.768 -17.246   4.201  1.00  0.00     0.105 N 
HETATM    6  C   UNL     1      43.410 -17.950   5.483  1.00  0.00     0.280 C 
HETATM    7  C   UNL     1      43.263 -17.019   6.701  1.00  0.00     0.089 C 
HETATM    8  C   UNL     1      42.441 -15.878   6.294  1.00  0.00     0.037 A 
HETATM    9  C   UNL     1      42.188 -15.516   4.993  1.00  0.00     0.072 A 
HETATM   10  N   UNL     1      41.429 -14.356   5.071  1.00  0.00    -0.352 N 
HETATM   11  H   UNL     1      41.125 -13.805   4.271  1.00  0.00     0.166 HD
HETATM   12  C   UNL     1      41.222 -14.014   6.349  1.00  0.00     0.181 A 
HETATM   13  N   UNL     1      41.816 -14.947   7.096  1.00  0.00    -0.354 N 
HETATM   14  H   UNL     1      41.837 -14.941   8.116  1.00  0.00     0.166 HD
HETATM   15  C   UNL     1      43.372 -15.124   2.868  1.00  0.00     0.068 C 
HETATM   16  C   UNL     1      42.584 -14.812   1.594  1.00  0.00     0.127 C 
ENDROOT
BRANCH   5  17
HETATM   17  C   UNL     1      44.137 -18.315   3.228  1.00  0.00     0.277 C 
BRANCH  17  18
HETATM   18  C   UNL     1      43.338 -19.633   3.267  1.00  0.00     0.006 C 
HETATM   19  C   UNL     1      43.049 -20.160   1.859  1.00  0.00     0.011 C 
HETATM   20  C   UNL     1      44.121 -20.692   4.052  1.00  0.00     0.011 C 
ENDBRANCH  17  18
ENDBRANCH   5  17
BRANCH   1  21
HETATM   21  C   UNL     1      40.345 -14.032   0.941  1.00  0.00     0.103 A 
HETATM   22  N   UNL     1      39.742 -12.858   1.182  1.00  0.00    -0.344 N 
HETATM   23  C   UNL     1      38.966 -12.196   0.301  1.00  0.00     0.039 A 
HETATM   24  H   UNL     1      39.871 -12.354   2.062  1.00  0.00     0.167 HD
HETATM   25  C   UNL     1      38.736 -12.742  -0.956  1.00  0.00     0.028 A 
HETATM   26  C   UNL     1      39.315 -13.965  -1.266  1.00  0.00     0.006 A 
HETATM   27  C   UNL     1      40.117 -14.609  -0.323  1.00  0.00     0.048 A 
BRANCH  23  28
HETATM   28  C   UNL     1      38.437 -10.875   0.780  1.00  0.00     0.163 C 
HETATM   29  C   UNL     1      36.917 -10.825   0.828  1.00  0.00     0.046 C 
BRANCH  28  30
HETATM   30  O   UNL     1      38.954 -10.733   2.118  1.00  0.00    -0.390 OA
HETATM   31  H   UNL     1      38.983 -11.637   2.499  1.00  0.00     0.210 HD
ENDBRANCH  28  30
ENDBRANCH  23  28
ENDBRANCH   1  21
TORSDOF 5
ENDMDL
