MODEL 1
REMARK VINA RESULT:     -10.1      0.000      0.000
REMARK  6 active torsions:
REMARK  status: ('A' for Active; 'I' for Inactive)
REMARK    1  A    between atoms: C_2  and  O_3 
REMARK    2  A    between atoms: C_2  and  C_4 
REMARK    3  A    between atoms: C_6  and  N_7 
REMARK       I    between atoms: N_7  and  C_8 
REMARK    4  A    between atoms: C_8  and  C_9 
REMARK    5  A    between atoms: C_12  and  C_13 
REMARK    6  A    between atoms: C_18  and  C_19 
ROOT
HETATM    1  C   UNL     1      42.085 -14.782   5.484  1.00  0.00     0.096 C 
HETATM    2  C   UNL     1      42.441 -15.406   4.302  1.00  0.00     0.138 C 
HETATM    3  N   UNL     1      41.256 -15.735   3.682  1.00  0.00    -0.240 N 
HETATM    4  C   UNL     1      41.160 -16.426   2.408  1.00  0.00     0.221 C 
HETATM    5  C   UNL     1      42.511 -16.367   1.673  1.00  0.00     0.066 C 
HETATM    6  C   UNL     1      43.678 -16.684   2.620  1.00  0.00     0.118 C 
HETATM    7  N   UNL     1      43.642 -15.739   3.748  1.00  0.00    -0.365 N 
HETATM    8  N   UNL     1      40.177 -15.531   4.453  1.00  0.00    -0.181 NA
HETATM    9  C   UNL     1      40.679 -14.928   5.534  1.00  0.00     0.160 C 
HETATM   10  H   UNL     1      44.446 -15.856   4.369  1.00  0.00     0.161 HD
ENDROOT
BRANCH   1  11
HETATM   11  C   UNL     1      42.921 -14.147   6.488  1.00  0.00     0.261 C 
HETATM   12  N   UNL     1      43.320 -12.869   6.139  1.00  0.00    -0.323 N 
HETATM   13  H   UNL     1      42.929 -12.516   5.272  1.00  0.00     0.169 HD
HETATM   14  O   UNL     1      43.166 -14.719   7.544  1.00  0.00    -0.267 OA
BRANCH  12  15
HETATM   15  C   UNL     1      44.065 -11.958   6.913  1.00  0.00     0.035 A 
HETATM   16  C   UNL     1      43.537 -11.235   7.988  1.00  0.00     0.039 A 
HETATM   17  C   UNL     1      44.326 -10.314   8.702  1.00  0.00    -0.028 A 
HETATM   18  C   UNL     1      45.659 -10.121   8.314  1.00  0.00     0.010 A 
HETATM   19  C   UNL     1      46.199 -10.851   7.257  1.00  0.00     0.003 A 
HETATM   20  C   UNL     1      45.406 -11.769   6.565  1.00  0.00     0.029 A 
BRANCH  17  21
HETATM   21  C   UNL     1      43.712  -9.526   9.839  1.00  0.00     0.147 C 
HETATM   22  C   UNL     1      44.655  -9.416  11.030  1.00  0.00     0.044 C 
BRANCH  21  23
HETATM   23  O   UNL     1      42.494 -10.132  10.271  1.00  0.00    -0.391 OA
HETATM   24  H   UNL     1      41.888 -10.107   9.511  1.00  0.00     0.210 HD
ENDBRANCH  21  23
ENDBRANCH  17  21
ENDBRANCH  12  15
ENDBRANCH   1  11
BRANCH   4  25
HETATM   25  C   UNL     1      40.083 -15.830   1.528  1.00  0.00     0.409 C 
HETATM   26  F   UNL     1      39.455 -16.732   0.747  1.00  0.00    -0.169 F 
HETATM   27  F   UNL     1      39.149 -15.160   2.241  1.00  0.00    -0.169 F 
HETATM   28  F   UNL     1      40.641 -14.922   0.681  1.00  0.00    -0.169 F 
ENDBRANCH   4  25
BRANCH   6  29
HETATM   29  C   UNL     1      43.716 -18.150   3.038  1.00  0.00    -0.035 A 
HETATM   30  C   UNL     1      44.081 -18.465   4.361  1.00  0.00     0.009 A 
HETATM   31  C   UNL     1      44.168 -19.791   4.791  1.00  0.00     0.001 A 
HETATM   32  C   UNL     1      43.881 -20.828   3.911  1.00  0.00     0.000 A 
HETATM   33  C   UNL     1      43.506 -20.540   2.603  1.00  0.00     0.001 A 
HETATM   34  C   UNL     1      43.422 -19.214   2.170  1.00  0.00     0.009 A 
ENDBRANCH   6  29
TORSDOF 6
ENDMDL
MODEL 2
REMARK VINA RESULT:      -9.5      4.695      8.050
REMARK  6 active torsions:
REMARK  status: ('A' for Active; 'I' for Inactive)
REMARK    1  A    between atoms: C_2  and  O_3 
REMARK    2  A    between atoms: C_2  and  C_4 
REMARK    3  A    between atoms: C_6  and  N_7 
REMARK       I    between atoms: N_7  and  C_8 
REMARK    4  A    between atoms: C_8  and  C_9 
REMARK    5  A    between atoms: C_12  and  C_13 
REMARK    6  A    between atoms: C_18  and  C_19 
ROOT
HETATM    1  C   UNL     1      41.144 -12.943   2.693  1.00  0.00     0.096 C 
HETATM    2  C   UNL     1      41.399 -13.843   3.711  1.00  0.00     0.138 C 
HETATM    3  N   UNL     1      42.520 -13.370   4.356  1.00  0.00    -0.240 N 
HETATM    4  C   UNL     1      43.153 -14.021   5.489  1.00  0.00     0.221 C 
HETATM    5  C   UNL     1      42.190 -15.048   6.112  1.00  0.00     0.066 C 
HETATM    6  C   UNL     1      41.507 -15.901   5.033  1.00  0.00     0.118 C 
HETATM    7  N   UNL     1      40.803 -15.007   4.098  1.00  0.00    -0.365 N 
HETATM    8  N   UNL     1      43.103 -12.340   3.724  1.00  0.00    -0.181 NA
HETATM    9  C   UNL     1      42.253 -12.065   2.731  1.00  0.00     0.160 C 
HETATM   10  H   UNL     1      40.264 -15.530   3.404  1.00  0.00     0.161 HD
ENDROOT
BRANCH   1  11
HETATM   11  C   UNL     1      40.036 -12.890   1.754  1.00  0.00     0.261 C 
HETATM   12  N   UNL     1      40.407 -13.186   0.455  1.00  0.00    -0.323 N 
HETATM   13  H   UNL     1      41.375 -13.465   0.334  1.00  0.00     0.169 HD
HETATM   14  O   UNL     1      38.900 -12.656   2.147  1.00  0.00    -0.267 OA
BRANCH  12  15
HETATM   15  C   UNL     1      39.572 -13.298  -0.675  1.00  0.00     0.035 A 
HETATM   16  C   UNL     1      38.801 -12.247  -1.180  1.00  0.00     0.039 A 
HETATM   17  C   UNL     1      37.961 -12.432  -2.294  1.00  0.00    -0.028 A 
HETATM   18  C   UNL     1      37.899 -13.698  -2.893  1.00  0.00     0.010 A 
HETATM   19  C   UNL     1      38.680 -14.746  -2.407  1.00  0.00     0.003 A 
HETATM   20  C   UNL     1      39.516 -14.544  -1.308  1.00  0.00     0.029 A 
BRANCH  17  21
HETATM   21  C   UNL     1      37.116 -11.281  -2.795  1.00  0.00     0.147 C 
HETATM   22  C   UNL     1      36.607 -10.410  -1.655  1.00  0.00     0.044 C 
BRANCH  21  23
HETATM   23  O   UNL     1      35.998 -11.765  -3.539  1.00  0.00    -0.391 OA
HETATM   24  H   UNL     1      35.255 -11.171  -3.341  1.00  0.00     0.210 HD
ENDBRANCH  21  23
ENDBRANCH  17  21
ENDBRANCH  12  15
ENDBRANCH   1  11
BRANCH   4  25
HETATM   25  C   UNL     1      43.574 -13.022   6.546  1.00  0.00     0.409 C 
HETATM   26  F   UNL     1      44.836 -12.571   6.398  1.00  0.00    -0.169 F 
HETATM   27  F   UNL     1      42.744 -11.956   6.605  1.00  0.00    -0.169 F 
HETATM   28  F   UNL     1      43.526 -13.612   7.772  1.00  0.00    -0.169 F 
ENDBRANCH   4  25
BRANCH   6  29
HETATM   29  C   UNL     1      42.465 -16.875   4.358  1.00  0.00    -0.035 A 
HETATM   30  C   UNL     1      42.315 -17.125   2.980  1.00  0.00     0.009 A 
HETATM   31  C   UNL     1      43.141 -18.035   2.315  1.00  0.00     0.001 A 
HETATM   32  C   UNL     1      44.140 -18.705   3.012  1.00  0.00     0.000 A 
HETATM   33  C   UNL     1      44.315 -18.465   4.371  1.00  0.00     0.001 A 
HETATM   34  C   UNL     1      43.487 -17.558   5.038  1.00  0.00     0.009 A 
ENDBRANCH   6  29
TORSDOF 6
ENDMDL
MODEL 3
REMARK VINA RESULT:      -9.4      1.723      2.144
REMARK  6 active torsions:
REMARK  status: ('A' for Active; 'I' for Inactive)
REMARK    1  A    between atoms: C_2  and  O_3 
REMARK    2  A    between atoms: C_2  and  C_4 
REMARK    3  A    between atoms: C_6  and  N_7 
REMARK       I    between atoms: N_7  and  C_8 
REMARK    4  A    between atoms: C_8  and  C_9 
REMARK    5  A    between atoms: C_12  and  C_13 
REMARK    6  A    between atoms: C_18  and  C_19 
ROOT
HETATM    1  C   UNL     1      42.344 -12.879   4.381  1.00  0.00     0.096 C 
HETATM    2  C   UNL     1      42.517 -13.948   3.519  1.00  0.00     0.138 C 
HETATM    3  N   UNL     1      41.265 -14.494   3.346  1.00  0.00    -0.240 N 
HETATM    4  C   UNL     1      40.983 -15.656   2.522  1.00  0.00     0.221 C 
HETATM    5  C   UNL     1      42.164 -15.928   1.572  1.00  0.00     0.066 C 
HETATM    6  C   UNL     1      43.508 -15.830   2.307  1.00  0.00     0.118 C 
HETATM    7  N   UNL     1      43.614 -14.497   2.923  1.00  0.00    -0.365 N 
HETATM    8  N   UNL     1      40.338 -13.972   4.163  1.00  0.00    -0.181 NA
HETATM    9  C   UNL     1      40.987 -12.975   4.770  1.00  0.00     0.160 C 
HETATM   10  H   UNL     1      44.527 -14.350   3.359  1.00  0.00     0.161 HD
ENDROOT
BRANCH   1  11
HETATM   11  C   UNL     1      43.303 -11.890   4.839  1.00  0.00     0.261 C 
HETATM   12  N   UNL     1      43.258 -11.676   6.204  1.00  0.00    -0.323 N 
HETATM   13  H   UNL     1      42.620 -12.277   6.715  1.00  0.00     0.169 HD
HETATM   14  O   UNL     1      44.086 -11.372   4.051  1.00  0.00    -0.267 OA
BRANCH  12  15
HETATM   15  C   UNL     1      44.097 -10.847   6.975  1.00  0.00     0.035 A 
HETATM   16  C   UNL     1      43.665  -9.681   7.614  1.00  0.00     0.039 A 
HETATM   17  C   UNL     1      44.561  -8.877   8.344  1.00  0.00    -0.028 A 
HETATM   18  C   UNL     1      45.908  -9.258   8.415  1.00  0.00     0.010 A 
HETATM   19  C   UNL     1      46.343 -10.428   7.797  1.00  0.00     0.003 A 
HETATM   20  C   UNL     1      45.440 -11.221   7.086  1.00  0.00     0.029 A 
BRANCH  17  21
HETATM   21  C   UNL     1      44.065  -7.605   8.997  1.00  0.00     0.147 C 
HETATM   22  C   UNL     1      43.278  -7.887  10.269  1.00  0.00     0.044 C 
BRANCH  21  23
HETATM   23  O   UNL     1      43.237  -6.868   8.097  1.00  0.00    -0.391 OA
HETATM   24  H   UNL     1      42.584  -7.496   7.745  1.00  0.00     0.210 HD
ENDBRANCH  21  23
ENDBRANCH  17  21
ENDBRANCH  12  15
ENDBRANCH   1  11
BRANCH   4  25
HETATM   25  C   UNL     1      39.718 -15.475   1.711  1.00  0.00     0.409 C 
HETATM   26  F   UNL     1      39.670 -14.314   1.028  1.00  0.00    -0.169 F 
HETATM   27  F   UNL     1      39.516 -16.490   0.841  1.00  0.00    -0.169 F 
HETATM   28  F   UNL     1      38.642 -15.466   2.546  1.00  0.00    -0.169 F 
ENDBRANCH   4  25
BRANCH   6  29
HETATM   29  C   UNL     1      43.734 -16.983   3.278  1.00  0.00    -0.035 A 
HETATM   30  C   UNL     1      43.776 -18.296   2.770  1.00  0.00     0.009 A 
HETATM   31  C   UNL     1      43.945 -19.394   3.616  1.00  0.00     0.001 A 
HETATM   32  C   UNL     1      44.086 -19.202   4.986  1.00  0.00     0.000 A 
HETATM   33  C   UNL     1      44.061 -17.913   5.509  1.00  0.00     0.001 A 
HETATM   34  C   UNL     1      43.889 -16.814   4.663  1.00  0.00     0.009 A 
ENDBRANCH   6  29
TORSDOF 6
ENDMDL
MODEL 4
REMARK VINA RESULT:      -9.3      4.653      8.048
REMARK  6 active torsions:
REMARK  status: ('A' for Active; 'I' for Inactive)
REMARK    1  A    between atoms: C_2  and  O_3 
REMARK    2  A    between atoms: C_2  and  C_4 
REMARK    3  A    between atoms: C_6  and  N_7 
REMARK       I    between atoms: N_7  and  C_8 
REMARK    4  A    between atoms: C_8  and  C_9 
REMARK    5  A    between atoms: C_12  and  C_13 
REMARK    6  A    between atoms: C_18  and  C_19 
ROOT
HETATM    1  C   UNL     1      41.578 -12.659   2.762  1.00  0.00     0.096 C 
HETATM    2  C   UNL     1      41.669 -13.586   3.785  1.00  0.00     0.138 C 
HETATM    3  N   UNL     1      42.781 -13.229   4.515  1.00  0.00    -0.240 N 
HETATM    4  C   UNL     1      43.261 -13.945   5.683  1.00  0.00     0.221 C 
HETATM    5  C   UNL     1      42.159 -14.877   6.221  1.00  0.00     0.066 C 
HETATM    6  C   UNL     1      41.477 -15.652   5.084  1.00  0.00     0.118 C 
HETATM    7  N   UNL     1      40.935 -14.688   4.112  1.00  0.00    -0.365 N 
HETATM    8  N   UNL     1      43.506 -12.257   3.940  1.00  0.00    -0.181 NA
HETATM    9  C   UNL     1      42.762 -11.894   2.892  1.00  0.00     0.160 C 
HETATM   10  H   UNL     1      40.400 -15.151   3.374  1.00  0.00     0.161 HD
ENDROOT
BRANCH   1  11
HETATM   11  C   UNL     1      40.554 -12.492   1.746  1.00  0.00     0.261 C 
HETATM   12  N   UNL     1      41.060 -12.464   0.459  1.00  0.00    -0.323 N 
HETATM   13  H   UNL     1      42.057 -12.629   0.383  1.00  0.00     0.169 HD
HETATM   14  O   UNL     1      39.370 -12.444   2.060  1.00  0.00    -0.267 OA
BRANCH  12  15
HETATM   15  C   UNL     1      40.338 -12.393  -0.749  1.00  0.00     0.035 A 
HETATM   16  C   UNL     1      39.580 -13.448  -1.266  1.00  0.00     0.039 A 
HETATM   17  C   UNL     1      38.907 -13.325  -2.496  1.00  0.00    -0.028 A 
HETATM   18  C   UNL     1      39.014 -12.123  -3.209  1.00  0.00     0.010 A 
HETATM   19  C   UNL     1      39.751 -11.059  -2.691  1.00  0.00     0.003 A 
HETATM   20  C   UNL     1      40.403 -11.193  -1.464  1.00  0.00     0.029 A 
BRANCH  17  21
HETATM   21  C   UNL     1      38.122 -14.499  -3.041  1.00  0.00     0.147 C 
HETATM   22  C   UNL     1      38.609 -15.824  -2.471  1.00  0.00     0.044 C 
BRANCH  21  23
HETATM   23  O   UNL     1      38.216 -14.547  -4.465  1.00  0.00    -0.391 OA
HETATM   24  H   UNL     1      38.694 -13.746  -4.738  1.00  0.00     0.210 HD
ENDBRANCH  21  23
ENDBRANCH  17  21
ENDBRANCH  12  15
ENDBRANCH   1  11
BRANCH   4  25
HETATM   25  C   UNL     1      43.699 -12.999   6.781  1.00  0.00     0.409 C 
HETATM   26  F   UNL     1      43.089 -11.797   6.740  1.00  0.00    -0.169 F 
HETATM   27  F   UNL     1      43.520 -13.526   8.013  1.00  0.00    -0.169 F 
HETATM   28  F   UNL     1      45.032 -12.750   6.660  1.00  0.00    -0.169 F 
ENDBRANCH   4  25
BRANCH   6  29
HETATM   29  C   UNL     1      42.383 -16.712   4.468  1.00  0.00    -0.035 A 
HETATM   30  C   UNL     1      43.243 -17.440   5.314  1.00  0.00     0.009 A 
HETATM   31  C   UNL     1      44.121 -18.398   4.801  1.00  0.00     0.001 A 
HETATM   32  C   UNL     1      44.149 -18.656   3.435  1.00  0.00     0.000 A 
HETATM   33  C   UNL     1      43.299 -17.959   2.583  1.00  0.00     0.001 A 
HETATM   34  C   UNL     1      42.423 -16.997   3.094  1.00  0.00     0.009 A 
ENDBRANCH   6  29
TORSDOF 6
ENDMDL
MODEL 5
REMARK VINA RESULT:      -9.2      4.825      7.998
REMARK  6 active torsions:
REMARK  status: ('A' for Active; 'I' for Inactive)
REMARK    1  A    between atoms: C_2  and  O_3 
REMARK    2  A    between atoms: C_2  and  C_4 
REMARK    3  A    between atoms: C_6  and  N_7 
REMARK       I    between atoms: N_7  and  C_8 
REMARK    4  A    between atoms: C_8  and  C_9 
REMARK    5  A    between atoms: C_12  and  C_13 
REMARK    6  A    between atoms: C_18  and  C_19 
ROOT
HETATM    1  C   UNL     1      41.171 -13.765   2.276  1.00  0.00     0.096 C 
HETATM    2  C   UNL     1      40.857 -12.936   1.214  1.00  0.00     0.138 C 
HETATM    3  N   UNL     1      39.733 -12.241   1.602  1.00  0.00    -0.240 N 
HETATM    4  C   UNL     1      39.047 -11.262   0.779  1.00  0.00     0.221 C 
HETATM    5  C   UNL     1      39.957 -10.817  -0.381  1.00  0.00     0.066 C 
HETATM    6  C   UNL     1      40.644 -12.019  -1.046  1.00  0.00     0.118 C 
HETATM    7  N   UNL     1      41.403 -12.757  -0.023  1.00  0.00    -0.365 N 
HETATM    8  N   UNL     1      39.202 -12.686   2.752  1.00  0.00    -0.181 NA
HETATM    9  C   UNL     1      40.090 -13.592   3.172  1.00  0.00     0.160 C 
HETATM   10  H   UNL     1      41.945 -13.523  -0.429  1.00  0.00     0.161 HD
ENDROOT
BRANCH   1  11
HETATM   11  C   UNL     1      42.306 -14.653   2.458  1.00  0.00     0.261 C 
HETATM   12  N   UNL     1      42.060 -15.678   3.353  1.00  0.00    -0.323 N 
HETATM   13  H   UNL     1      41.112 -15.721   3.711  1.00  0.00     0.169 HD
HETATM   14  O   UNL     1      43.333 -14.487   1.811  1.00  0.00    -0.267 OA
BRANCH  12  15
HETATM   15  C   UNL     1      42.914 -16.745   3.696  1.00  0.00     0.035 A 
HETATM   16  C   UNL     1      43.037 -17.916   2.943  1.00  0.00     0.039 A 
HETATM   17  C   UNL     1      43.884 -18.961   3.357  1.00  0.00    -0.028 A 
HETATM   18  C   UNL     1      44.604 -18.817   4.551  1.00  0.00     0.010 A 
HETATM   19  C   UNL     1      44.502 -17.645   5.298  1.00  0.00     0.003 A 
HETATM   20  C   UNL     1      43.665 -16.613   4.868  1.00  0.00     0.029 A 
BRANCH  17  21
HETATM   21  C   UNL     1      43.968 -20.228   2.533  1.00  0.00     0.147 C 
HETATM   22  C   UNL     1      42.786 -20.371   1.585  1.00  0.00     0.044 C 
BRANCH  21  23
HETATM   23  O   UNL     1      44.020 -21.376   3.381  1.00  0.00    -0.391 OA
HETATM   24  H   UNL     1      43.155 -21.813   3.309  1.00  0.00     0.210 HD
ENDBRANCH  21  23
ENDBRANCH  17  21
ENDBRANCH  12  15
ENDBRANCH   1  11
BRANCH   4  25
HETATM   25  C   UNL     1      38.627 -10.049   1.581  1.00  0.00     0.409 C 
HETATM   26  F   UNL     1      39.391  -9.825   2.670  1.00  0.00    -0.169 F 
HETATM   27  F   UNL     1      38.607  -8.922   0.835  1.00  0.00    -0.169 F 
HETATM   28  F   UNL     1      37.358 -10.226   2.041  1.00  0.00    -0.169 F 
ENDBRANCH   4  25
BRANCH   6  29
HETATM   29  C   UNL     1      39.675 -12.883  -1.844  1.00  0.00    -0.035 A 
HETATM   30  C   UNL     1      38.435 -12.333  -2.225  1.00  0.00     0.009 A 
HETATM   31  C   UNL     1      37.493 -13.089  -2.926  1.00  0.00     0.001 A 
HETATM   32  C   UNL     1      37.775 -14.407  -3.270  1.00  0.00     0.000 A 
HETATM   33  C   UNL     1      38.998 -14.967  -2.915  1.00  0.00     0.001 A 
HETATM   34  C   UNL     1      39.940 -14.212  -2.211  1.00  0.00     0.009 A 
ENDBRANCH   6  29
TORSDOF 6
ENDMDL
MODEL 6
REMARK VINA RESULT:      -8.8      3.519      8.309
REMARK  6 active torsions:
REMARK  status: ('A' for Active; 'I' for Inactive)
REMARK    1  A    between atoms: C_2  and  O_3 
REMARK    2  A    between atoms: C_2  and  C_4 
REMARK    3  A    between atoms: C_6  and  N_7 
REMARK       I    between atoms: N_7  and  C_8 
REMARK    4  A    between atoms: C_8  and  C_9 
REMARK    5  A    between atoms: C_12  and  C_13 
REMARK    6  A    between atoms: C_18  and  C_19 
ROOT
HETATM    1  C   UNL     1      41.794 -12.201   4.198  1.00  0.00     0.096 C 
HETATM    2  C   UNL     1      41.774 -11.290   5.238  1.00  0.00     0.138 C 
HETATM    3  N   UNL     1      41.774 -10.046   4.645  1.00  0.00    -0.240 N 
HETATM    4  C   UNL     1      41.771  -8.789   5.372  1.00  0.00     0.221 C 
HETATM    5  C   UNL     1      41.358  -9.028   6.836  1.00  0.00     0.066 C 
HETATM    6  C   UNL     1      42.081 -10.245   7.431  1.00  0.00     0.118 C 
HETATM    7  N   UNL     1      41.793 -11.422   6.595  1.00  0.00    -0.365 N 
HETATM    8  N   UNL     1      41.971 -10.089   3.319  1.00  0.00    -0.181 NA
HETATM    9  C   UNL     1      41.956 -11.397   3.045  1.00  0.00     0.160 C 
HETATM   10  H   UNL     1      42.186 -12.278   6.993  1.00  0.00     0.161 HD
ENDROOT
BRANCH   1  11
HETATM   11  C   UNL     1      41.712 -13.651   4.231  1.00  0.00     0.261 C 
HETATM   12  N   UNL     1      42.716 -14.272   3.510  1.00  0.00    -0.323 N 
HETATM   13  H   UNL     1      43.412 -13.649   3.114  1.00  0.00     0.169 HD
HETATM   14  O   UNL     1      40.846 -14.209   4.895  1.00  0.00    -0.267 OA
BRANCH  12  15
HETATM   15  C   UNL     1      42.969 -15.653   3.401  1.00  0.00     0.035 A 
HETATM   16  C   UNL     1      43.369 -16.459   4.471  1.00  0.00     0.039 A 
HETATM   17  C   UNL     1      43.639 -17.828   4.289  1.00  0.00    -0.028 A 
HETATM   18  C   UNL     1      43.509 -18.380   3.007  1.00  0.00     0.010 A 
HETATM   19  C   UNL     1      43.092 -17.588   1.938  1.00  0.00     0.003 A 
HETATM   20  C   UNL     1      42.818 -16.234   2.137  1.00  0.00     0.029 A 
BRANCH  17  21
HETATM   21  C   UNL     1      44.101 -18.664   5.464  1.00  0.00     0.147 C 
HETATM   22  C   UNL     1      44.065 -20.153   5.152  1.00  0.00     0.044 C 
BRANCH  21  23
HETATM   23  O   UNL     1      43.286 -18.413   6.609  1.00  0.00    -0.391 OA
HETATM   24  H   UNL     1      42.803 -19.237   6.791  1.00  0.00     0.210 HD
ENDBRANCH  21  23
ENDBRANCH  17  21
ENDBRANCH  12  15
ENDBRANCH   1  11
BRANCH   4  25
HETATM   25  C   UNL     1      40.833  -7.781   4.744  1.00  0.00     0.409 C 
HETATM   26  F   UNL     1      41.382  -7.085   3.728  1.00  0.00    -0.169 F 
HETATM   27  F   UNL     1      39.689  -8.350   4.302  1.00  0.00    -0.169 F 
HETATM   28  F   UNL     1      40.467  -6.860   5.677  1.00  0.00    -0.169 F 
ENDBRANCH   4  25
BRANCH   6  29
HETATM   29  C   UNL     1      43.567  -9.994   7.658  1.00  0.00    -0.035 A 
HETATM   30  C   UNL     1      43.960  -8.817   8.324  1.00  0.00     0.009 A 
HETATM   31  C   UNL     1      45.308  -8.516   8.529  1.00  0.00     0.001 A 
HETATM   32  C   UNL     1      46.292  -9.391   8.081  1.00  0.00     0.000 A 
HETATM   33  C   UNL     1      45.928 -10.566   7.431  1.00  0.00     0.001 A 
HETATM   34  C   UNL     1      44.578 -10.866   7.223  1.00  0.00     0.009 A 
ENDBRANCH   6  29
TORSDOF 6
ENDMDL
MODEL 7
REMARK VINA RESULT:      -8.7      4.259      8.384
REMARK  6 active torsions:
REMARK  status: ('A' for Active; 'I' for Inactive)
REMARK    1  A    between atoms: C_2  and  O_3 
REMARK    2  A    between atoms: C_2  and  C_4 
REMARK    3  A    between atoms: C_6  and  N_7 
REMARK       I    between atoms: N_7  and  C_8 
REMARK    4  A    between atoms: C_8  and  C_9 
REMARK    5  A    between atoms: C_12  and  C_13 
REMARK    6  A    between atoms: C_18  and  C_19 
ROOT
HETATM    1  C   UNL     1      40.407 -14.411   1.364  1.00  0.00     0.096 C 
HETATM    2  C   UNL     1      39.508 -13.381   1.574  1.00  0.00     0.138 C 
HETATM    3  N   UNL     1      39.403 -12.725   0.368  1.00  0.00    -0.240 N 
HETATM    4  C   UNL     1      38.569 -11.559   0.136  1.00  0.00     0.221 C 
HETATM    5  C   UNL     1      37.536 -11.416   1.269  1.00  0.00     0.066 C 
HETATM    6  C   UNL     1      38.183 -11.623   2.646  1.00  0.00     0.118 C 
HETATM    7  N   UNL     1      38.826 -12.947   2.673  1.00  0.00    -0.365 N 
HETATM    8  N   UNL     1      40.293 -13.142  -0.545  1.00  0.00    -0.181 NA
HETATM    9  C   UNL     1      40.883 -14.182   0.051  1.00  0.00     0.160 C 
HETATM   10  H   UNL     1      39.205 -13.169   3.597  1.00  0.00     0.161 HD
ENDROOT
BRANCH   1  11
HETATM   11  C   UNL     1      40.827 -15.475   2.259  1.00  0.00     0.261 C 
HETATM   12  N   UNL     1      42.169 -15.787   2.144  1.00  0.00    -0.323 N 
HETATM   13  H   UNL     1      42.698 -15.197   1.510  1.00  0.00     0.169 HD
HETATM   14  O   UNL     1      40.034 -15.968   3.052  1.00  0.00    -0.267 OA
BRANCH  12  15
HETATM   15  C   UNL     1      42.908 -16.709   2.912  1.00  0.00     0.035 A 
HETATM   16  C   UNL     1      43.205 -18.010   2.493  1.00  0.00     0.039 A 
HETATM   17  C   UNL     1      43.920 -18.895   3.321  1.00  0.00    -0.028 A 
HETATM   18  C   UNL     1      44.329 -18.456   4.588  1.00  0.00     0.010 A 
HETATM   19  C   UNL     1      44.054 -17.155   5.006  1.00  0.00     0.003 A 
HETATM   20  C   UNL     1      43.353 -16.285   4.168  1.00  0.00     0.029 A 
BRANCH  17  21
HETATM   21  C   UNL     1      44.196 -20.306   2.849  1.00  0.00     0.147 C 
HETATM   22  C   UNL     1      43.416 -20.647   1.587  1.00  0.00     0.044 C 
BRANCH  21  23
HETATM   23  O   UNL     1      43.862 -21.250   3.866  1.00  0.00    -0.391 OA
HETATM   24  H   UNL     1      43.591 -22.065   3.410  1.00  0.00     0.210 HD
ENDBRANCH  21  23
ENDBRANCH  17  21
ENDBRANCH  12  15
ENDBRANCH   1  11
BRANCH   4  25
HETATM   25  C   UNL     1      37.849 -11.639  -1.192  1.00  0.00     0.409 C 
HETATM   26  F   UNL     1      38.581 -11.202  -2.237  1.00  0.00    -0.169 F 
HETATM   27  F   UNL     1      37.419 -12.892  -1.468  1.00  0.00    -0.169 F 
HETATM   28  F   UNL     1      36.738 -10.853  -1.155  1.00  0.00    -0.169 F 
ENDBRANCH   4  25
BRANCH   6  29
HETATM   29  C   UNL     1      39.106 -10.476   3.042  1.00  0.00    -0.035 A 
HETATM   30  C   UNL     1      38.680  -9.155   2.806  1.00  0.00     0.009 A 
HETATM   31  C   UNL     1      39.497  -8.065   3.115  1.00  0.00     0.001 A 
HETATM   32  C   UNL     1      40.753  -8.274   3.676  1.00  0.00     0.000 A 
HETATM   33  C   UNL     1      41.189  -9.570   3.929  1.00  0.00     0.001 A 
HETATM   34  C   UNL     1      40.373 -10.661   3.617  1.00  0.00     0.009 A 
ENDBRANCH   6  29
TORSDOF 6
ENDMDL
MODEL 8
REMARK VINA RESULT:      -8.5     15.574     16.990
REMARK  6 active torsions:
REMARK  status: ('A' for Active; 'I' for Inactive)
REMARK    1  A    between atoms: C_2  and  O_3 
REMARK    2  A    between atoms: C_2  and  C_4 
REMARK    3  A    between atoms: C_6  and  N_7 
REMARK       I    between atoms: N_7  and  C_8 
REMARK    4  A    between atoms: C_8  and  C_9 
REMARK    5  A    between atoms: C_12  and  C_13 
REMARK    6  A    between atoms: C_18  and  C_19 
ROOT
HETATM    1  C   UNL     1      43.691 -30.285   0.624  1.00  0.00     0.096 C 
HETATM    2  C   UNL     1      44.632 -29.519  -0.040  1.00  0.00     0.138 C 
HETATM    3  N   UNL     1      44.679 -30.017  -1.324  1.00  0.00    -0.240 N 
HETATM    4  C   UNL     1      45.553 -29.513  -2.369  1.00  0.00     0.221 C 
HETATM    5  C   UNL     1      46.095 -28.126  -1.979  1.00  0.00     0.066 C 
HETATM    6  C   UNL     1      46.568 -28.099  -0.519  1.00  0.00     0.118 C 
HETATM    7  N   UNL     1      45.448 -28.498   0.349  1.00  0.00    -0.365 N 
HETATM    8  N   UNL     1      43.976 -31.148  -1.483  1.00  0.00    -0.181 NA
HETATM    9  C   UNL     1      43.356 -31.294  -0.309  1.00  0.00     0.160 C 
HETATM   10  H   UNL     1      45.686 -28.420   1.341  1.00  0.00     0.161 HD
ENDROOT
BRANCH   1  11
HETATM   11  C   UNL     1      43.166 -30.150   1.972  1.00  0.00     0.261 C 
HETATM   12  N   UNL     1      42.413 -31.236   2.376  1.00  0.00    -0.323 N 
HETATM   13  H   UNL     1      42.379 -32.008   1.719  1.00  0.00     0.169 HD
HETATM   14  O   UNL     1      43.447 -29.170   2.652  1.00  0.00    -0.267 OA
BRANCH  12  15
HETATM   15  C   UNL     1      41.830 -31.458   3.640  1.00  0.00     0.035 A 
HETATM   16  C   UNL     1      42.560 -31.552   4.828  1.00  0.00     0.039 A 
HETATM   17  C   UNL     1      41.921 -31.807   6.056  1.00  0.00    -0.028 A 
HETATM   18  C   UNL     1      40.529 -31.977   6.072  1.00  0.00     0.010 A 
HETATM   19  C   UNL     1      39.792 -31.867   4.895  1.00  0.00     0.003 A 
HETATM   20  C   UNL     1      40.439 -31.602   3.687  1.00  0.00     0.029 A 
BRANCH  17  21
HETATM   21  C   UNL     1      42.746 -31.933   7.319  1.00  0.00     0.147 C 
HETATM   22  C   UNL     1      42.238 -33.049   8.221  1.00  0.00     0.044 C 
BRANCH  21  23
HETATM   23  O   UNL     1      42.735 -30.708   8.050  1.00  0.00    -0.391 OA
HETATM   24  H   UNL     1      43.632 -30.338   7.986  1.00  0.00     0.210 HD
ENDBRANCH  21  23
ENDBRANCH  17  21
ENDBRANCH  12  15
ENDBRANCH   1  11
BRANCH   4  25
HETATM   25  C   UNL     1      44.838 -29.417  -3.699  1.00  0.00     0.409 C 
HETATM   26  F   UNL     1      45.004 -30.499  -4.487  1.00  0.00    -0.169 F 
HETATM   27  F   UNL     1      43.512 -29.195  -3.554  1.00  0.00    -0.169 F 
HETATM   28  F   UNL     1      45.329 -28.359  -4.403  1.00  0.00    -0.169 F 
ENDBRANCH   4  25
BRANCH   6  29
HETATM   29  C   UNL     1      47.843 -28.906  -0.297  1.00  0.00    -0.035 A 
HETATM   30  C   UNL     1      48.145 -29.346   1.006  1.00  0.00     0.009 A 
HETATM   31  C   UNL     1      49.316 -30.058   1.276  1.00  0.00     0.001 A 
HETATM   32  C   UNL     1      50.203 -30.354   0.246  1.00  0.00     0.000 A 
HETATM   33  C   UNL     1      49.919 -29.940  -1.051  1.00  0.00     0.001 A 
HETATM   34  C   UNL     1      48.749 -29.225  -1.321  1.00  0.00     0.009 A 
ENDBRANCH   6  29
TORSDOF 6
ENDMDL
MODEL 9
REMARK VINA RESULT:      -8.5      2.443      3.355
REMARK  6 active torsions:
REMARK  status: ('A' for Active; 'I' for Inactive)
REMARK    1  A    between atoms: C_2  and  O_3 
REMARK    2  A    between atoms: C_2  and  C_4 
REMARK    3  A    between atoms: C_6  and  N_7 
REMARK       I    between atoms: N_7  and  C_8 
REMARK    4  A    between atoms: C_8  and  C_9 
REMARK    5  A    between atoms: C_12  and  C_13 
REMARK    6  A    between atoms: C_18  and  C_19 
ROOT
HETATM    1  C   UNL     1      41.580 -11.806   5.610  1.00  0.00     0.096 C 
HETATM    2  C   UNL     1      41.909 -12.370   4.392  1.00  0.00     0.138 C 
HETATM    3  N   UNL     1      40.711 -12.692   3.793  1.00  0.00    -0.240 N 
HETATM    4  C   UNL     1      40.586 -13.326   2.492  1.00  0.00     0.221 C 
HETATM    5  C   UNL     1      41.914 -13.212   1.721  1.00  0.00     0.066 C 
HETATM    6  C   UNL     1      43.113 -13.551   2.617  1.00  0.00     0.118 C 
HETATM    7  N   UNL     1      43.097 -12.659   3.787  1.00  0.00    -0.365 N 
HETATM    8  N   UNL     1      39.653 -12.540   4.604  1.00  0.00    -0.181 NA
HETATM    9  C   UNL     1      40.178 -11.978   5.696  1.00  0.00     0.160 C 
HETATM   10  H   UNL     1      43.922 -12.789   4.378  1.00  0.00     0.161 HD
ENDROOT
BRANCH   1  11
HETATM   11  C   UNL     1      42.436 -11.202   6.617  1.00  0.00     0.261 C 
HETATM   12  N   UNL     1      41.848 -10.130   7.262  1.00  0.00    -0.323 N 
HETATM   13  H   UNL     1      40.884  -9.946   7.005  1.00  0.00     0.169 HD
HETATM   14  O   UNL     1      43.538 -11.679   6.861  1.00  0.00    -0.267 OA
BRANCH  12  15
HETATM   15  C   UNL     1      42.370  -9.377   8.333  1.00  0.00     0.035 A 
HETATM   16  C   UNL     1      42.096  -9.642   9.678  1.00  0.00     0.039 A 
HETATM   17  C   UNL     1      42.623  -8.832  10.700  1.00  0.00    -0.028 A 
HETATM   18  C   UNL     1      43.428  -7.738  10.351  1.00  0.00     0.010 A 
HETATM   19  C   UNL     1      43.722  -7.478   9.014  1.00  0.00     0.003 A 
HETATM   20  C   UNL     1      43.200  -8.298   8.012  1.00  0.00     0.029 A 
BRANCH  17  21
HETATM   21  C   UNL     1      42.280  -9.130  12.145  1.00  0.00     0.147 C 
HETATM   22  C   UNL     1      43.135  -8.323  13.111  1.00  0.00     0.044 C 
BRANCH  21  23
HETATM   23  O   UNL     1      42.453 -10.518  12.426  1.00  0.00    -0.391 OA
HETATM   24  H   UNL     1      41.733 -10.985  11.968  1.00  0.00     0.210 HD
ENDBRANCH  21  23
ENDBRANCH  17  21
ENDBRANCH  12  15
ENDBRANCH   1  11
BRANCH   4  25
HETATM   25  C   UNL     1      39.474 -12.710   1.672  1.00  0.00     0.409 C 
HETATM   26  F   UNL     1      38.256 -12.811   2.241  1.00  0.00    -0.169 F 
HETATM   27  F   UNL     1      39.705 -11.407   1.390  1.00  0.00    -0.169 F 
HETATM   28  F   UNL     1      39.385 -13.351   0.474  1.00  0.00    -0.169 F 
ENDBRANCH   4  25
BRANCH   6  29
HETATM   29  C   UNL     1      43.187 -15.033   2.967  1.00  0.00    -0.035 A 
HETATM   30  C   UNL     1      43.204 -15.975   1.919  1.00  0.00     0.009 A 
HETATM   31  C   UNL     1      43.234 -17.347   2.180  1.00  0.00     0.001 A 
HETATM   32  C   UNL     1      43.260 -17.805   3.493  1.00  0.00     0.000 A 
HETATM   33  C   UNL     1      43.257 -16.893   4.543  1.00  0.00     0.001 A 
HETATM   34  C   UNL     1      43.223 -15.520   4.283  1.00  0.00     0.009 A 
ENDBRANCH   6  29
TORSDOF 6
ENDMDL
MODEL 10
REMARK VINA RESULT:      -8.3      4.742      7.524
REMARK  6 active torsions:
REMARK  status: ('A' for Active; 'I' for Inactive)
REMARK    1  A    between atoms: C_2  and  O_3 
REMARK    2  A    between atoms: C_2  and  C_4 
REMARK    3  A    between atoms: C_6  and  N_7 
REMARK       I    between atoms: N_7  and  C_8 
REMARK    4  A    between atoms: C_8  and  C_9 
REMARK    5  A    between atoms: C_12  and  C_13 
REMARK    6  A    between atoms: C_18  and  C_19 
ROOT
HETATM    1  C   UNL     1      40.644 -13.051   2.597  1.00  0.00     0.096 C 
HETATM    2  C   UNL     1      40.463 -12.348   1.420  1.00  0.00     0.138 C 
HETATM    3  N   UNL     1      39.316 -11.607   1.599  1.00  0.00    -0.240 N 
HETATM    4  C   UNL     1      38.742 -10.725   0.598  1.00  0.00     0.221 C 
HETATM    5  C   UNL     1      39.783 -10.423  -0.497  1.00  0.00     0.066 C 
HETATM    6  C   UNL     1      40.516 -11.697  -0.940  1.00  0.00     0.118 C 
HETATM    7  N   UNL     1      41.145 -12.316   0.239  1.00  0.00    -0.365 N 
HETATM    8  N   UNL     1      38.655 -11.913   2.726  1.00  0.00    -0.181 NA
HETATM    9  C   UNL     1      39.475 -12.768   3.343  1.00  0.00     0.160 C 
HETATM   10  H   UNL     1      41.714 -13.126  -0.014  1.00  0.00     0.161 HD
ENDROOT
BRANCH   1  11
HETATM   11  C   UNL     1      41.736 -13.917   3.005  1.00  0.00     0.261 C 
HETATM   12  N   UNL     1      41.367 -15.245   3.118  1.00  0.00    -0.323 N 
HETATM   13  H   UNL     1      40.414 -15.454   2.841  1.00  0.00     0.169 HD
HETATM   14  O   UNL     1      42.863 -13.463   3.162  1.00  0.00    -0.267 OA
BRANCH  12  15
HETATM   15  C   UNL     1      42.193 -16.346   3.416  1.00  0.00     0.035 A 
HETATM   16  C   UNL     1      42.513 -16.751   4.716  1.00  0.00     0.039 A 
HETATM   17  C   UNL     1      43.372 -17.842   4.947  1.00  0.00    -0.028 A 
HETATM   18  C   UNL     1      43.916 -18.520   3.848  1.00  0.00     0.010 A 
HETATM   19  C   UNL     1      43.588 -18.136   2.549  1.00  0.00     0.003 A 
HETATM   20  C   UNL     1      42.725 -17.058   2.336  1.00  0.00     0.029 A 
BRANCH  17  21
HETATM   21  C   UNL     1      43.722 -18.232   6.367  1.00  0.00     0.147 C 
HETATM   22  C   UNL     1      43.394 -19.691   6.654  1.00  0.00     0.044 C 
BRANCH  21  23
HETATM   23  O   UNL     1      43.022 -17.410   7.301  1.00  0.00    -0.391 OA
HETATM   24  H   UNL     1      42.429 -16.842   6.780  1.00  0.00     0.210 HD
ENDBRANCH  21  23
ENDBRANCH  17  21
ENDBRANCH  12  15
ENDBRANCH   1  11
BRANCH   4  25
HETATM   25  C   UNL     1      38.260  -9.426   1.205  1.00  0.00     0.409 C 
HETATM   26  F   UNL     1      36.999  -9.480   1.679  1.00  0.00    -0.169 F 
HETATM   27  F   UNL     1      39.070  -8.991   2.197  1.00  0.00    -0.169 F 
HETATM   28  F   UNL     1      38.263  -8.452   0.254  1.00  0.00    -0.169 F 
ENDBRANCH   4  25
BRANCH   6  29
HETATM   29  C   UNL     1      39.624 -12.643  -1.736  1.00  0.00    -0.035 A 
HETATM   30  C   UNL     1      38.420 -12.145  -2.271  1.00  0.00     0.009 A 
HETATM   31  C   UNL     1      37.546 -12.974  -2.979  1.00  0.00     0.001 A 
HETATM   32  C   UNL     1      37.863 -14.314  -3.176  1.00  0.00     0.000 A 
HETATM   33  C   UNL     1      39.053 -14.823  -2.668  1.00  0.00     0.001 A 
HETATM   34  C   UNL     1      39.927 -13.996  -1.956  1.00  0.00     0.009 A 
ENDBRANCH   6  29
TORSDOF 6
ENDMDL
