MODEL 1
REMARK VINA RESULT:     -10.1      0.000      0.000
REMARK  8 active torsions:
REMARK  status: ('A' for Active; 'I' for Inactive)
REMARK    1  A    between atoms: O_2  and  C_3 
REMARK    2  A    between atoms: C_6  and  N_7 
REMARK    3  A    between atoms: N_7  and  C_8 
REMARK    4  A    between atoms: C_12  and  C_13 
REMARK       I    between atoms: C_13  and  N_14 
REMARK    5  A    between atoms: N_14  and  C_15 
REMARK    6  A    between atoms: C_15  and  C_16 
REMARK    7  A    between atoms: C_16  and  N_17 
REMARK    8  A    between atoms: N_21  and  C_22 
ROOT
HETATM    1  C   UNL     1      40.852 -15.492   2.407  1.00  0.00     0.129 A 
HETATM    2  N   UNL     1      41.383 -16.676   2.054  1.00  0.00    -0.231 NA
HETATM    3  C   UNL     1      42.353 -17.235   2.791  1.00  0.00     0.070 A 
HETATM    4  C   UNL     1      42.834 -16.664   3.983  1.00  0.00     0.009 A 
HETATM    5  C   UNL     1      42.203 -15.464   4.382  1.00  0.00     0.048 A 
HETATM    6  C   UNL     1      41.249 -14.852   3.566  1.00  0.00     0.068 A 
HETATM    7  C   UNL     1      42.901 -18.430   2.347  1.00  0.00     0.032 A 
HETATM    8  C   UNL     1      43.931 -19.073   3.035  1.00  0.00     0.002 A 
HETATM    9  C   UNL     1      44.441 -18.504   4.192  1.00  0.00     0.001 A 
HETATM   10  C   UNL     1      43.903 -17.307   4.663  1.00  0.00     0.015 A 
ENDROOT
BRANCH   5  11
HETATM   11  C   UNL     1      42.438 -14.809   5.693  1.00  0.00     0.252 C 
HETATM   12  N   UNL     1      43.420 -13.843   5.730  1.00  0.00    -0.355 N 
HETATM   13  H   UNL     1      43.863 -13.606   4.845  1.00  0.00     0.162 HD
HETATM   14  O   UNL     1      41.897 -15.223   6.715  1.00  0.00    -0.268 OA
BRANCH  12  15
HETATM   15  C   UNL     1      43.660 -12.913   6.833  1.00  0.00     0.150 C 
BRANCH  15  16
HETATM   16  C   UNL     1      44.793 -11.869   6.708  1.00  0.00     0.254 C 
BRANCH  16  17
HETATM   17  N   UNL     1      44.529 -10.596   7.468  1.00  0.00    -0.067 N 
HETATM   18  H   UNL     1      44.897  -9.856   6.837  1.00  0.00     0.280 HD
HETATM   19  C   UNL     1      43.068 -10.296   7.757  1.00  0.00     0.254 C 
HETATM   20  C   UNL     1      42.928  -8.910   8.420  1.00  0.00     0.150 C 
HETATM   21  N   UNL     1      43.777  -8.801   9.618  1.00  0.00    -0.378 N 
HETATM   22  C   UNL     1      45.207  -9.100   9.386  1.00  0.00     0.150 C 
HETATM   23  C   UNL     1      45.375 -10.491   8.733  1.00  0.00     0.254 C 
BRANCH  21  24
HETATM   24  C   UNL     1      43.258  -8.978  10.897  1.00  0.00     0.031 A 
HETATM   25  C   UNL     1      43.524  -8.036  11.906  1.00  0.00     0.053 A 
HETATM   26  C   UNL     1      42.995  -8.168  13.194  1.00  0.00     0.036 A 
HETATM   27 CL   UNL     1      43.350  -6.978  14.385  1.00  0.00    -0.084 Cl
HETATM   28  C   UNL     1      42.180  -9.243  13.514  1.00  0.00     0.024 A 
HETATM   29  C   UNL     1      41.888 -10.186  12.535  1.00  0.00     0.004 A 
HETATM   30  C   UNL     1      42.417 -10.047  11.244  1.00  0.00     0.029 A 
ENDBRANCH  21  24
ENDBRANCH  16  17
ENDBRANCH  15  16
ENDBRANCH  12  15
ENDBRANCH   5  11
BRANCH   1  31
HETATM   31  N   UNL     1      39.857 -14.874   1.619  1.00  0.00    -0.341 N 
HETATM   32  H   UNL     1      39.144 -14.468   2.217  1.00  0.00     0.167 HD
BRANCH  31  33
HETATM   33  C   UNL     1      40.035 -14.131   0.432  1.00  0.00     0.033 A 
HETATM   34  C   UNL     1      40.706 -12.905   0.408  1.00  0.00     0.032 A 
HETATM   35  C   UNL     1      40.958 -12.244  -0.798  1.00  0.00     0.039 A 
HETATM   36  C   UNL     1      40.561 -12.804  -2.013  1.00  0.00     0.068 A 
HETATM   37  C   UNL     1      39.903 -14.031  -2.007  1.00  0.00     0.039 A 
HETATM   38  C   UNL     1      39.655 -14.693  -0.797  1.00  0.00     0.032 A 
BRANCH  36  39
HETATM   39  O   UNL     1      40.881 -12.063  -3.115  1.00  0.00    -0.356 OA
HETATM   40  C   UNL     1      40.348 -10.747  -3.183  1.00  0.00     0.210 C 
ENDBRANCH  36  39
ENDBRANCH  31  33
ENDBRANCH   1  31
TORSDOF 8
ENDMDL
MODEL 2
REMARK VINA RESULT:      -9.7      4.646     11.309
REMARK  8 active torsions:
REMARK  status: ('A' for Active; 'I' for Inactive)
REMARK    1  A    between atoms: O_2  and  C_3 
REMARK    2  A    between atoms: C_6  and  N_7 
REMARK    3  A    between atoms: N_7  and  C_8 
REMARK    4  A    between atoms: C_12  and  C_13 
REMARK       I    between atoms: C_13  and  N_14 
REMARK    5  A    between atoms: N_14  and  C_15 
REMARK    6  A    between atoms: C_15  and  C_16 
REMARK    7  A    between atoms: C_16  and  N_17 
REMARK    8  A    between atoms: N_21  and  C_22 
ROOT
HETATM    1  C   UNL     1      42.996  -8.011   9.437  1.00  0.00     0.129 A 
HETATM    2  N   UNL     1      44.301  -8.306   9.305  1.00  0.00    -0.231 NA
HETATM    3  C   UNL     1      44.706  -9.232   8.425  1.00  0.00     0.070 A 
HETATM    4  C   UNL     1      43.822  -9.905   7.561  1.00  0.00     0.009 A 
HETATM    5  C   UNL     1      42.466  -9.517   7.654  1.00  0.00     0.048 A 
HETATM    6  C   UNL     1      42.047  -8.609   8.629  1.00  0.00     0.068 A 
HETATM    7  C   UNL     1      46.060  -9.533   8.374  1.00  0.00     0.032 A 
HETATM    8  C   UNL     1      46.569 -10.500   7.506  1.00  0.00     0.002 A 
HETATM    9  C   UNL     1      45.707 -11.198   6.674  1.00  0.00     0.001 A 
HETATM   10  C   UNL     1      44.343 -10.909   6.702  1.00  0.00     0.015 A 
ENDROOT
BRANCH   5  11
HETATM   11  C   UNL     1      41.416  -9.973   6.710  1.00  0.00     0.252 C 
HETATM   12  N   UNL     1      40.785 -11.159   7.018  1.00  0.00    -0.355 N 
HETATM   13  H   UNL     1      41.040 -11.598   7.900  1.00  0.00     0.162 HD
HETATM   14  O   UNL     1      41.238  -9.404   5.637  1.00  0.00    -0.268 OA
BRANCH  12  15
HETATM   15  C   UNL     1      39.576 -11.673   6.375  1.00  0.00     0.150 C 
BRANCH  15  16
HETATM   16  C   UNL     1      39.636 -13.023   5.624  1.00  0.00     0.254 C 
BRANCH  16  17
HETATM   17  N   UNL     1      40.809 -13.882   6.017  1.00  0.00    -0.067 N 
HETATM   18  H   UNL     1      41.149 -13.442   6.895  1.00  0.00     0.280 HD
HETATM   19  C   UNL     1      40.489 -15.339   6.304  1.00  0.00     0.254 C 
HETATM   20  C   UNL     1      41.745 -16.072   6.818  1.00  0.00     0.150 C 
HETATM   21  N   UNL     1      42.875 -15.912   5.887  1.00  0.00    -0.378 N 
HETATM   22  C   UNL     1      43.214 -14.509   5.567  1.00  0.00     0.150 C 
HETATM   23  C   UNL     1      41.972 -13.755   5.037  1.00  0.00     0.254 C 
BRANCH  21  24
HETATM   24  C   UNL     1      43.210 -16.904   4.970  1.00  0.00     0.031 A 
HETATM   25  C   UNL     1      43.685 -18.150   5.416  1.00  0.00     0.053 A 
HETATM   26  C   UNL     1      44.003 -19.178   4.523  1.00  0.00     0.036 A 
HETATM   27 CL   UNL     1      44.574 -20.684   5.128  1.00  0.00    -0.084 Cl
HETATM   28  C   UNL     1      43.852 -18.997   3.156  1.00  0.00     0.024 A 
HETATM   29  C   UNL     1      43.371 -17.781   2.684  1.00  0.00     0.004 A 
HETATM   30  C   UNL     1      43.050 -16.754   3.583  1.00  0.00     0.029 A 
ENDBRANCH  21  24
ENDBRANCH  16  17
ENDBRANCH  15  16
ENDBRANCH  12  15
ENDBRANCH   5  11
BRANCH   1  31
HETATM   31  N   UNL     1      42.553  -7.065  10.386  1.00  0.00    -0.341 N 
HETATM   32  H   UNL     1      41.972  -6.366   9.935  1.00  0.00     0.167 HD
BRANCH  31  33
HETATM   33  C   UNL     1      42.149  -7.304  11.718  1.00  0.00     0.033 A 
HETATM   34  C   UNL     1      40.808  -7.281  12.111  1.00  0.00     0.032 A 
HETATM   35  C   UNL     1      40.432  -7.625  13.413  1.00  0.00     0.039 A 
HETATM   36  C   UNL     1      41.388  -8.020  14.349  1.00  0.00     0.068 A 
HETATM   37  C   UNL     1      42.728  -8.061  13.969  1.00  0.00     0.039 A 
HETATM   38  C   UNL     1      43.101  -7.719  12.662  1.00  0.00     0.032 A 
BRANCH  36  39
HETATM   39  O   UNL     1      40.886  -8.343  15.577  1.00  0.00    -0.356 OA
HETATM   40  C   UNL     1      41.281  -7.525  16.670  1.00  0.00     0.210 C 
ENDBRANCH  36  39
ENDBRANCH  31  33
ENDBRANCH   1  31
TORSDOF 8
ENDMDL
MODEL 3
REMARK VINA RESULT:      -9.4      1.801      2.025
REMARK  8 active torsions:
REMARK  status: ('A' for Active; 'I' for Inactive)
REMARK    1  A    between atoms: O_2  and  C_3 
REMARK    2  A    between atoms: C_6  and  N_7 
REMARK    3  A    between atoms: N_7  and  C_8 
REMARK    4  A    between atoms: C_12  and  C_13 
REMARK       I    between atoms: C_13  and  N_14 
REMARK    5  A    between atoms: N_14  and  C_15 
REMARK    6  A    between atoms: C_15  and  C_16 
REMARK    7  A    between atoms: C_16  and  N_17 
REMARK    8  A    between atoms: N_21  and  C_22 
ROOT
HETATM    1  C   UNL     1      42.504 -14.654   1.889  1.00  0.00     0.129 A 
HETATM    2  N   UNL     1      42.794 -15.962   1.776  1.00  0.00    -0.231 NA
HETATM    3  C   UNL     1      43.174 -16.672   2.847  1.00  0.00     0.070 A 
HETATM    4  C   UNL     1      43.242 -16.126   4.142  1.00  0.00     0.009 A 
HETATM    5  C   UNL     1      42.848 -14.773   4.255  1.00  0.00     0.048 A 
HETATM    6  C   UNL     1      42.531 -14.024   3.120  1.00  0.00     0.068 A 
HETATM    7  C   UNL     1      43.515 -18.004   2.658  1.00  0.00     0.032 A 
HETATM    8  C   UNL     1      43.944 -18.814   3.710  1.00  0.00     0.002 A 
HETATM    9  C   UNL     1      44.051 -18.281   4.985  1.00  0.00     0.001 A 
HETATM   10  C   UNL     1      43.709 -16.947   5.203  1.00  0.00     0.015 A 
ENDROOT
BRANCH   5  11
HETATM   11  C   UNL     1      42.675 -14.074   5.552  1.00  0.00     0.252 C 
HETATM   12  N   UNL     1      43.783 -13.426   6.053  1.00  0.00    -0.355 N 
HETATM   13  H   UNL     1      44.615 -13.420   5.467  1.00  0.00     0.162 HD
HETATM   14  O   UNL     1      41.648 -14.206   6.211  1.00  0.00    -0.268 OA
BRANCH  12  15
HETATM   15  C   UNL     1      43.787 -12.487   7.175  1.00  0.00     0.150 C 
BRANCH  15  16
HETATM   16  C   UNL     1      43.182 -11.078   6.982  1.00  0.00     0.254 C 
BRANCH  16  17
HETATM   17  N   UNL     1      43.599 -10.092   8.042  1.00  0.00    -0.067 N 
HETATM   18  H   UNL     1      44.438  -9.635   7.632  1.00  0.00     0.280 HD
HETATM   19  C   UNL     1      42.581  -9.014   8.373  1.00  0.00     0.254 C 
HETATM   20  C   UNL     1      43.179  -8.001   9.371  1.00  0.00     0.150 C 
HETATM   21  N   UNL     1      43.700  -8.677  10.571  1.00  0.00    -0.378 N 
HETATM   22  C   UNL     1      44.686  -9.745  10.295  1.00  0.00     0.150 C 
HETATM   23  C   UNL     1      44.104 -10.781   9.306  1.00  0.00     0.254 C 
BRANCH  21  24
HETATM   24  C   UNL     1      42.965  -8.737  11.751  1.00  0.00     0.031 A 
HETATM   25  C   UNL     1      41.830  -9.562  11.837  1.00  0.00     0.053 A 
HETATM   26  C   UNL     1      41.085  -9.668  13.016  1.00  0.00     0.036 A 
HETATM   27 CL   UNL     1      39.709 -10.699  13.063  1.00  0.00    -0.084 Cl
HETATM   28  C   UNL     1      41.452  -8.955  14.148  1.00  0.00     0.024 A 
HETATM   29  C   UNL     1      42.577  -8.141  14.099  1.00  0.00     0.004 A 
HETATM   30  C   UNL     1      43.324  -8.041  12.917  1.00  0.00     0.029 A 
ENDBRANCH  21  24
ENDBRANCH  16  17
ENDBRANCH  15  16
ENDBRANCH  12  15
ENDBRANCH   5  11
BRANCH   1  31
HETATM   31  N   UNL     1      42.139 -13.886   0.762  1.00  0.00    -0.341 N 
HETATM   32  H   UNL     1      42.565 -14.274  -0.074  1.00  0.00     0.167 HD
BRANCH  31  33
HETATM   33  C   UNL     1      40.885 -13.297   0.489  1.00  0.00     0.033 A 
HETATM   34  C   UNL     1      40.434 -12.152   1.152  1.00  0.00     0.032 A 
HETATM   35  C   UNL     1      39.235 -11.533   0.785  1.00  0.00     0.039 A 
HETATM   36  C   UNL     1      38.468 -12.032  -0.267  1.00  0.00     0.068 A 
HETATM   37  C   UNL     1      38.911 -13.165  -0.947  1.00  0.00     0.039 A 
HETATM   38  C   UNL     1      40.115 -13.781  -0.580  1.00  0.00     0.032 A 
BRANCH  36  39
HETATM   39  O   UNL     1      37.330 -11.325  -0.531  1.00  0.00    -0.356 OA
HETATM   40  C   UNL     1      37.359  -9.931  -0.255  1.00  0.00     0.210 C 
ENDBRANCH  36  39
ENDBRANCH  31  33
ENDBRANCH   1  31
TORSDOF 8
ENDMDL
MODEL 4
REMARK VINA RESULT:      -9.3     17.619     19.952
REMARK  8 active torsions:
REMARK  status: ('A' for Active; 'I' for Inactive)
REMARK    1  A    between atoms: O_2  and  C_3 
REMARK    2  A    between atoms: C_6  and  N_7 
REMARK    3  A    between atoms: N_7  and  C_8 
REMARK    4  A    between atoms: C_12  and  C_13 
REMARK       I    between atoms: C_13  and  N_14 
REMARK    5  A    between atoms: N_14  and  C_15 
REMARK    6  A    between atoms: C_15  and  C_16 
REMARK    7  A    between atoms: C_16  and  N_17 
REMARK    8  A    between atoms: N_21  and  C_22 
ROOT
HETATM    1  C   UNL     1      47.966 -29.118   2.701  1.00  0.00     0.129 A 
HETATM    2  N   UNL     1      49.208 -29.340   3.165  1.00  0.00    -0.231 NA
HETATM    3  C   UNL     1      49.444 -30.329   4.038  1.00  0.00     0.070 A 
HETATM    4  C   UNL     1      48.444 -31.216   4.478  1.00  0.00     0.009 A 
HETATM    5  C   UNL     1      47.164 -31.021   3.911  1.00  0.00     0.048 A 
HETATM    6  C   UNL     1      46.915 -29.939   3.064  1.00  0.00     0.068 A 
HETATM    7  C   UNL     1      50.736 -30.475   4.525  1.00  0.00     0.032 A 
HETATM    8  C   UNL     1      51.069 -31.461   5.455  1.00  0.00     0.002 A 
HETATM    9  C   UNL     1      50.087 -32.319   5.925  1.00  0.00     0.001 A 
HETATM   10  C   UNL     1      48.783 -32.198   5.447  1.00  0.00     0.015 A 
ENDROOT
BRANCH   5  11
HETATM   11  C   UNL     1      46.029 -31.957   4.104  1.00  0.00     0.252 C 
HETATM   12  N   UNL     1      45.075 -31.586   5.026  1.00  0.00    -0.355 N 
HETATM   13  H   UNL     1      45.186 -30.670   5.456  1.00  0.00     0.162 HD
HETATM   14  O   UNL     1      46.031 -33.071   3.586  1.00  0.00    -0.268 OA
BRANCH  12  15
HETATM   15  C   UNL     1      43.771 -32.221   5.207  1.00  0.00     0.150 C 
BRANCH  15  16
HETATM   16  C   UNL     1      42.493 -31.456   4.793  1.00  0.00     0.254 C 
BRANCH  16  17
HETATM   17  N   UNL     1      42.318 -31.334   3.302  1.00  0.00    -0.067 N 
HETATM   18  H   UNL     1      41.297 -31.172   3.190  1.00  0.00     0.280 HD
HETATM   19  C   UNL     1      43.060 -30.182   2.646  1.00  0.00     0.254 C 
HETATM   20  C   UNL     1      42.694 -30.093   1.150  1.00  0.00     0.150 C 
HETATM   21  N   UNL     1      42.921 -31.377   0.466  1.00  0.00    -0.378 N 
HETATM   22  C   UNL     1      42.229 -32.531   1.080  1.00  0.00     0.150 C 
HETATM   23  C   UNL     1      42.590 -32.650   2.579  1.00  0.00     0.254 C 
BRANCH  21  24
HETATM   24  C   UNL     1      44.072 -31.611  -0.281  1.00  0.00     0.031 A 
HETATM   25  C   UNL     1      45.325 -31.679   0.351  1.00  0.00     0.053 A 
HETATM   26  C   UNL     1      46.497 -31.940  -0.366  1.00  0.00     0.036 A 
HETATM   27 CL   UNL     1      48.003 -32.017   0.463  1.00  0.00    -0.084 Cl
HETATM   28  C   UNL     1      46.454 -32.147  -1.737  1.00  0.00     0.024 A 
HETATM   29  C   UNL     1      45.228 -32.100  -2.390  1.00  0.00     0.004 A 
HETATM   30  C   UNL     1      44.054 -31.842  -1.666  1.00  0.00     0.029 A 
ENDBRANCH  21  24
ENDBRANCH  16  17
ENDBRANCH  15  16
ENDBRANCH  12  15
ENDBRANCH   5  11
BRANCH   1  31
HETATM   31  N   UNL     1      47.699 -28.056   1.810  1.00  0.00    -0.341 N 
HETATM   32  H   UNL     1      48.398 -27.329   1.918  1.00  0.00     0.167 HD
BRANCH  31  33
HETATM   33  C   UNL     1      47.230 -28.143   0.481  1.00  0.00     0.033 A 
HETATM   34  C   UNL     1      48.074 -28.432  -0.595  1.00  0.00     0.032 A 
HETATM   35  C   UNL     1      47.563 -28.614  -1.884  1.00  0.00     0.039 A 
HETATM   36  C   UNL     1      46.191 -28.533  -2.123  1.00  0.00     0.068 A 
HETATM   37  C   UNL     1      45.335 -28.259  -1.059  1.00  0.00     0.039 A 
HETATM   38  C   UNL     1      45.850 -28.080   0.232  1.00  0.00     0.032 A 
BRANCH  36  39
HETATM   39  O   UNL     1      45.824 -28.746  -3.422  1.00  0.00    -0.356 OA
HETATM   40  C   UNL     1      45.074 -27.719  -4.056  1.00  0.00     0.210 C 
ENDBRANCH  36  39
ENDBRANCH  31  33
ENDBRANCH   1  31
TORSDOF 8
ENDMDL
MODEL 5
REMARK VINA RESULT:      -9.2      3.288      6.704
REMARK  8 active torsions:
REMARK  status: ('A' for Active; 'I' for Inactive)
REMARK    1  A    between atoms: O_2  and  C_3 
REMARK    2  A    between atoms: C_6  and  N_7 
REMARK    3  A    between atoms: N_7  and  C_8 
REMARK    4  A    between atoms: C_12  and  C_13 
REMARK       I    between atoms: C_13  and  N_14 
REMARK    5  A    between atoms: N_14  and  C_15 
REMARK    6  A    between atoms: C_15  and  C_16 
REMARK    7  A    between atoms: C_16  and  N_17 
REMARK    8  A    between atoms: N_21  and  C_22 
ROOT
HETATM    1  C   UNL     1      39.976 -14.446   1.611  1.00  0.00     0.129 A 
HETATM    2  N   UNL     1      39.911 -14.840   0.327  1.00  0.00    -0.231 NA
HETATM    3  C   UNL     1      40.053 -13.952  -0.667  1.00  0.00     0.070 A 
HETATM    4  C   UNL     1      40.327 -12.590  -0.443  1.00  0.00     0.009 A 
HETATM    5  C   UNL     1      40.479 -12.213   0.911  1.00  0.00     0.048 A 
HETATM    6  C   UNL     1      40.251 -13.131   1.938  1.00  0.00     0.068 A 
HETATM    7  C   UNL     1      39.920 -14.408  -1.971  1.00  0.00     0.032 A 
HETATM    8  C   UNL     1      40.028 -13.552  -3.068  1.00  0.00     0.002 A 
HETATM    9  C   UNL     1      40.262 -12.201  -2.863  1.00  0.00     0.001 A 
HETATM   10  C   UNL     1      40.406 -11.719  -1.562  1.00  0.00     0.015 A 
ENDROOT
BRANCH   5  11
HETATM   11  C   UNL     1      40.948 -10.873   1.342  1.00  0.00     0.252 C 
HETATM   12  N   UNL     1      39.987  -9.893   1.457  1.00  0.00    -0.355 N 
HETATM   13  H   UNL     1      39.022 -10.177   1.302  1.00  0.00     0.162 HD
HETATM   14  O   UNL     1      42.146 -10.620   1.433  1.00  0.00    -0.268 OA
BRANCH  12  15
HETATM   15  C   UNL     1      40.173  -8.585   2.085  1.00  0.00     0.150 C 
BRANCH  15  16
HETATM   16  C   UNL     1      39.244  -8.166   3.247  1.00  0.00     0.254 C 
BRANCH  16  17
HETATM   17  N   UNL     1      39.735  -8.607   4.601  1.00  0.00    -0.067 N 
HETATM   18  H   UNL     1      39.187  -8.020   5.261  1.00  0.00     0.280 HD
HETATM   19  C   UNL     1      39.492 -10.067   4.944  1.00  0.00     0.254 C 
HETATM   20  C   UNL     1      39.922 -10.353   6.398  1.00  0.00     0.150 C 
HETATM   21  N   UNL     1      41.314  -9.938   6.636  1.00  0.00    -0.378 N 
HETATM   22  C   UNL     1      41.600  -8.526   6.302  1.00  0.00     0.150 C 
HETATM   23  C   UNL     1      41.190  -8.217   4.844  1.00  0.00     0.254 C 
BRANCH  21  24
HETATM   24  C   UNL     1      42.362 -10.855   6.611  1.00  0.00     0.031 A 
HETATM   25  C   UNL     1      43.645 -10.475   7.040  1.00  0.00     0.053 A 
HETATM   26  C   UNL     1      44.713 -11.378   7.054  1.00  0.00     0.036 A 
HETATM   27 CL   UNL     1      46.261 -10.857   7.596  1.00  0.00    -0.084 Cl
HETATM   28  C   UNL     1      44.532 -12.691   6.646  1.00  0.00     0.024 A 
HETATM   29  C   UNL     1      43.271 -13.101   6.229  1.00  0.00     0.004 A 
HETATM   30  C   UNL     1      42.202 -12.194   6.220  1.00  0.00     0.029 A 
ENDBRANCH  21  24
ENDBRANCH  16  17
ENDBRANCH  15  16
ENDBRANCH  12  15
ENDBRANCH   5  11
BRANCH   1  31
HETATM   31  N   UNL     1      39.791 -15.365   2.667  1.00  0.00    -0.341 N 
HETATM   32  H   UNL     1      39.042 -16.010   2.437  1.00  0.00     0.167 HD
BRANCH  31  33
HETATM   33  C   UNL     1      40.784 -15.974   3.465  1.00  0.00     0.033 A 
HETATM   34  C   UNL     1      41.965 -16.492   2.926  1.00  0.00     0.032 A 
HETATM   35  C   UNL     1      42.975 -16.994   3.753  1.00  0.00     0.039 A 
HETATM   36  C   UNL     1      42.836 -16.970   5.141  1.00  0.00     0.068 A 
HETATM   37  C   UNL     1      41.671 -16.444   5.694  1.00  0.00     0.039 A 
HETATM   38  C   UNL     1      40.662 -15.938   4.862  1.00  0.00     0.032 A 
BRANCH  36  39
HETATM   39  O   UNL     1      43.901 -17.476   5.830  1.00  0.00    -0.356 OA
HETATM   40  C   UNL     1      44.636 -16.567   6.639  1.00  0.00     0.210 C 
ENDBRANCH  36  39
ENDBRANCH  31  33
ENDBRANCH   1  31
TORSDOF 8
ENDMDL
MODEL 6
REMARK VINA RESULT:      -9.1      1.599      2.034
REMARK  8 active torsions:
REMARK  status: ('A' for Active; 'I' for Inactive)
REMARK    1  A    between atoms: O_2  and  C_3 
REMARK    2  A    between atoms: C_6  and  N_7 
REMARK    3  A    between atoms: N_7  and  C_8 
REMARK    4  A    between atoms: C_12  and  C_13 
REMARK       I    between atoms: C_13  and  N_14 
REMARK    5  A    between atoms: N_14  and  C_15 
REMARK    6  A    between atoms: C_15  and  C_16 
REMARK    7  A    between atoms: C_16  and  N_17 
REMARK    8  A    between atoms: N_21  and  C_22 
ROOT
HETATM    1  C   UNL     1      40.677 -15.686   2.001  1.00  0.00     0.129 A 
HETATM    2  N   UNL     1      41.455 -16.782   1.966  1.00  0.00    -0.231 NA
HETATM    3  C   UNL     1      42.346 -17.018   2.940  1.00  0.00     0.070 A 
HETATM    4  C   UNL     1      42.486 -16.186   4.066  1.00  0.00     0.009 A 
HETATM    5  C   UNL     1      41.598 -15.087   4.127  1.00  0.00     0.048 A 
HETATM    6  C   UNL     1      40.731 -14.809   3.069  1.00  0.00     0.068 A 
HETATM    7  C   UNL     1      43.160 -18.135   2.821  1.00  0.00     0.032 A 
HETATM    8  C   UNL     1      44.131 -18.447   3.774  1.00  0.00     0.002 A 
HETATM    9  C   UNL     1      44.307 -17.617   4.871  1.00  0.00     0.001 A 
HETATM   10  C   UNL     1      43.497 -16.492   5.017  1.00  0.00     0.015 A 
ENDROOT
BRANCH   5  11
HETATM   11  C   UNL     1      41.465 -14.205   5.313  1.00  0.00     0.252 C 
HETATM   12  N   UNL     1      42.094 -12.981   5.243  1.00  0.00    -0.355 N 
HETATM   13  H   UNL     1      42.547 -12.749   4.361  1.00  0.00     0.162 HD
HETATM   14  O   UNL     1      40.957 -14.614   6.353  1.00  0.00    -0.268 OA
BRANCH  12  15
HETATM   15  C   UNL     1      41.905 -11.871   6.175  1.00  0.00     0.150 C 
BRANCH  15  16
HETATM   16  C   UNL     1      40.608 -11.033   6.099  1.00  0.00     0.254 C 
BRANCH  16  17
HETATM   17  N   UNL     1      40.575  -9.882   7.071  1.00  0.00    -0.067 N 
HETATM   18  H   UNL     1      40.441  -9.052   6.460  1.00  0.00     0.280 HD
HETATM   19  C   UNL     1      39.448  -9.915   8.088  1.00  0.00     0.254 C 
HETATM   20  C   UNL     1      39.451  -8.623   8.933  1.00  0.00     0.150 C 
HETATM   21  N   UNL     1      40.768  -8.392   9.551  1.00  0.00    -0.378 N 
HETATM   22  C   UNL     1      41.898  -8.367   8.598  1.00  0.00     0.150 C 
HETATM   23  C   UNL     1      41.924  -9.658   7.748  1.00  0.00     0.254 C 
BRANCH  21  24
HETATM   24  C   UNL     1      41.020  -8.735  10.876  1.00  0.00     0.031 A 
HETATM   25  C   UNL     1      41.957  -8.007  11.630  1.00  0.00     0.053 A 
HETATM   26  C   UNL     1      42.214  -8.307  12.971  1.00  0.00     0.036 A 
HETATM   27 CL   UNL     1      43.367  -7.376  13.846  1.00  0.00    -0.084 Cl
HETATM   28  C   UNL     1      41.540  -9.341  13.604  1.00  0.00     0.024 A 
HETATM   29  C   UNL     1      40.598 -10.072  12.889  1.00  0.00     0.004 A 
HETATM   30  C   UNL     1      40.341  -9.765  11.546  1.00  0.00     0.029 A 
ENDBRANCH  21  24
ENDBRANCH  16  17
ENDBRANCH  15  16
ENDBRANCH  12  15
ENDBRANCH   5  11
BRANCH   1  31
HETATM   31  N   UNL     1      39.762 -15.407   0.962  1.00  0.00    -0.341 N 
HETATM   32  H   UNL     1      38.822 -15.338   1.338  1.00  0.00     0.167 HD
BRANCH  31  33
HETATM   33  C   UNL     1      39.951 -14.552  -0.145  1.00  0.00     0.033 A 
HETATM   34  C   UNL     1      39.326 -14.771  -1.377  1.00  0.00     0.032 A 
HETATM   35  C   UNL     1      39.450 -13.850  -2.421  1.00  0.00     0.039 A 
HETATM   36  C   UNL     1      40.184 -12.675  -2.252  1.00  0.00     0.068 A 
HETATM   37  C   UNL     1      40.800 -12.436  -1.026  1.00  0.00     0.039 A 
HETATM   38  C   UNL     1      40.672 -13.360   0.020  1.00  0.00     0.032 A 
BRANCH  36  39
HETATM   39  O   UNL     1      40.211 -11.856  -3.345  1.00  0.00    -0.356 OA
HETATM   40  C   UNL     1      39.568 -10.594  -3.220  1.00  0.00     0.210 C 
ENDBRANCH  36  39
ENDBRANCH  31  33
ENDBRANCH   1  31
TORSDOF 8
ENDMDL
MODEL 7
REMARK VINA RESULT:      -9.0      4.407     10.005
REMARK  8 active torsions:
REMARK  status: ('A' for Active; 'I' for Inactive)
REMARK    1  A    between atoms: O_2  and  C_3 
REMARK    2  A    between atoms: C_6  and  N_7 
REMARK    3  A    between atoms: N_7  and  C_8 
REMARK    4  A    between atoms: C_12  and  C_13 
REMARK       I    between atoms: C_13  and  N_14 
REMARK    5  A    between atoms: N_14  and  C_15 
REMARK    6  A    between atoms: C_15  and  C_16 
REMARK    7  A    between atoms: C_16  and  N_17 
REMARK    8  A    between atoms: N_21  and  C_22 
ROOT
HETATM    1  C   UNL     1      43.649 -16.206   5.353  1.00  0.00     0.129 A 
HETATM    2  N   UNL     1      44.033 -17.489   5.475  1.00  0.00    -0.231 NA
HETATM    3  C   UNL     1      43.836 -18.359   4.475  1.00  0.00     0.070 A 
HETATM    4  C   UNL     1      43.278 -17.988   3.238  1.00  0.00     0.009 A 
HETATM    5  C   UNL     1      42.962 -16.617   3.097  1.00  0.00     0.048 A 
HETATM    6  C   UNL     1      43.099 -15.738   4.174  1.00  0.00     0.068 A 
HETATM    7  C   UNL     1      44.202 -19.681   4.680  1.00  0.00     0.032 A 
HETATM    8  C   UNL     1      44.012 -20.661   3.704  1.00  0.00     0.002 A 
HETATM    9  C   UNL     1      43.430 -20.319   2.494  1.00  0.00     0.001 A 
HETATM   10  C   UNL     1      43.059 -18.995   2.260  1.00  0.00     0.015 A 
ENDROOT
BRANCH   5  11
HETATM   11  C   UNL     1      42.539 -15.999   1.816  1.00  0.00     0.252 C 
HETATM   12  N   UNL     1      41.184 -15.831   1.633  1.00  0.00    -0.355 N 
HETATM   13  H   UNL     1      40.581 -16.082   2.414  1.00  0.00     0.162 HD
HETATM   14  O   UNL     1      43.345 -15.801   0.912  1.00  0.00    -0.268 OA
BRANCH  12  15
HETATM   15  C   UNL     1      40.558 -15.041   0.573  1.00  0.00     0.150 C 
BRANCH  15  16
HETATM   16  C   UNL     1      40.478 -13.504   0.723  1.00  0.00     0.254 C 
BRANCH  16  17
HETATM   17  N   UNL     1      40.976 -12.752  -0.483  1.00  0.00    -0.067 N 
HETATM   18  H   UNL     1      41.997 -12.945  -0.485  1.00  0.00     0.280 HD
HETATM   19  C   UNL     1      40.402 -13.198  -1.817  1.00  0.00     0.254 C 
HETATM   20  C   UNL     1      41.087 -12.441  -2.974  1.00  0.00     0.150 C 
HETATM   21  N   UNL     1      41.007 -10.984  -2.780  1.00  0.00    -0.378 N 
HETATM   22  C   UNL     1      41.541 -10.505  -1.487  1.00  0.00     0.150 C 
HETATM   23  C   UNL     1      40.860 -11.241  -0.310  1.00  0.00     0.254 C 
BRANCH  21  24
HETATM   24  C   UNL     1      40.046 -10.214  -3.430  1.00  0.00     0.031 A 
HETATM   25  C   UNL     1      38.683 -10.383  -3.133  1.00  0.00     0.053 A 
HETATM   26  C   UNL     1      37.694  -9.608  -3.746  1.00  0.00     0.036 A 
HETATM   27 CL   UNL     1      36.041  -9.856  -3.337  1.00  0.00    -0.084 Cl
HETATM   28  C   UNL     1      38.036  -8.635  -4.674  1.00  0.00     0.024 A 
HETATM   29  C   UNL     1      39.377  -8.434  -4.980  1.00  0.00     0.004 A 
HETATM   30  C   UNL     1      40.365  -9.211  -4.359  1.00  0.00     0.029 A 
ENDBRANCH  21  24
ENDBRANCH  16  17
ENDBRANCH  15  16
ENDBRANCH  12  15
ENDBRANCH   5  11
BRANCH   1  31
HETATM   31  N   UNL     1      43.817 -15.289   6.413  1.00  0.00    -0.341 N 
HETATM   32  H   UNL     1      44.730 -15.414   6.838  1.00  0.00     0.167 HD
BRANCH  31  33
HETATM   33  C   UNL     1      43.391 -13.944   6.465  1.00  0.00     0.033 A 
HETATM   34  C   UNL     1      44.276 -12.886   6.691  1.00  0.00     0.032 A 
HETATM   35  C   UNL     1      43.841 -11.558   6.632  1.00  0.00     0.039 A 
HETATM   36  C   UNL     1      42.514 -11.256   6.325  1.00  0.00     0.068 A 
HETATM   37  C   UNL     1      41.623 -12.299   6.085  1.00  0.00     0.039 A 
HETATM   38  C   UNL     1      42.063 -13.629   6.141  1.00  0.00     0.032 A 
BRANCH  36  39
HETATM   39  O   UNL     1      42.226  -9.921   6.286  1.00  0.00    -0.356 OA
HETATM   40  C   UNL     1      42.635  -9.141   7.402  1.00  0.00     0.210 C 
ENDBRANCH  36  39
ENDBRANCH  31  33
ENDBRANCH   1  31
TORSDOF 8
ENDMDL
MODEL 8
REMARK VINA RESULT:      -9.0      3.972      9.693
REMARK  8 active torsions:
REMARK  status: ('A' for Active; 'I' for Inactive)
REMARK    1  A    between atoms: O_2  and  C_3 
REMARK    2  A    between atoms: C_6  and  N_7 
REMARK    3  A    between atoms: N_7  and  C_8 
REMARK    4  A    between atoms: C_12  and  C_13 
REMARK       I    between atoms: C_13  and  N_14 
REMARK    5  A    between atoms: N_14  and  C_15 
REMARK    6  A    between atoms: C_15  and  C_16 
REMARK    7  A    between atoms: C_16  and  N_17 
REMARK    8  A    between atoms: N_21  and  C_22 
ROOT
HETATM    1  C   UNL     1      43.563 -16.047   5.363  1.00  0.00     0.129 A 
HETATM    2  N   UNL     1      43.985 -17.315   5.513  1.00  0.00    -0.231 NA
HETATM    3  C   UNL     1      43.826 -18.209   4.526  1.00  0.00     0.070 A 
HETATM    4  C   UNL     1      43.270 -17.878   3.277  1.00  0.00     0.009 A 
HETATM    5  C   UNL     1      42.913 -16.520   3.108  1.00  0.00     0.048 A 
HETATM    6  C   UNL     1      43.011 -15.618   4.170  1.00  0.00     0.068 A 
HETATM    7  C   UNL     1      44.230 -19.515   4.760  1.00  0.00     0.032 A 
HETATM    8  C   UNL     1      44.082 -20.518   3.800  1.00  0.00     0.002 A 
HETATM    9  C   UNL     1      43.502 -20.216   2.578  1.00  0.00     0.001 A 
HETATM   10  C   UNL     1      43.094 -18.909   2.316  1.00  0.00     0.015 A 
ENDROOT
BRANCH   5  11
HETATM   11  C   UNL     1      42.485 -15.939   1.812  1.00  0.00     0.252 C 
HETATM   12  N   UNL     1      41.131 -15.749   1.640  1.00  0.00    -0.355 N 
HETATM   13  H   UNL     1      40.534 -15.961   2.438  1.00  0.00     0.162 HD
HETATM   14  O   UNL     1      43.282 -15.788   0.891  1.00  0.00    -0.268 OA
BRANCH  12  15
HETATM   15  C   UNL     1      40.507 -14.984   0.562  1.00  0.00     0.150 C 
BRANCH  15  16
HETATM   16  C   UNL     1      40.011 -13.547   0.843  1.00  0.00     0.254 C 
BRANCH  16  17
HETATM   17  N   UNL     1      39.516 -12.828  -0.384  1.00  0.00    -0.067 N 
HETATM   18  H   UNL     1      38.700 -13.397  -0.686  1.00  0.00     0.280 HD
HETATM   19  C   UNL     1      39.049 -11.400  -0.163  1.00  0.00     0.254 C 
HETATM   20  C   UNL     1      38.450 -10.826  -1.464  1.00  0.00     0.150 C 
HETATM   21  N   UNL     1      39.394 -10.947  -2.587  1.00  0.00    -0.378 N 
HETATM   22  C   UNL     1      39.888 -12.320  -2.830  1.00  0.00     0.150 C 
HETATM   23  C   UNL     1      40.506 -12.913  -1.543  1.00  0.00     0.254 C 
BRANCH  21  24
HETATM   24  C   UNL     1      40.181  -9.874  -2.996  1.00  0.00     0.031 A 
HETATM   25  C   UNL     1      41.178  -9.363  -2.148  1.00  0.00     0.053 A 
HETATM   26  C   UNL     1      42.005  -8.304  -2.539  1.00  0.00     0.036 A 
HETATM   27 CL   UNL     1      43.213  -7.725  -1.460  1.00  0.00    -0.084 Cl
HETATM   28  C   UNL     1      41.864  -7.726  -3.792  1.00  0.00     0.024 A 
HETATM   29  C   UNL     1      40.896  -8.217  -4.659  1.00  0.00     0.004 A 
HETATM   30  C   UNL     1      40.072  -9.281  -4.265  1.00  0.00     0.029 A 
ENDBRANCH  21  24
ENDBRANCH  16  17
ENDBRANCH  15  16
ENDBRANCH  12  15
ENDBRANCH   5  11
BRANCH   1  31
HETATM   31  N   UNL     1      43.691 -15.107   6.408  1.00  0.00    -0.341 N 
HETATM   32  H   UNL     1      44.572 -15.244   6.892  1.00  0.00     0.167 HD
BRANCH  31  33
HETATM   33  C   UNL     1      43.301 -13.750   6.399  1.00  0.00     0.033 A 
HETATM   34  C   UNL     1      42.013 -13.341   6.043  1.00  0.00     0.032 A 
HETATM   35  C   UNL     1      41.628 -12.001   6.145  1.00  0.00     0.039 A 
HETATM   36  C   UNL     1      42.516 -11.039   6.625  1.00  0.00     0.068 A 
HETATM   37  C   UNL     1      43.800 -11.432   6.997  1.00  0.00     0.039 A 
HETATM   38  C   UNL     1      44.182 -12.777   6.897  1.00  0.00     0.032 A 
BRANCH  36  39
HETATM   39  O   UNL     1      42.009  -9.773   6.688  1.00  0.00    -0.356 OA
HETATM   40  C   UNL     1      42.696  -8.844   7.517  1.00  0.00     0.210 C 
ENDBRANCH  36  39
ENDBRANCH  31  33
ENDBRANCH   1  31
TORSDOF 8
ENDMDL
MODEL 9
REMARK VINA RESULT:      -8.7      4.230     11.561
REMARK  8 active torsions:
REMARK  status: ('A' for Active; 'I' for Inactive)
REMARK    1  A    between atoms: O_2  and  C_3 
REMARK    2  A    between atoms: C_6  and  N_7 
REMARK    3  A    between atoms: N_7  and  C_8 
REMARK    4  A    between atoms: C_12  and  C_13 
REMARK       I    between atoms: C_13  and  N_14 
REMARK    5  A    between atoms: N_14  and  C_15 
REMARK    6  A    between atoms: C_15  and  C_16 
REMARK    7  A    between atoms: C_16  and  N_17 
REMARK    8  A    between atoms: N_21  and  C_22 
ROOT
HETATM    1  C   UNL     1      41.712  -8.645   9.449  1.00  0.00     0.129 A 
HETATM    2  N   UNL     1      43.038  -8.631   9.673  1.00  0.00    -0.231 NA
HETATM    3  C   UNL     1      43.872  -9.313   8.875  1.00  0.00     0.070 A 
HETATM    4  C   UNL     1      43.436 -10.029   7.745  1.00  0.00     0.009 A 
HETATM    5  C   UNL     1      42.050  -9.959   7.477  1.00  0.00     0.048 A 
HETATM    6  C   UNL     1      41.183  -9.311   8.359  1.00  0.00     0.068 A 
HETATM    7  C   UNL     1      45.224  -9.306   9.189  1.00  0.00     0.032 A 
HETATM    8  C   UNL     1      46.162 -10.007   8.430  1.00  0.00     0.002 A 
HETATM    9  C   UNL     1      45.744 -10.747   7.335  1.00  0.00     0.001 A 
HETATM   10  C   UNL     1      44.392 -10.764   6.995  1.00  0.00     0.015 A 
ENDROOT
BRANCH   5  11
HETATM   11  C   UNL     1      41.425 -10.489   6.240  1.00  0.00     0.252 C 
HETATM   12  N   UNL     1      41.903  -9.990   5.048  1.00  0.00    -0.355 N 
HETATM   13  H   UNL     1      42.690  -9.347   5.103  1.00  0.00     0.162 HD
HETATM   14  O   UNL     1      40.432 -11.209   6.290  1.00  0.00    -0.268 OA
BRANCH  12  15
HETATM   15  C   UNL     1      41.612 -10.530   3.720  1.00  0.00     0.150 C 
BRANCH  15  16
HETATM   16  C   UNL     1      42.561 -11.585   3.108  1.00  0.00     0.254 C 
BRANCH  16  17
HETATM   17  N   UNL     1      41.951 -12.959   3.005  1.00  0.00    -0.067 N 
HETATM   18  H   UNL     1      40.947 -12.765   2.823  1.00  0.00     0.280 HD
HETATM   19  C   UNL     1      42.483 -13.830   1.880  1.00  0.00     0.254 C 
HETATM   20  C   UNL     1      41.690 -15.151   1.806  1.00  0.00     0.150 C 
HETATM   21  N   UNL     1      41.682 -15.844   3.106  1.00  0.00    -0.378 N 
HETATM   22  C   UNL     1      41.184 -15.027   4.234  1.00  0.00     0.150 C 
HETATM   23  C   UNL     1      41.974 -13.702   4.338  1.00  0.00     0.254 C 
BRANCH  21  24
HETATM   24  C   UNL     1      42.553 -16.895   3.376  1.00  0.00     0.031 A 
HETATM   25  C   UNL     1      42.631 -17.993   2.503  1.00  0.00     0.053 A 
HETATM   26  C   UNL     1      43.516 -19.052   2.730  1.00  0.00     0.036 A 
HETATM   27 CL   UNL     1      43.572 -20.367   1.622  1.00  0.00    -0.084 Cl
HETATM   28  C   UNL     1      44.355 -19.045   3.835  1.00  0.00     0.024 A 
HETATM   29  C   UNL     1      44.312 -17.967   4.710  1.00  0.00     0.004 A 
HETATM   30  C   UNL     1      43.426 -16.905   4.477  1.00  0.00     0.029 A 
ENDBRANCH  21  24
ENDBRANCH  16  17
ENDBRANCH  15  16
ENDBRANCH  12  15
ENDBRANCH   5  11
BRANCH   1  31
HETATM   31  N   UNL     1      40.821  -7.962  10.304  1.00  0.00    -0.341 N 
HETATM   32  H   UNL     1      39.884  -8.338  10.200  1.00  0.00     0.167 HD
BRANCH  31  33
HETATM   33  C   UNL     1      41.063  -7.510  11.620  1.00  0.00     0.033 A 
HETATM   34  C   UNL     1      40.761  -8.282  12.745  1.00  0.00     0.032 A 
HETATM   35  C   UNL     1      41.109  -7.851  14.029  1.00  0.00     0.039 A 
HETATM   36  C   UNL     1      41.787  -6.646  14.216  1.00  0.00     0.068 A 
HETATM   37  C   UNL     1      42.107  -5.872  13.104  1.00  0.00     0.039 A 
HETATM   38  C   UNL     1      41.760  -6.308  11.818  1.00  0.00     0.032 A 
BRANCH  36  39
HETATM   39  O   UNL     1      42.079  -6.351  15.518  1.00  0.00    -0.356 OA
HETATM   40  C   UNL     1      41.052  -5.737  16.286  1.00  0.00     0.210 C 
ENDBRANCH  36  39
ENDBRANCH  31  33
ENDBRANCH   1  31
TORSDOF 8
ENDMDL
MODEL 10
REMARK VINA RESULT:      -8.7      4.438     11.350
REMARK  8 active torsions:
REMARK  status: ('A' for Active; 'I' for Inactive)
REMARK    1  A    between atoms: O_2  and  C_3 
REMARK    2  A    between atoms: C_6  and  N_7 
REMARK    3  A    between atoms: N_7  and  C_8 
REMARK    4  A    between atoms: C_12  and  C_13 
REMARK       I    between atoms: C_13  and  N_14 
REMARK    5  A    between atoms: N_14  and  C_15 
REMARK    6  A    between atoms: C_15  and  C_16 
REMARK    7  A    between atoms: C_16  and  N_17 
REMARK    8  A    between atoms: N_21  and  C_22 
ROOT
HETATM    1  C   UNL     1      42.203  -7.207   8.728  1.00  0.00     0.129 A 
HETATM    2  N   UNL     1      43.524  -7.390   8.899  1.00  0.00    -0.231 NA
HETATM    3  C   UNL     1      44.133  -8.476   8.402  1.00  0.00     0.070 A 
HETATM    4  C   UNL     1      43.460  -9.448   7.639  1.00  0.00     0.009 A 
HETATM    5  C   UNL     1      42.091  -9.193   7.396  1.00  0.00     0.048 A 
HETATM    6  C   UNL     1      41.452  -8.100   7.985  1.00  0.00     0.068 A 
HETATM    7  C   UNL     1      45.487  -8.638   8.658  1.00  0.00     0.032 A 
HETATM    8  C   UNL     1      46.198  -9.748   8.201  1.00  0.00     0.002 A 
HETATM    9  C   UNL     1      45.542 -10.733   7.479  1.00  0.00     0.001 A 
HETATM   10  C   UNL     1      44.183 -10.591   7.202  1.00  0.00     0.015 A 
ENDROOT
BRANCH   5  11
HETATM   11  C   UNL     1      41.258  -9.997   6.468  1.00  0.00     0.252 C 
HETATM   12  N   UNL     1      40.253 -10.748   7.037  1.00  0.00    -0.355 N 
HETATM   13  H   UNL     1      40.116 -10.644   8.040  1.00  0.00     0.162 HD
HETATM   14  O   UNL     1      41.556 -10.106   5.282  1.00  0.00    -0.268 OA
BRANCH  12  15
HETATM   15  C   UNL     1      39.174 -11.419   6.312  1.00  0.00     0.150 C 
BRANCH  15  16
HETATM   16  C   UNL     1      39.377 -12.874   5.832  1.00  0.00     0.254 C 
BRANCH  16  17
HETATM   17  N   UNL     1      40.770 -13.156   5.331  1.00  0.00    -0.067 N 
HETATM   18  H   UNL     1      41.244 -12.234   5.399  1.00  0.00     0.280 HD
HETATM   19  C   UNL     1      41.566 -14.165   6.139  1.00  0.00     0.254 C 
HETATM   20  C   UNL     1      43.008 -14.265   5.599  1.00  0.00     0.150 C 
HETATM   21  N   UNL     1      43.020 -14.558   4.156  1.00  0.00    -0.378 N 
HETATM   22  C   UNL     1      42.244 -13.608   3.331  1.00  0.00     0.150 C 
HETATM   23  C   UNL     1      40.790 -13.500   3.844  1.00  0.00     0.254 C 
BRANCH  21  24
HETATM   24  C   UNL     1      43.221 -15.849   3.677  1.00  0.00     0.031 A 
HETATM   25  C   UNL     1      43.547 -16.890   4.562  1.00  0.00     0.053 A 
HETATM   26  C   UNL     1      43.728 -18.204   4.117  1.00  0.00     0.036 A 
HETATM   27 CL   UNL     1      44.120 -19.439   5.249  1.00  0.00    -0.084 Cl
HETATM   28  C   UNL     1      43.583 -18.520   2.774  1.00  0.00     0.024 A 
HETATM   29  C   UNL     1      43.247 -17.514   1.875  1.00  0.00     0.004 A 
HETATM   30  C   UNL     1      43.063 -16.199   2.326  1.00  0.00     0.029 A 
ENDBRANCH  21  24
ENDBRANCH  16  17
ENDBRANCH  15  16
ENDBRANCH  12  15
ENDBRANCH   5  11
BRANCH   1  31
HETATM   31  N   UNL     1      41.543  -6.088   9.279  1.00  0.00    -0.341 N 
HETATM   32  H   UNL     1      40.545  -6.263   9.328  1.00  0.00     0.167 HD
BRANCH  31  33
HETATM   33  C   UNL     1      41.984  -5.261  10.335  1.00  0.00     0.033 A 
HETATM   34  C   UNL     1      42.510  -3.984  10.118  1.00  0.00     0.032 A 
HETATM   35  C   UNL     1      42.841  -3.149  11.191  1.00  0.00     0.039 A 
HETATM   36  C   UNL     1      42.633  -3.564  12.506  1.00  0.00     0.068 A 
HETATM   37  C   UNL     1      42.097  -4.828  12.739  1.00  0.00     0.039 A 
HETATM   38  C   UNL     1      41.763  -5.661  11.662  1.00  0.00     0.032 A 
BRANCH  36  39
HETATM   39  O   UNL     1      42.984  -2.647  13.456  1.00  0.00    -0.356 OA
HETATM   40  C   UNL     1      42.967  -1.279  13.069  1.00  0.00     0.210 C 
ENDBRANCH  36  39
ENDBRANCH  31  33
ENDBRANCH   1  31
TORSDOF 8
ENDMDL
