MODEL 1
REMARK VINA RESULT:      -8.1      0.000      0.000
REMARK  9 active torsions:
REMARK  status: ('A' for Active; 'I' for Inactive)
REMARK    1  A    between atoms: C_2  and  N_3 
REMARK    2  A    between atoms: C_6  and  C_7 
REMARK    3  A    between atoms: C_7  and  O_8 
REMARK    4  A    between atoms: O_8  and  C_9 
REMARK    5  A    between atoms: C_12  and  C_13 
REMARK    6  A    between atoms: C_14  and  C_15 
REMARK       I    between atoms: C_15  and  N_16 
REMARK    7  A    between atoms: N_16  and  C_17 
REMARK    8  A    between atoms: C_18  and  C_19 
REMARK       I    between atoms: C_19  and  N_20 
REMARK    9  A    between atoms: N_20  and  C_21 
ROOT
HETATM    1  C   UNL     1      44.093 -16.232   6.005  1.00  0.00     0.245 C 
HETATM    2  N   UNL     1      43.112 -17.027   5.434  1.00  0.00    -0.323 N 
HETATM    3  O   UNL     1      45.298 -16.434   5.974  1.00  0.00    -0.268 OA
HETATM    4  H   UNL     1      42.249 -16.537   5.225  1.00  0.00     0.169 HD
ENDROOT
BRANCH   1   5
HETATM    5  C   UNL     1      43.521 -14.983   6.570  1.00  0.00     0.075 C 
HETATM    6  C   UNL     1      43.108 -14.034   5.717  1.00  0.00     0.020 C 
BRANCH   6   7
HETATM    7  C   UNL     1      42.534 -12.772   6.072  1.00  0.00     0.005 A 
HETATM    8  C   UNL     1      43.262 -11.585   6.416  1.00  0.00     0.073 A 
HETATM    9  C   UNL     1      42.308 -10.584   6.604  1.00  0.00     0.025 A 
HETATM   10  N   UNL     1      41.063 -11.122   6.349  1.00  0.00    -0.353 N 
HETATM   11  C   UNL     1      42.537  -9.155   6.984  1.00  0.00     0.069 C 
HETATM   12  C   UNL     1      41.181 -12.470   6.058  1.00  0.00     0.019 A 
HETATM   13  C   UNL     1      39.992 -13.313   5.733  1.00  0.00     0.069 C 
BRANCH   8  14
HETATM   14  C   UNL     1      44.714 -11.382   6.553  1.00  0.00     0.296 C 
HETATM   15  O   UNL     1      45.459 -11.147   5.607  1.00  0.00    -0.259 OA
BRANCH  14  16
HETATM   16  O   UNL     1      45.148 -11.497   7.840  1.00  0.00    -0.318 OA
BRANCH  16  17
HETATM   17  C   UNL     1      45.813 -10.357   8.399  1.00  0.00     0.174 C 
HETATM   18  C   UNL     1      45.242 -10.040   9.768  1.00  0.00     0.034 C 
ENDBRANCH  16  17
ENDBRANCH  14  16
ENDBRANCH   8  14
BRANCH  10  19
HETATM   19  C   UNL     1      39.814 -10.366   6.313  1.00  0.00     0.124 C 
HETATM   20  C   UNL     1      39.134 -10.292   7.669  1.00  0.00     0.027 C 
ENDBRANCH  10  19
ENDBRANCH   6   7
ENDBRANCH   1   5
BRANCH   2  21
HETATM   21  C   UNL     1      43.428 -18.113   4.576  1.00  0.00     0.050 A 
HETATM   22  C   UNL     1      43.246 -18.142   3.179  1.00  0.00     0.058 A 
HETATM   23  C   UNL     1      43.470 -19.348   2.486  1.00  0.00     0.019 A 
HETATM   24  C   UNL     1      43.910 -20.492   3.151  1.00  0.00     0.001 A 
HETATM   25  C   UNL     1      44.155 -20.442   4.518  1.00  0.00     0.002 A 
HETATM   26  C   UNL     1      43.927 -19.259   5.222  1.00  0.00     0.030 A 
BRANCH  22  27
HETATM   27  C   UNL     1      42.967 -16.960   2.309  1.00  0.00     0.254 C 
HETATM   28  N   UNL     1      41.639 -16.598   2.172  1.00  0.00    -0.352 N 
HETATM   29  H   UNL     1      40.930 -17.180   2.599  1.00  0.00     0.163 HD
HETATM   30  O   UNL     1      43.894 -16.294   1.855  1.00  0.00    -0.268 OA
BRANCH  28  31
HETATM   31  C   UNL     1      41.238 -15.456   1.417  1.00  0.00     0.084 A 
HETATM   32  C   UNL     1      39.869 -15.393   0.801  1.00  0.00     0.027 A 
HETATM   33  C   UNL     1      40.213 -14.495   1.952  1.00  0.00     0.027 A 
ENDBRANCH  28  31
ENDBRANCH  22  27
ENDBRANCH   2  21
TORSDOF 9
ENDMDL
MODEL 2
REMARK VINA RESULT:      -8.1      3.027      5.444
REMARK  9 active torsions:
REMARK  status: ('A' for Active; 'I' for Inactive)
REMARK    1  A    between atoms: C_2  and  N_3 
REMARK    2  A    between atoms: C_6  and  C_7 
REMARK    3  A    between atoms: C_7  and  O_8 
REMARK    4  A    between atoms: O_8  and  C_9 
REMARK    5  A    between atoms: C_12  and  C_13 
REMARK    6  A    between atoms: C_14  and  C_15 
REMARK       I    between atoms: C_15  and  N_16 
REMARK    7  A    between atoms: N_16  and  C_17 
REMARK    8  A    between atoms: C_18  and  C_19 
REMARK       I    between atoms: C_19  and  N_20 
REMARK    9  A    between atoms: N_20  and  C_21 
ROOT
HETATM    1  C   UNL     1      41.977 -16.312   2.135  1.00  0.00     0.245 C 
HETATM    2  N   UNL     1      43.158 -17.034   2.076  1.00  0.00    -0.323 N 
HETATM    3  O   UNL     1      40.968 -16.624   2.750  1.00  0.00    -0.268 OA
HETATM    4  H   UNL     1      43.977 -16.476   1.862  1.00  0.00     0.169 HD
ENDROOT
BRANCH   1   5
HETATM    5  C   UNL     1      42.108 -14.998   1.457  1.00  0.00     0.075 C 
HETATM    6  C   UNL     1      40.986 -14.359   1.093  1.00  0.00     0.020 C 
BRANCH   6   7
HETATM    7  C   UNL     1      40.913 -13.092   0.432  1.00  0.00     0.005 A 
HETATM    8  C   UNL     1      41.203 -11.818   1.025  1.00  0.00     0.073 A 
HETATM    9  C   UNL     1      41.084 -10.877   0.002  1.00  0.00     0.025 A 
HETATM   10  N   UNL     1      40.777 -11.545  -1.166  1.00  0.00    -0.353 N 
HETATM   11  C   UNL     1      41.276  -9.395   0.089  1.00  0.00     0.069 C 
HETATM   12  C   UNL     1      40.632 -12.898  -0.911  1.00  0.00     0.019 A 
HETATM   13  C   UNL     1      40.304 -13.873  -1.995  1.00  0.00     0.069 C 
BRANCH   8  14
HETATM   14  C   UNL     1      41.566 -11.491   2.414  1.00  0.00     0.296 C 
HETATM   15  O   UNL     1      40.757 -11.458   3.337  1.00  0.00    -0.259 OA
BRANCH  14  16
HETATM   16  O   UNL     1      42.892 -11.214   2.567  1.00  0.00    -0.318 OA
BRANCH  16  17
HETATM   17  C   UNL     1      43.654 -12.135   3.358  1.00  0.00     0.174 C 
HETATM   18  C   UNL     1      44.009 -11.506   4.692  1.00  0.00     0.034 C 
ENDBRANCH  16  17
ENDBRANCH  14  16
ENDBRANCH   8  14
BRANCH  10  19
HETATM   19  C   UNL     1      40.694 -10.930  -2.488  1.00  0.00     0.124 C 
HETATM   20  C   UNL     1      39.285 -10.491  -2.844  1.00  0.00     0.027 C 
ENDBRANCH  10  19
ENDBRANCH   6   7
ENDBRANCH   1   5
BRANCH   2  21
HETATM   21  C   UNL     1      43.385 -18.174   2.892  1.00  0.00     0.050 A 
HETATM   22  C   UNL     1      43.658 -18.159   4.274  1.00  0.00     0.058 A 
HETATM   23  C   UNL     1      44.008 -19.364   4.915  1.00  0.00     0.019 A 
HETATM   24  C   UNL     1      44.042 -20.570   4.215  1.00  0.00     0.001 A 
HETATM   25  C   UNL     1      43.705 -20.593   2.867  1.00  0.00     0.002 A 
HETATM   26  C   UNL     1      43.368 -19.407   2.214  1.00  0.00     0.030 A 
BRANCH  22  27
HETATM   27  C   UNL     1      43.477 -16.991   5.189  1.00  0.00     0.254 C 
HETATM   28  N   UNL     1      42.177 -16.694   5.555  1.00  0.00    -0.352 N 
HETATM   29  H   UNL     1      41.422 -17.223   5.139  1.00  0.00     0.163 HD
HETATM   30  O   UNL     1      44.456 -16.425   5.669  1.00  0.00    -0.268 OA
BRANCH  28  31
HETATM   31  C   UNL     1      41.868 -15.642   6.467  1.00  0.00     0.084 A 
HETATM   32  C   UNL     1      41.710 -14.230   5.976  1.00  0.00     0.027 A 
HETATM   33  C   UNL     1      40.513 -14.990   6.467  1.00  0.00     0.027 A 
ENDBRANCH  28  31
ENDBRANCH  22  27
ENDBRANCH   2  21
TORSDOF 9
ENDMDL
MODEL 3
REMARK VINA RESULT:      -8.1      3.367      6.815
REMARK  9 active torsions:
REMARK  status: ('A' for Active; 'I' for Inactive)
REMARK    1  A    between atoms: C_2  and  N_3 
REMARK    2  A    between atoms: C_6  and  C_7 
REMARK    3  A    between atoms: C_7  and  O_8 
REMARK    4  A    between atoms: O_8  and  C_9 
REMARK    5  A    between atoms: C_12  and  C_13 
REMARK    6  A    between atoms: C_14  and  C_15 
REMARK       I    between atoms: C_15  and  N_16 
REMARK    7  A    between atoms: N_16  and  C_17 
REMARK    8  A    between atoms: C_18  and  C_19 
REMARK       I    between atoms: C_19  and  N_20 
REMARK    9  A    between atoms: N_20  and  C_21 
ROOT
HETATM    1  C   UNL     1      42.056 -16.264   2.130  1.00  0.00     0.245 C 
HETATM    2  N   UNL     1      43.237 -16.988   2.085  1.00  0.00    -0.323 N 
HETATM    3  O   UNL     1      41.022 -16.599   2.688  1.00  0.00    -0.268 OA
HETATM    4  H   UNL     1      44.065 -16.425   1.930  1.00  0.00     0.169 HD
ENDROOT
BRANCH   1   5
HETATM    5  C   UNL     1      42.218 -14.921   1.519  1.00  0.00     0.075 C 
HETATM    6  C   UNL     1      41.132 -14.324   1.006  1.00  0.00     0.020 C 
BRANCH   6   7
HETATM    7  C   UNL     1      41.092 -13.038   0.381  1.00  0.00     0.005 A 
HETATM    8  C   UNL     1      40.628 -12.764  -0.949  1.00  0.00     0.073 A 
HETATM    9  C   UNL     1      40.689 -11.379  -1.105  1.00  0.00     0.025 A 
HETATM   10  N   UNL     1      41.131 -10.829   0.082  1.00  0.00    -0.353 N 
HETATM   11  C   UNL     1      40.324 -10.573  -2.312  1.00  0.00     0.069 C 
HETATM   12  C   UNL     1      41.418 -11.835   0.989  1.00  0.00     0.019 A 
HETATM   13  C   UNL     1      41.911 -11.536   2.367  1.00  0.00     0.069 C 
BRANCH   8  14
HETATM   14  C   UNL     1      40.158 -13.695  -1.988  1.00  0.00     0.296 C 
HETATM   15  O   UNL     1      40.808 -13.976  -2.990  1.00  0.00    -0.259 OA
BRANCH  14  16
HETATM   16  O   UNL     1      38.920 -14.203  -1.729  1.00  0.00    -0.318 OA
BRANCH  16  17
HETATM   17  C   UNL     1      37.922 -14.009  -2.738  1.00  0.00     0.174 C 
HETATM   18  C   UNL     1      37.246 -12.663  -2.552  1.00  0.00     0.034 C 
ENDBRANCH  16  17
ENDBRANCH  14  16
ENDBRANCH   8  14
BRANCH  10  19
HETATM   19  C   UNL     1      41.210  -9.400   0.366  1.00  0.00     0.124 C 
HETATM   20  C   UNL     1      39.906  -8.834   0.899  1.00  0.00     0.027 C 
ENDBRANCH  10  19
ENDBRANCH   6   7
ENDBRANCH   1   5
BRANCH   2  21
HETATM   21  C   UNL     1      43.427 -18.166   2.856  1.00  0.00     0.050 A 
HETATM   22  C   UNL     1      43.706 -18.212   4.236  1.00  0.00     0.058 A 
HETATM   23  C   UNL     1      44.017 -19.453   4.829  1.00  0.00     0.019 A 
HETATM   24  C   UNL     1      44.007 -20.631   4.084  1.00  0.00     0.001 A 
HETATM   25  C   UNL     1      43.664 -20.591   2.738  1.00  0.00     0.002 A 
HETATM   26  C   UNL     1      43.365 -19.370   2.132  1.00  0.00     0.030 A 
BRANCH  22  27
HETATM   27  C   UNL     1      43.568 -17.075   5.196  1.00  0.00     0.254 C 
HETATM   28  N   UNL     1      42.278 -16.714   5.539  1.00  0.00    -0.352 N 
HETATM   29  H   UNL     1      41.505 -17.177   5.080  1.00  0.00     0.163 HD
HETATM   30  O   UNL     1      44.565 -16.591   5.726  1.00  0.00    -0.268 OA
BRANCH  28  31
HETATM   31  C   UNL     1      42.006 -15.683   6.487  1.00  0.00     0.084 A 
HETATM   32  C   UNL     1      41.948 -14.245   6.053  1.00  0.00     0.027 A 
HETATM   33  C   UNL     1      40.694 -14.950   6.478  1.00  0.00     0.027 A 
ENDBRANCH  28  31
ENDBRANCH  22  27
ENDBRANCH   2  21
TORSDOF 9
ENDMDL
MODEL 4
REMARK VINA RESULT:      -7.8      1.865      8.673
REMARK  9 active torsions:
REMARK  status: ('A' for Active; 'I' for Inactive)
REMARK    1  A    between atoms: C_2  and  N_3 
REMARK    2  A    between atoms: C_6  and  C_7 
REMARK    3  A    between atoms: C_7  and  O_8 
REMARK    4  A    between atoms: O_8  and  C_9 
REMARK    5  A    between atoms: C_12  and  C_13 
REMARK    6  A    between atoms: C_14  and  C_15 
REMARK       I    between atoms: C_15  and  N_16 
REMARK    7  A    between atoms: N_16  and  C_17 
REMARK    8  A    between atoms: C_18  and  C_19 
REMARK       I    between atoms: C_19  and  N_20 
REMARK    9  A    between atoms: N_20  and  C_21 
ROOT
HETATM    1  C   UNL     1      40.886 -13.544   5.818  1.00  0.00     0.245 C 
HETATM    2  N   UNL     1      41.889 -12.682   5.402  1.00  0.00    -0.323 N 
HETATM    3  O   UNL     1      39.862 -13.232   6.408  1.00  0.00    -0.268 OA
HETATM    4  H   UNL     1      42.442 -13.031   4.627  1.00  0.00     0.169 HD
ENDROOT
BRANCH   1   5
HETATM    5  C   UNL     1      41.126 -14.929   5.340  1.00  0.00     0.075 C 
HETATM    6  C   UNL     1      42.393 -15.316   5.130  1.00  0.00     0.020 C 
BRANCH   6   7
HETATM    7  C   UNL     1      42.817 -16.603   4.672  1.00  0.00     0.005 A 
HETATM    8  C   UNL     1      42.869 -17.034   3.305  1.00  0.00     0.073 A 
HETATM    9  C   UNL     1      43.418 -18.317   3.321  1.00  0.00     0.025 A 
HETATM   10  N   UNL     1      43.724 -18.638   4.629  1.00  0.00    -0.353 N 
HETATM   11  C   UNL     1      43.682 -19.219   2.157  1.00  0.00     0.069 C 
HETATM   12  C   UNL     1      43.327 -17.615   5.472  1.00  0.00     0.019 A 
HETATM   13  C   UNL     1      43.539 -17.684   6.949  1.00  0.00     0.069 C 
BRANCH   8  14
HETATM   14  C   UNL     1      42.456 -16.325   2.082  1.00  0.00     0.296 C 
HETATM   15  O   UNL     1      43.218 -15.642   1.405  1.00  0.00    -0.259 OA
BRANCH  14  16
HETATM   16  O   UNL     1      41.136 -16.495   1.788  1.00  0.00    -0.318 OA
BRANCH  16  17
HETATM   17  C   UNL     1      40.334 -15.310   1.723  1.00  0.00     0.174 C 
HETATM   18  C   UNL     1      39.979 -14.999   0.280  1.00  0.00     0.034 C 
ENDBRANCH  16  17
ENDBRANCH  14  16
ENDBRANCH   8  14
BRANCH  10  19
HETATM   19  C   UNL     1      44.431 -19.844   5.052  1.00  0.00     0.124 C 
HETATM   20  C   UNL     1      43.509 -21.040   5.211  1.00  0.00     0.027 C 
ENDBRANCH  10  19
ENDBRANCH   6   7
ENDBRANCH   1   5
BRANCH   2  21
HETATM   21  C   UNL     1      41.745 -11.271   5.471  1.00  0.00     0.050 A 
HETATM   22  C   UNL     1      42.254 -10.439   6.487  1.00  0.00     0.058 A 
HETATM   23  C   UNL     1      41.900  -9.074   6.493  1.00  0.00     0.019 A 
HETATM   24  C   UNL     1      41.098  -8.532   5.490  1.00  0.00     0.001 A 
HETATM   25  C   UNL     1      40.654  -9.341   4.451  1.00  0.00     0.002 A 
HETATM   26  C   UNL     1      40.985 -10.697   4.436  1.00  0.00     0.030 A 
BRANCH  22  27
HETATM   27  C   UNL     1      43.271 -10.829   7.510  1.00  0.00     0.254 C 
HETATM   28  N   UNL     1      43.130 -10.259   8.763  1.00  0.00    -0.352 N 
HETATM   29  H   UNL     1      42.407  -9.567   8.904  1.00  0.00     0.163 HD
HETATM   30  O   UNL     1      44.097 -11.702   7.257  1.00  0.00    -0.268 OA
BRANCH  28  31
HETATM   31  C   UNL     1      43.998 -10.589   9.846  1.00  0.00     0.084 A 
HETATM   32  C   UNL     1      44.891  -9.543  10.452  1.00  0.00     0.027 A 
HETATM   33  C   UNL     1      43.729 -10.080  11.235  1.00  0.00     0.027 A 
ENDBRANCH  28  31
ENDBRANCH  22  27
ENDBRANCH   2  21
TORSDOF 9
ENDMDL
MODEL 5
REMARK VINA RESULT:      -7.8      3.946      7.571
REMARK  9 active torsions:
REMARK  status: ('A' for Active; 'I' for Inactive)
REMARK    1  A    between atoms: C_2  and  N_3 
REMARK    2  A    between atoms: C_6  and  C_7 
REMARK    3  A    between atoms: C_7  and  O_8 
REMARK    4  A    between atoms: O_8  and  C_9 
REMARK    5  A    between atoms: C_12  and  C_13 
REMARK    6  A    between atoms: C_14  and  C_15 
REMARK       I    between atoms: C_15  and  N_16 
REMARK    7  A    between atoms: N_16  and  C_17 
REMARK    8  A    between atoms: C_18  and  C_19 
REMARK       I    between atoms: C_19  and  N_20 
REMARK    9  A    between atoms: N_20  and  C_21 
ROOT
HETATM    1  C   UNL     1      40.609 -14.314   0.832  1.00  0.00     0.245 C 
HETATM    2  N   UNL     1      40.878 -14.102  -0.511  1.00  0.00    -0.323 N 
HETATM    3  O   UNL     1      39.530 -14.166   1.386  1.00  0.00    -0.268 OA
HETATM    4  H   UNL     1      41.675 -14.621  -0.862  1.00  0.00     0.169 HD
ENDROOT
BRANCH   1   5
HETATM    5  C   UNL     1      41.780 -14.893   1.537  1.00  0.00     0.075 C 
HETATM    6  C   UNL     1      41.567 -15.535   2.695  1.00  0.00     0.020 C 
BRANCH   6   7
HETATM    7  C   UNL     1      42.565 -16.154   3.513  1.00  0.00     0.005 A 
HETATM    8  C   UNL     1      43.100 -15.622   4.733  1.00  0.00     0.073 A 
HETATM    9  C   UNL     1      43.974 -16.590   5.229  1.00  0.00     0.025 A 
HETATM   10  N   UNL     1      43.946 -17.675   4.377  1.00  0.00    -0.353 N 
HETATM   11  C   UNL     1      44.800 -16.531   6.476  1.00  0.00     0.069 C 
HETATM   12  C   UNL     1      43.117 -17.408   3.301  1.00  0.00     0.019 A 
HETATM   13  C   UNL     1      42.887 -18.409   2.216  1.00  0.00     0.069 C 
BRANCH   8  14
HETATM   14  C   UNL     1      42.826 -14.336   5.395  1.00  0.00     0.296 C 
HETATM   15  O   UNL     1      43.283 -13.264   5.010  1.00  0.00    -0.259 OA
BRANCH  14  16
HETATM   16  O   UNL     1      42.022 -14.460   6.489  1.00  0.00    -0.318 OA
BRANCH  16  17
HETATM   17  C   UNL     1      40.610 -14.502   6.248  1.00  0.00     0.174 C 
HETATM   18  C   UNL     1      40.066 -15.880   6.578  1.00  0.00     0.034 C 
ENDBRANCH  16  17
ENDBRANCH  14  16
ENDBRANCH   8  14
BRANCH  10  19
HETATM   19  C   UNL     1      44.627 -18.945   4.612  1.00  0.00     0.124 C 
HETATM   20  C   UNL     1      43.829 -19.883   5.501  1.00  0.00     0.027 C 
ENDBRANCH  10  19
ENDBRANCH   6   7
ENDBRANCH   1   5
BRANCH   2  21
HETATM   21  C   UNL     1      39.848 -13.842  -1.453  1.00  0.00     0.050 A 
HETATM   22  C   UNL     1      39.303 -12.577  -1.751  1.00  0.00     0.058 A 
HETATM   23  C   UNL     1      38.182 -12.500  -2.602  1.00  0.00     0.019 A 
HETATM   24  C   UNL     1      37.639 -13.644  -3.186  1.00  0.00     0.001 A 
HETATM   25  C   UNL     1      38.222 -14.882  -2.945  1.00  0.00     0.002 A 
HETATM   26  C   UNL     1      39.325 -14.978  -2.096  1.00  0.00     0.030 A 
BRANCH  22  27
HETATM   27  C   UNL     1      39.886 -11.258  -1.359  1.00  0.00     0.254 C 
HETATM   28  N   UNL     1      39.816 -10.251  -2.305  1.00  0.00    -0.352 N 
HETATM   29  H   UNL     1      39.448 -10.469  -3.221  1.00  0.00     0.163 HD
HETATM   30  O   UNL     1      40.286 -11.076  -0.212  1.00  0.00    -0.268 OA
BRANCH  28  31
HETATM   31  C   UNL     1      40.284  -8.930  -2.040  1.00  0.00     0.084 A 
HETATM   32  C   UNL     1      41.731  -8.579  -2.247  1.00  0.00     0.027 A 
HETATM   33  C   UNL     1      40.686  -8.012  -3.162  1.00  0.00     0.027 A 
ENDBRANCH  28  31
ENDBRANCH  22  27
ENDBRANCH   2  21
TORSDOF 9
ENDMDL
MODEL 6
REMARK VINA RESULT:      -7.6      2.334      8.795
REMARK  9 active torsions:
REMARK  status: ('A' for Active; 'I' for Inactive)
REMARK    1  A    between atoms: C_2  and  N_3 
REMARK    2  A    between atoms: C_6  and  C_7 
REMARK    3  A    between atoms: C_7  and  O_8 
REMARK    4  A    between atoms: O_8  and  C_9 
REMARK    5  A    between atoms: C_12  and  C_13 
REMARK    6  A    between atoms: C_14  and  C_15 
REMARK       I    between atoms: C_15  and  N_16 
REMARK    7  A    between atoms: N_16  and  C_17 
REMARK    8  A    between atoms: C_18  and  C_19 
REMARK       I    between atoms: C_19  and  N_20 
REMARK    9  A    between atoms: N_20  and  C_21 
ROOT
HETATM    1  C   UNL     1      42.676 -11.827   6.097  1.00  0.00     0.245 C 
HETATM    2  N   UNL     1      43.263 -11.862   7.352  1.00  0.00    -0.323 N 
HETATM    3  O   UNL     1      42.532 -10.838   5.393  1.00  0.00    -0.268 OA
HETATM    4  H   UNL     1      43.636 -12.768   7.611  1.00  0.00     0.169 HD
ENDROOT
BRANCH   1   5
HETATM    5  C   UNL     1      42.346 -13.190   5.612  1.00  0.00     0.075 C 
HETATM    6  C   UNL     1      43.344 -14.079   5.493  1.00  0.00     0.020 C 
BRANCH   6   7
HETATM    7  C   UNL     1      43.220 -15.432   5.045  1.00  0.00     0.005 A 
HETATM    8  C   UNL     1      43.043 -15.853   3.685  1.00  0.00     0.073 A 
HETATM    9  C   UNL     1      43.057 -17.249   3.706  1.00  0.00     0.025 A 
HETATM   10  N   UNL     1      43.272 -17.660   5.006  1.00  0.00    -0.353 N 
HETATM   11  C   UNL     1      42.903 -18.187   2.550  1.00  0.00     0.069 C 
HETATM   12  C   UNL     1      43.336 -16.559   5.844  1.00  0.00     0.019 A 
HETATM   13  C   UNL     1      43.568 -16.700   7.313  1.00  0.00     0.069 C 
BRANCH   8  14
HETATM   14  C   UNL     1      42.882 -15.044   2.466  1.00  0.00     0.296 C 
HETATM   15  O   UNL     1      43.748 -14.940   1.602  1.00  0.00    -0.259 OA
BRANCH  14  16
HETATM   16  O   UNL     1      41.677 -14.412   2.402  1.00  0.00    -0.318 OA
BRANCH  16  17
HETATM   17  C   UNL     1      40.517 -15.208   2.672  1.00  0.00     0.174 C 
HETATM   18  C   UNL     1      39.983 -15.806   1.384  1.00  0.00     0.034 C 
ENDBRANCH  16  17
ENDBRANCH  14  16
ENDBRANCH   8  14
BRANCH  10  19
HETATM   19  C   UNL     1      43.478 -19.043   5.426  1.00  0.00     0.124 C 
HETATM   20  C   UNL     1      44.665 -19.694   4.739  1.00  0.00     0.027 C 
ENDBRANCH  10  19
ENDBRANCH   6   7
ENDBRANCH   1   5
BRANCH   2  21
HETATM   21  C   UNL     1      43.934 -10.738   7.902  1.00  0.00     0.050 A 
HETATM   22  C   UNL     1      43.323  -9.659   8.572  1.00  0.00     0.058 A 
HETATM   23  C   UNL     1      44.109  -8.545   8.929  1.00  0.00     0.019 A 
HETATM   24  C   UNL     1      45.479  -8.515   8.673  1.00  0.00     0.001 A 
HETATM   25  C   UNL     1      46.090  -9.610   8.074  1.00  0.00     0.002 A 
HETATM   26  C   UNL     1      45.326 -10.717   7.702  1.00  0.00     0.030 A 
BRANCH  22  27
HETATM   27  C   UNL     1      41.919  -9.628   9.083  1.00  0.00     0.254 C 
HETATM   28  N   UNL     1      41.766  -9.638  10.458  1.00  0.00    -0.352 N 
HETATM   29  H   UNL     1      42.588  -9.736  11.038  1.00  0.00     0.163 HD
HETATM   30  O   UNL     1      40.982  -9.477   8.304  1.00  0.00    -0.268 OA
BRANCH  28  31
HETATM   31  C   UNL     1      40.484  -9.554  11.078  1.00  0.00     0.084 A 
HETATM   32  C   UNL     1      40.284 -10.050  12.482  1.00  0.00     0.027 A 
HETATM   33  C   UNL     1      40.227  -8.579  12.193  1.00  0.00     0.027 A 
ENDBRANCH  28  31
ENDBRANCH  22  27
ENDBRANCH   2  21
TORSDOF 9
ENDMDL
MODEL 7
REMARK VINA RESULT:      -7.5      1.910      3.296
REMARK  9 active torsions:
REMARK  status: ('A' for Active; 'I' for Inactive)
REMARK    1  A    between atoms: C_2  and  N_3 
REMARK    2  A    between atoms: C_6  and  C_7 
REMARK    3  A    between atoms: C_7  and  O_8 
REMARK    4  A    between atoms: O_8  and  C_9 
REMARK    5  A    between atoms: C_12  and  C_13 
REMARK    6  A    between atoms: C_14  and  C_15 
REMARK       I    between atoms: C_15  and  N_16 
REMARK    7  A    between atoms: N_16  and  C_17 
REMARK    8  A    between atoms: C_18  and  C_19 
REMARK       I    between atoms: C_19  and  N_20 
REMARK    9  A    between atoms: N_20  and  C_21 
ROOT
HETATM    1  C   UNL     1      43.697 -15.250   6.189  1.00  0.00     0.245 C 
HETATM    2  N   UNL     1      42.852 -15.730   5.202  1.00  0.00    -0.323 N 
HETATM    3  O   UNL     1      44.761 -15.743   6.534  1.00  0.00    -0.268 OA
HETATM    4  H   UNL     1      42.246 -15.026   4.795  1.00  0.00     0.169 HD
ENDROOT
BRANCH   1   5
HETATM    5  C   UNL     1      43.229 -13.945   6.719  1.00  0.00     0.075 C 
HETATM    6  C   UNL     1      43.880 -12.836   6.338  1.00  0.00     0.020 C 
BRANCH   6   7
HETATM    7  C   UNL     1      43.576 -11.497   6.742  1.00  0.00     0.005 A 
HETATM    8  C   UNL     1      42.322 -10.827   6.552  1.00  0.00     0.073 A 
HETATM    9  C   UNL     1      42.449  -9.582   7.171  1.00  0.00     0.025 A 
HETATM   10  N   UNL     1      43.703  -9.511   7.743  1.00  0.00    -0.353 N 
HETATM   11  C   UNL     1      41.429  -8.490   7.257  1.00  0.00     0.069 C 
HETATM   12  C   UNL     1      44.419 -10.660   7.457  1.00  0.00     0.019 A 
HETATM   13  C   UNL     1      45.812 -10.865   7.955  1.00  0.00     0.069 C 
BRANCH   8  14
HETATM   14  C   UNL     1      41.104 -11.292   5.868  1.00  0.00     0.296 C 
HETATM   15  O   UNL     1      40.213 -11.925   6.426  1.00  0.00    -0.259 OA
BRANCH  14  16
HETATM   16  O   UNL     1      41.075 -10.958   4.547  1.00  0.00    -0.318 OA
BRANCH  16  17
HETATM   17  C   UNL     1      41.537 -11.951   3.623  1.00  0.00     0.174 C 
HETATM   18  C   UNL     1      42.799 -11.472   2.930  1.00  0.00     0.034 C 
ENDBRANCH  16  17
ENDBRANCH  14  16
ENDBRANCH   8  14
BRANCH  10  19
HETATM   19  C   UNL     1      44.177  -8.420   8.590  1.00  0.00     0.124 C 
HETATM   20  C   UNL     1      43.827  -8.618  10.054  1.00  0.00     0.027 C 
ENDBRANCH  10  19
ENDBRANCH   6   7
ENDBRANCH   1   5
BRANCH   2  21
HETATM   21  C   UNL     1      43.229 -16.793   4.339  1.00  0.00     0.050 A 
HETATM   22  C   UNL     1      43.102 -16.801   2.936  1.00  0.00     0.058 A 
HETATM   23  C   UNL     1      43.383 -17.990   2.232  1.00  0.00     0.019 A 
HETATM   24  C   UNL     1      43.826 -19.134   2.895  1.00  0.00     0.001 A 
HETATM   25  C   UNL     1      44.016 -19.101   4.271  1.00  0.00     0.002 A 
HETATM   26  C   UNL     1      43.731 -17.937   4.985  1.00  0.00     0.030 A 
BRANCH  22  27
HETATM   27  C   UNL     1      42.827 -15.611   2.075  1.00  0.00     0.254 C 
HETATM   28  N   UNL     1      41.545 -15.505   1.566  1.00  0.00    -0.352 N 
HETATM   29  H   UNL     1      40.890 -16.257   1.736  1.00  0.00     0.163 HD
HETATM   30  O   UNL     1      43.675 -14.732   1.947  1.00  0.00    -0.268 OA
BRANCH  28  31
HETATM   31  C   UNL     1      41.133 -14.391   0.777  1.00  0.00     0.084 A 
HETATM   32  C   UNL     1      40.053 -14.547  -0.256  1.00  0.00     0.027 A 
HETATM   33  C   UNL     1      39.790 -13.748   0.986  1.00  0.00     0.027 A 
ENDBRANCH  28  31
ENDBRANCH  22  27
ENDBRANCH   2  21
TORSDOF 9
ENDMDL
MODEL 8
REMARK VINA RESULT:      -7.5      3.770      7.362
REMARK  9 active torsions:
REMARK  status: ('A' for Active; 'I' for Inactive)
REMARK    1  A    between atoms: C_2  and  N_3 
REMARK    2  A    between atoms: C_6  and  C_7 
REMARK    3  A    between atoms: C_7  and  O_8 
REMARK    4  A    between atoms: O_8  and  C_9 
REMARK    5  A    between atoms: C_12  and  C_13 
REMARK    6  A    between atoms: C_14  and  C_15 
REMARK       I    between atoms: C_15  and  N_16 
REMARK    7  A    between atoms: N_16  and  C_17 
REMARK    8  A    between atoms: C_18  and  C_19 
REMARK       I    between atoms: C_19  and  N_20 
REMARK    9  A    between atoms: N_20  and  C_21 
ROOT
HETATM    1  C   UNL     1      41.565 -15.138   1.814  1.00  0.00     0.245 C 
HETATM    2  N   UNL     1      41.264 -16.186   2.669  1.00  0.00    -0.323 N 
HETATM    3  O   UNL     1      42.683 -14.766   1.490  1.00  0.00    -0.268 OA
HETATM    4  H   UNL     1      40.345 -16.587   2.528  1.00  0.00     0.169 HD
ENDROOT
BRANCH   1   5
HETATM    5  C   UNL     1      40.340 -14.569   1.198  1.00  0.00     0.075 C 
HETATM    6  C   UNL     1      40.416 -13.349   0.647  1.00  0.00     0.020 C 
BRANCH   6   7
HETATM    7  C   UNL     1      39.348 -12.642   0.011  1.00  0.00     0.005 A 
HETATM    8  C   UNL     1      38.825 -12.910  -1.298  1.00  0.00     0.073 A 
HETATM    9  C   UNL     1      37.746 -12.041  -1.471  1.00  0.00     0.025 A 
HETATM   10  N   UNL     1      37.592 -11.307  -0.312  1.00  0.00    -0.353 N 
HETATM   11  C   UNL     1      36.857 -11.907  -2.668  1.00  0.00     0.069 C 
HETATM   12  C   UNL     1      38.589 -11.636   0.591  1.00  0.00     0.019 A 
HETATM   13  C   UNL     1      38.670 -11.001   1.940  1.00  0.00     0.069 C 
BRANCH   8  14
HETATM   14  C   UNL     1      39.272 -13.887  -2.304  1.00  0.00     0.296 C 
HETATM   15  O   UNL     1      39.071 -15.095  -2.212  1.00  0.00    -0.259 OA
BRANCH  14  16
HETATM   16  O   UNL     1      39.944 -13.314  -3.341  1.00  0.00    -0.318 OA
BRANCH  16  17
HETATM   17  C   UNL     1      41.094 -12.528  -3.006  1.00  0.00     0.174 C 
HETATM   18  C   UNL     1      40.865 -11.078  -3.390  1.00  0.00     0.034 C 
ENDBRANCH  16  17
ENDBRANCH  14  16
ENDBRANCH   8  14
BRANCH  10  19
HETATM   19  C   UNL     1      36.497 -10.379  -0.047  1.00  0.00     0.124 C 
HETATM   20  C   UNL     1      36.785  -8.973  -0.546  1.00  0.00     0.027 C 
ENDBRANCH  10  19
ENDBRANCH   6   7
ENDBRANCH   1   5
BRANCH   2  21
HETATM   21  C   UNL     1      42.261 -17.079   3.145  1.00  0.00     0.050 A 
HETATM   22  C   UNL     1      42.977 -16.949   4.352  1.00  0.00     0.058 A 
HETATM   23  C   UNL     1      44.040 -17.837   4.614  1.00  0.00     0.019 A 
HETATM   24  C   UNL     1      44.361 -18.862   3.724  1.00  0.00     0.001 A 
HETATM   25  C   UNL     1      43.609 -19.029   2.568  1.00  0.00     0.002 A 
HETATM   26  C   UNL     1      42.560 -18.152   2.287  1.00  0.00     0.030 A 
BRANCH  22  27
HETATM   27  C   UNL     1      42.631 -16.033   5.481  1.00  0.00     0.254 C 
HETATM   28  N   UNL     1      43.475 -14.955   5.677  1.00  0.00    -0.352 N 
HETATM   29  H   UNL     1      44.307 -14.879   5.107  1.00  0.00     0.163 HD
HETATM   30  O   UNL     1      41.581 -16.187   6.101  1.00  0.00    -0.268 OA
BRANCH  28  31
HETATM   31  C   UNL     1      43.228 -13.973   6.681  1.00  0.00     0.084 A 
HETATM   32  C   UNL     1      44.155 -12.801   6.845  1.00  0.00     0.027 A 
HETATM   33  C   UNL     1      42.768 -12.589   6.315  1.00  0.00     0.027 A 
ENDBRANCH  28  31
ENDBRANCH  22  27
ENDBRANCH   2  21
TORSDOF 9
ENDMDL
MODEL 9
REMARK VINA RESULT:      -7.3      3.346      6.293
REMARK  9 active torsions:
REMARK  status: ('A' for Active; 'I' for Inactive)
REMARK    1  A    between atoms: C_2  and  N_3 
REMARK    2  A    between atoms: C_6  and  C_7 
REMARK    3  A    between atoms: C_7  and  O_8 
REMARK    4  A    between atoms: O_8  and  C_9 
REMARK    5  A    between atoms: C_12  and  C_13 
REMARK    6  A    between atoms: C_14  and  C_15 
REMARK       I    between atoms: C_15  and  N_16 
REMARK    7  A    between atoms: N_16  and  C_17 
REMARK    8  A    between atoms: C_18  and  C_19 
REMARK       I    between atoms: C_19  and  N_20 
REMARK    9  A    between atoms: N_20  and  C_21 
ROOT
HETATM    1  C   UNL     1      42.101 -15.492   1.745  1.00  0.00     0.245 C 
HETATM    2  N   UNL     1      41.687 -16.516   2.582  1.00  0.00    -0.323 N 
HETATM    3  O   UNL     1      43.256 -15.195   1.481  1.00  0.00    -0.268 OA
HETATM    4  H   UNL     1      40.752 -16.858   2.391  1.00  0.00     0.169 HD
ENDROOT
BRANCH   1   5
HETATM    5  C   UNL     1      40.950 -14.848   1.064  1.00  0.00     0.075 C 
HETATM    6  C   UNL     1      41.051 -13.550   0.741  1.00  0.00     0.020 C 
BRANCH   6   7
HETATM    7  C   UNL     1      40.052 -12.763   0.086  1.00  0.00     0.005 A 
HETATM    8  C   UNL     1      39.283 -11.712   0.687  1.00  0.00     0.073 A 
HETATM    9  C   UNL     1      38.500 -11.170  -0.333  1.00  0.00     0.025 A 
HETATM   10  N   UNL     1      38.806 -11.828  -1.508  1.00  0.00    -0.353 N 
HETATM   11  C   UNL     1      37.512 -10.050  -0.238  1.00  0.00     0.069 C 
HETATM   12  C   UNL     1      39.727 -12.832  -1.260  1.00  0.00     0.019 A 
HETATM   13  C   UNL     1      40.248 -13.709  -2.351  1.00  0.00     0.069 C 
BRANCH   8  14
HETATM   14  C   UNL     1      39.271 -11.239   2.081  1.00  0.00     0.296 C 
HETATM   15  O   UNL     1      39.740 -10.161   2.435  1.00  0.00    -0.259 OA
BRANCH  14  16
HETATM   16  O   UNL     1      38.697 -12.127   2.940  1.00  0.00    -0.318 OA
BRANCH  16  17
HETATM   17  C   UNL     1      39.570 -12.776   3.873  1.00  0.00     0.174 C 
HETATM   18  C   UNL     1      39.344 -12.225   5.269  1.00  0.00     0.034 C 
ENDBRANCH  16  17
ENDBRANCH  14  16
ENDBRANCH   8  14
BRANCH  10  19
HETATM   19  C   UNL     1      38.293 -11.471  -2.827  1.00  0.00     0.124 C 
HETATM   20  C   UNL     1      39.063 -10.329  -3.466  1.00  0.00     0.027 C 
ENDBRANCH  10  19
ENDBRANCH   6   7
ENDBRANCH   1   5
BRANCH   2  21
HETATM   21  C   UNL     1      42.597 -17.471   3.110  1.00  0.00     0.050 A 
HETATM   22  C   UNL     1      43.269 -17.375   4.345  1.00  0.00     0.058 A 
HETATM   23  C   UNL     1      44.254 -18.331   4.662  1.00  0.00     0.019 A 
HETATM   24  C   UNL     1      44.538 -19.389   3.799  1.00  0.00     0.001 A 
HETATM   25  C   UNL     1      43.825 -19.520   2.614  1.00  0.00     0.002 A 
HETATM   26  C   UNL     1      42.855 -18.575   2.278  1.00  0.00     0.030 A 
BRANCH  22  27
HETATM   27  C   UNL     1      42.942 -16.419   5.447  1.00  0.00     0.254 C 
HETATM   28  N   UNL     1      43.175 -15.081   5.188  1.00  0.00    -0.352 N 
HETATM   29  H   UNL     1      43.612 -14.823   4.314  1.00  0.00     0.163 HD
HETATM   30  O   UNL     1      42.385 -16.820   6.466  1.00  0.00    -0.268 OA
BRANCH  28  31
HETATM   31  C   UNL     1      42.854 -14.060   6.132  1.00  0.00     0.084 A 
HETATM   32  C   UNL     1      43.944 -13.269   6.798  1.00  0.00     0.027 A 
HETATM   33  C   UNL     1      43.046 -12.607   5.795  1.00  0.00     0.027 A 
ENDBRANCH  28  31
ENDBRANCH  22  27
ENDBRANCH   2  21
TORSDOF 9
ENDMDL
MODEL 10
REMARK VINA RESULT:      -7.2      3.917      7.661
REMARK  9 active torsions:
REMARK  status: ('A' for Active; 'I' for Inactive)
REMARK    1  A    between atoms: C_2  and  N_3 
REMARK    2  A    between atoms: C_6  and  C_7 
REMARK    3  A    between atoms: C_7  and  O_8 
REMARK    4  A    between atoms: O_8  and  C_9 
REMARK    5  A    between atoms: C_12  and  C_13 
REMARK    6  A    between atoms: C_14  and  C_15 
REMARK       I    between atoms: C_15  and  N_16 
REMARK    7  A    between atoms: N_16  and  C_17 
REMARK    8  A    between atoms: C_18  and  C_19 
REMARK       I    between atoms: C_19  and  N_20 
REMARK    9  A    between atoms: N_20  and  C_21 
ROOT
HETATM    1  C   UNL     1      39.914 -15.098   0.638  1.00  0.00     0.245 C 
HETATM    2  N   UNL     1      40.159 -13.737   0.549  1.00  0.00    -0.323 N 
HETATM    3  O   UNL     1      39.346 -15.787  -0.196  1.00  0.00    -0.268 OA
HETATM    4  H   UNL     1      40.941 -13.417   1.109  1.00  0.00     0.169 HD
ENDROOT
BRANCH   1   5
HETATM    5  C   UNL     1      40.555 -15.688   1.840  1.00  0.00     0.075 C 
HETATM    6  C   UNL     1      41.894 -15.712   1.895  1.00  0.00     0.020 C 
BRANCH   6   7
HETATM    7  C   UNL     1      42.686 -16.237   2.966  1.00  0.00     0.005 A 
HETATM    8  C   UNL     1      43.027 -15.546   4.176  1.00  0.00     0.073 A 
HETATM    9  C   UNL     1      43.731 -16.461   4.961  1.00  0.00     0.025 A 
HETATM   10  N   UNL     1      43.783 -17.662   4.282  1.00  0.00    -0.353 N 
HETATM   11  C   UNL     1      44.321 -16.244   6.319  1.00  0.00     0.069 C 
HETATM   12  C   UNL     1      43.180 -17.530   3.043  1.00  0.00     0.019 A 
HETATM   13  C   UNL     1      43.082 -18.675   2.089  1.00  0.00     0.069 C 
BRANCH   8  14
HETATM   14  C   UNL     1      42.726 -14.164   4.583  1.00  0.00     0.296 C 
HETATM   15  O   UNL     1      43.233 -13.177   4.059  1.00  0.00    -0.259 OA
BRANCH  14  16
HETATM   16  O   UNL     1      41.836 -14.094   5.613  1.00  0.00    -0.318 OA
BRANCH  16  17
HETATM   17  C   UNL     1      40.628 -14.851   5.472  1.00  0.00     0.174 C 
HETATM   18  C   UNL     1      40.416 -15.728   6.692  1.00  0.00     0.034 C 
ENDBRANCH  16  17
ENDBRANCH  14  16
ENDBRANCH   8  14
BRANCH  10  19
HETATM   19  C   UNL     1      44.323 -18.907   4.821  1.00  0.00     0.124 C 
HETATM   20  C   UNL     1      43.369 -19.594   5.782  1.00  0.00     0.027 C 
ENDBRANCH  10  19
ENDBRANCH   6   7
ENDBRANCH   1   5
BRANCH   2  21
HETATM   21  C   UNL     1      39.915 -13.004  -0.644  1.00  0.00     0.050 A 
HETATM   22  C   UNL     1      38.871 -12.080  -0.845  1.00  0.00     0.058 A 
HETATM   23  C   UNL     1      38.671 -11.545  -2.133  1.00  0.00     0.019 A 
HETATM   24  C   UNL     1      39.515 -11.879  -3.192  1.00  0.00     0.001 A 
HETATM   25  C   UNL     1      40.585 -12.738  -2.974  1.00  0.00     0.002 A 
HETATM   26  C   UNL     1      40.791 -13.286  -1.708  1.00  0.00     0.030 A 
BRANCH  22  27
HETATM   27  C   UNL     1      38.013 -11.483   0.223  1.00  0.00     0.254 C 
HETATM   28  N   UNL     1      36.986 -10.661  -0.203  1.00  0.00    -0.352 N 
HETATM   29  H   UNL     1      36.909 -10.450  -1.188  1.00  0.00     0.163 HD
HETATM   30  O   UNL     1      38.161 -11.820   1.395  1.00  0.00    -0.268 OA
BRANCH  28  31
HETATM   31  C   UNL     1      36.059 -10.073   0.708  1.00  0.00     0.084 A 
HETATM   32  C   UNL     1      35.936  -8.578   0.810  1.00  0.00     0.027 A 
HETATM   33  C   UNL     1      34.819  -9.381   0.212  1.00  0.00     0.027 A 
ENDBRANCH  28  31
ENDBRANCH  22  27
ENDBRANCH   2  21
TORSDOF 9
ENDMDL
