MODEL 1
REMARK VINA RESULT:      -7.9      0.000      0.000
REMARK  4 active torsions:
REMARK  status: ('A' for Active; 'I' for Inactive)
REMARK    1  A    between atoms: C_5  and  C_6 
REMARK    2  A    between atoms: C_6  and  N_7 
REMARK       I    between atoms: N_7  and  C_8 
REMARK       I    between atoms: C_8  and  N_9 
REMARK    3  A    between atoms: N_9  and  C_10 
REMARK    4  A    between atoms: C_11  and  C_12 
ROOT
HETATM    1  N   UNL     1      42.366 -16.401   6.664  1.00  0.00    -0.339 N 
HETATM    2  C   UNL     1      41.279 -15.733   6.173  1.00  0.00     0.321 C 
HETATM    3  N   UNL     1      41.568 -14.658   5.382  1.00  0.00    -0.305 N 
HETATM    4  O   UNL     1      40.162 -16.123   6.491  1.00  0.00    -0.247 OA
HETATM    5  H   UNL     1      42.083 -17.215   7.196  1.00  0.00     0.164 HD
HETATM    6  H   UNL     1      42.442 -14.208   5.588  1.00  0.00     0.171 HD
ENDROOT
BRANCH   1   7
HETATM    7  C   UNL     1      43.676 -16.471   6.048  1.00  0.00     0.162 C 
BRANCH   7   8
HETATM    8  C   UNL     1      43.729 -17.498   4.950  1.00  0.00    -0.040 A 
HETATM    9  C   UNL     1      43.996 -18.841   5.243  1.00  0.00     0.009 A 
HETATM   10  C   UNL     1      43.992 -19.805   4.230  1.00  0.00     0.007 A 
HETATM   11  C   UNL     1      43.714 -19.444   2.908  1.00  0.00    -0.062 A 
HETATM   12  C   UNL     1      43.699 -20.470   1.814  1.00  0.00     0.048 C 
HETATM   13  C   UNL     1      43.450 -18.102   2.611  1.00  0.00     0.007 A 
HETATM   14  C   UNL     1      43.453 -17.139   3.623  1.00  0.00     0.009 A 
ENDBRANCH   7   8
ENDBRANCH   1   7
BRANCH   3  15
HETATM   15  C   UNL     1      40.667 -13.921   4.623  1.00  0.00     0.095 A 
HETATM   16  C   UNL     1      40.237 -14.252   3.345  1.00  0.00     0.112 A 
HETATM   17  O   UNL     1      39.344 -13.311   2.927  1.00  0.00    -0.215 OA
HETATM   18  N   UNL     1      39.152 -12.369   3.904  1.00  0.00    -0.131 NA
HETATM   19  C   UNL     1      39.932 -12.733   4.930  1.00  0.00     0.087 A 
HETATM   20  C   UNL     1      39.874 -11.922   6.168  1.00  0.00     0.075 C 
BRANCH  16  21
HETATM   21  C   UNL     1      40.592 -15.407   2.413  1.00  0.00     0.048 A 
HETATM   22  C   UNL     1      40.008 -15.497   1.021  1.00  0.00     0.012 A 
HETATM   23  C   UNL     1      41.462 -15.199   1.193  1.00  0.00     0.012 A 
ENDBRANCH  16  21
ENDBRANCH   3  15
TORSDOF 4
ENDMDL
MODEL 2
REMARK VINA RESULT:      -7.4      2.235      2.644
REMARK  4 active torsions:
REMARK  status: ('A' for Active; 'I' for Inactive)
REMARK    1  A    between atoms: C_5  and  C_6 
REMARK    2  A    between atoms: C_6  and  N_7 
REMARK       I    between atoms: N_7  and  C_8 
REMARK       I    between atoms: C_8  and  N_9 
REMARK    3  A    between atoms: N_9  and  C_10 
REMARK    4  A    between atoms: C_11  and  C_12 
ROOT
HETATM    1  N   UNL     1      42.704 -16.797   7.085  1.00  0.00    -0.339 N 
HETATM    2  C   UNL     1      42.360 -15.546   6.654  1.00  0.00     0.321 C 
HETATM    3  N   UNL     1      43.411 -14.719   6.378  1.00  0.00    -0.305 N 
HETATM    4  O   UNL     1      41.171 -15.262   6.576  1.00  0.00    -0.247 OA
HETATM    5  H   UNL     1      41.882 -17.373   7.220  1.00  0.00     0.164 HD
HETATM    6  H   UNL     1      44.245 -14.909   6.906  1.00  0.00     0.171 HD
ENDROOT
BRANCH   1   7
HETATM    7  C   UNL     1      43.928 -17.504   6.767  1.00  0.00     0.162 C 
BRANCH   7   8
HETATM    8  C   UNL     1      43.815 -18.276   5.481  1.00  0.00    -0.040 A 
HETATM    9  C   UNL     1      43.652 -17.607   4.261  1.00  0.00     0.009 A 
HETATM   10  C   UNL     1      43.602 -18.321   3.060  1.00  0.00     0.007 A 
HETATM   11  C   UNL     1      43.720 -19.714   3.056  1.00  0.00    -0.062 A 
HETATM   12  C   UNL     1      43.675 -20.491   1.774  1.00  0.00     0.048 C 
HETATM   13  C   UNL     1      43.879 -20.386   4.274  1.00  0.00     0.007 A 
HETATM   14  C   UNL     1      43.930 -19.673   5.474  1.00  0.00     0.009 A 
ENDBRANCH   7   8
ENDBRANCH   1   7
BRANCH   3  15
HETATM   15  C   UNL     1      43.348 -13.473   5.766  1.00  0.00     0.095 A 
HETATM   16  C   UNL     1      42.916 -13.240   4.468  1.00  0.00     0.112 A 
HETATM   17  O   UNL     1      42.973 -11.899   4.223  1.00  0.00    -0.215 OA
HETATM   18  N   UNL     1      43.414 -11.230   5.335  1.00  0.00    -0.131 NA
HETATM   19  C   UNL     1      43.630 -12.164   6.269  1.00  0.00     0.087 A 
HETATM   20  C   UNL     1      44.053 -11.714   7.616  1.00  0.00     0.075 C 
BRANCH  16  21
HETATM   21  C   UNL     1      42.438 -14.178   3.363  1.00  0.00     0.048 A 
HETATM   22  C   UNL     1      42.170 -13.668   1.965  1.00  0.00     0.012 A 
HETATM   23  C   UNL     1      43.339 -14.566   2.212  1.00  0.00     0.012 A 
ENDBRANCH  16  21
ENDBRANCH   3  15
TORSDOF 4
ENDMDL
MODEL 3
REMARK VINA RESULT:      -7.2     13.909     16.202
REMARK  4 active torsions:
REMARK  status: ('A' for Active; 'I' for Inactive)
REMARK    1  A    between atoms: C_5  and  C_6 
REMARK    2  A    between atoms: C_6  and  N_7 
REMARK       I    between atoms: N_7  and  C_8 
REMARK       I    between atoms: C_8  and  N_9 
REMARK    3  A    between atoms: N_9  and  C_10 
REMARK    4  A    between atoms: C_11  and  C_12 
ROOT
HETATM    1  N   UNL     1      45.442 -28.745   1.899  1.00  0.00    -0.339 N 
HETATM    2  C   UNL     1      46.781 -28.639   1.646  1.00  0.00     0.321 C 
HETATM    3  N   UNL     1      47.373 -29.775   1.173  1.00  0.00    -0.305 N 
HETATM    4  O   UNL     1      47.336 -27.572   1.880  1.00  0.00    -0.247 OA
HETATM    5  H   UNL     1      45.056 -27.856   2.195  1.00  0.00     0.164 HD
HETATM    6  H   UNL     1      46.935 -30.630   1.467  1.00  0.00     0.171 HD
ENDROOT
BRANCH   1   7
HETATM    7  C   UNL     1      44.518 -29.651   1.247  1.00  0.00     0.162 C 
BRANCH   7   8
HETATM    8  C   UNL     1      44.550 -29.507  -0.250  1.00  0.00    -0.040 A 
HETATM    9  C   UNL     1      44.813 -28.264  -0.841  1.00  0.00     0.009 A 
HETATM   10  C   UNL     1      44.896 -28.141  -2.231  1.00  0.00     0.007 A 
HETATM   11  C   UNL     1      44.724 -29.257  -3.055  1.00  0.00    -0.062 A 
HETATM   12  C   UNL     1      44.819 -29.139  -4.547  1.00  0.00     0.048 C 
HETATM   13  C   UNL     1      44.456 -30.500  -2.468  1.00  0.00     0.007 A 
HETATM   14  C   UNL     1      44.374 -30.624  -1.079  1.00  0.00     0.009 A 
ENDBRANCH   7   8
ENDBRANCH   1   7
BRANCH   3  15
HETATM   15  C   UNL     1      48.665 -29.891   0.675  1.00  0.00     0.095 A 
HETATM   16  C   UNL     1      49.765 -30.332   1.396  1.00  0.00     0.112 A 
HETATM   17  O   UNL     1      50.855 -30.331   0.576  1.00  0.00    -0.215 OA
HETATM   18  N   UNL     1      50.502 -29.918  -0.683  1.00  0.00    -0.131 NA
HETATM   19  C   UNL     1      49.189 -29.663  -0.637  1.00  0.00     0.087 A 
HETATM   20  C   UNL     1      48.516 -29.259  -1.893  1.00  0.00     0.075 C 
BRANCH  16  21
HETATM   21  C   UNL     1      49.928 -30.771   2.849  1.00  0.00     0.048 A 
HETATM   22  C   UNL     1      51.158 -30.398   3.645  1.00  0.00     0.012 A 
HETATM   23  C   UNL     1      49.842 -29.779   3.987  1.00  0.00     0.012 A 
ENDBRANCH  16  21
ENDBRANCH   3  15
TORSDOF 4
ENDMDL
MODEL 4
REMARK VINA RESULT:      -7.2      2.458      6.284
REMARK  4 active torsions:
REMARK  status: ('A' for Active; 'I' for Inactive)
REMARK    1  A    between atoms: C_5  and  C_6 
REMARK    2  A    between atoms: C_6  and  N_7 
REMARK       I    between atoms: N_7  and  C_8 
REMARK       I    between atoms: C_8  and  N_9 
REMARK    3  A    between atoms: N_9  and  C_10 
REMARK    4  A    between atoms: C_11  and  C_12 
ROOT
HETATM    1  N   UNL     1      40.055 -14.991   3.213  1.00  0.00    -0.339 N 
HETATM    2  C   UNL     1      40.798 -15.917   3.890  1.00  0.00     0.321 C 
HETATM    3  N   UNL     1      42.043 -16.148   3.379  1.00  0.00    -0.305 N 
HETATM    4  O   UNL     1      40.295 -16.472   4.860  1.00  0.00    -0.247 OA
HETATM    5  H   UNL     1      39.168 -14.829   3.673  1.00  0.00     0.164 HD
HETATM    6  H   UNL     1      42.126 -15.994   2.389  1.00  0.00     0.171 HD
ENDROOT
BRANCH   1   7
HETATM    7  C   UNL     1      40.573 -13.887   2.430  1.00  0.00     0.162 C 
BRANCH   7   8
HETATM    8  C   UNL     1      39.973 -13.843   1.051  1.00  0.00    -0.040 A 
HETATM    9  C   UNL     1      39.432 -12.653   0.548  1.00  0.00     0.009 A 
HETATM   10  C   UNL     1      38.923 -12.598  -0.753  1.00  0.00     0.007 A 
HETATM   11  C   UNL     1      38.951 -13.728  -1.575  1.00  0.00    -0.062 A 
HETATM   12  C   UNL     1      38.415 -13.680  -2.975  1.00  0.00     0.048 C 
HETATM   13  C   UNL     1      39.487 -14.920  -1.074  1.00  0.00     0.007 A 
HETATM   14  C   UNL     1      39.997 -14.975   0.225  1.00  0.00     0.009 A 
ENDBRANCH   7   8
ENDBRANCH   1   7
BRANCH   3  15
HETATM   15  C   UNL     1      43.054 -16.898   3.966  1.00  0.00     0.095 A 
HETATM   16  C   UNL     1      43.621 -18.043   3.423  1.00  0.00     0.112 A 
HETATM   17  O   UNL     1      44.592 -18.493   4.268  1.00  0.00    -0.215 OA
HETATM   18  N   UNL     1      44.700 -17.664   5.354  1.00  0.00    -0.131 NA
HETATM   19  C   UNL     1      43.790 -16.698   5.176  1.00  0.00     0.087 A 
HETATM   20  C   UNL     1      43.730 -15.608   6.178  1.00  0.00     0.075 C 
BRANCH  16  21
HETATM   21  C   UNL     1      43.339 -18.814   2.137  1.00  0.00     0.048 A 
HETATM   22  C   UNL     1      43.908 -20.197   1.912  1.00  0.00     0.012 A 
HETATM   23  C   UNL     1      42.439 -20.030   2.126  1.00  0.00     0.012 A 
ENDBRANCH  16  21
ENDBRANCH   3  15
TORSDOF 4
ENDMDL
MODEL 5
REMARK VINA RESULT:      -7.2      0.731      2.803
REMARK  4 active torsions:
REMARK  status: ('A' for Active; 'I' for Inactive)
REMARK    1  A    between atoms: C_5  and  C_6 
REMARK    2  A    between atoms: C_6  and  N_7 
REMARK       I    between atoms: N_7  and  C_8 
REMARK       I    between atoms: C_8  and  N_9 
REMARK    3  A    between atoms: N_9  and  C_10 
REMARK    4  A    between atoms: C_11  and  C_12 
ROOT
HETATM    1  N   UNL     1      42.346 -16.289   6.357  1.00  0.00    -0.339 N 
HETATM    2  C   UNL     1      41.247 -15.658   5.844  1.00  0.00     0.321 C 
HETATM    3  N   UNL     1      41.516 -14.625   4.993  1.00  0.00    -0.305 N 
HETATM    4  O   UNL     1      40.138 -16.039   6.198  1.00  0.00    -0.247 OA
HETATM    5  H   UNL     1      42.077 -17.075   6.936  1.00  0.00     0.164 HD
HETATM    6  H   UNL     1      42.389 -14.157   5.163  1.00  0.00     0.171 HD
ENDROOT
BRANCH   1   7
HETATM    7  C   UNL     1      43.649 -16.381   5.729  1.00  0.00     0.162 C 
BRANCH   7   8
HETATM    8  C   UNL     1      43.692 -17.452   4.674  1.00  0.00    -0.040 A 
HETATM    9  C   UNL     1      44.076 -18.759   5.001  1.00  0.00     0.009 A 
HETATM   10  C   UNL     1      44.064 -19.767   4.033  1.00  0.00     0.007 A 
HETATM   11  C   UNL     1      43.662 -19.489   2.723  1.00  0.00    -0.062 A 
HETATM   12  C   UNL     1      43.638 -20.564   1.677  1.00  0.00     0.048 C 
HETATM   13  C   UNL     1      43.281 -18.184   2.391  1.00  0.00     0.007 A 
HETATM   14  C   UNL     1      43.292 -17.176   3.359  1.00  0.00     0.009 A 
ENDBRANCH   7   8
ENDBRANCH   1   7
BRANCH   3  15
HETATM   15  C   UNL     1      40.599 -13.938   4.206  1.00  0.00     0.095 A 
HETATM   16  C   UNL     1      40.155 -12.644   4.438  1.00  0.00     0.112 A 
HETATM   17  O   UNL     1      39.279 -12.299   3.452  1.00  0.00    -0.215 OA
HETATM   18  N   UNL     1      39.143 -13.327   2.555  1.00  0.00    -0.131 NA
HETATM   19  C   UNL     1      39.940 -14.309   2.993  1.00  0.00     0.087 A 
HETATM   20  C   UNL     1      40.045 -15.536   2.168  1.00  0.00     0.075 C 
BRANCH  16  21
HETATM   21  C   UNL     1      40.466 -11.638   5.543  1.00  0.00     0.048 A 
HETATM   22  C   UNL     1      39.729 -10.320   5.631  1.00  0.00     0.012 A 
HETATM   23  C   UNL     1      39.488 -11.370   6.665  1.00  0.00     0.012 A 
ENDBRANCH  16  21
ENDBRANCH   3  15
TORSDOF 4
ENDMDL
MODEL 6
REMARK VINA RESULT:      -7.2      3.250      4.408
REMARK  4 active torsions:
REMARK  status: ('A' for Active; 'I' for Inactive)
REMARK    1  A    between atoms: C_5  and  C_6 
REMARK    2  A    between atoms: C_6  and  N_7 
REMARK       I    between atoms: N_7  and  C_8 
REMARK       I    between atoms: C_8  and  N_9 
REMARK    3  A    between atoms: N_9  and  C_10 
REMARK    4  A    between atoms: C_11  and  C_12 
ROOT
HETATM    1  N   UNL     1      42.977 -14.305   3.934  1.00  0.00    -0.339 N 
HETATM    2  C   UNL     1      42.839 -12.998   4.311  1.00  0.00     0.321 C 
HETATM    3  N   UNL     1      42.308 -12.807   5.554  1.00  0.00    -0.305 N 
HETATM    4  O   UNL     1      43.170 -12.125   3.518  1.00  0.00    -0.247 OA
HETATM    5  H   UNL     1      43.424 -14.377   3.028  1.00  0.00     0.164 HD
HETATM    6  H   UNL     1      41.689 -13.536   5.863  1.00  0.00     0.171 HD
ENDROOT
BRANCH   1   7
HETATM    7  C   UNL     1      43.157 -15.436   4.821  1.00  0.00     0.162 C 
BRANCH   7   8
HETATM    8  C   UNL     1      43.346 -16.722   4.063  1.00  0.00    -0.040 A 
HETATM    9  C   UNL     1      44.086 -17.774   4.619  1.00  0.00     0.009 A 
HETATM   10  C   UNL     1      44.216 -18.988   3.939  1.00  0.00     0.007 A 
HETATM   11  C   UNL     1      43.606 -19.175   2.695  1.00  0.00    -0.062 A 
HETATM   12  C   UNL     1      43.732 -20.476   1.959  1.00  0.00     0.048 C 
HETATM   13  C   UNL     1      42.869 -18.125   2.135  1.00  0.00     0.007 A 
HETATM   14  C   UNL     1      42.737 -16.912   2.815  1.00  0.00     0.009 A 
ENDBRANCH   7   8
ENDBRANCH   1   7
BRANCH   3  15
HETATM   15  C   UNL     1      42.225 -11.603   6.244  1.00  0.00     0.095 A 
HETATM   16  C   UNL     1      43.242 -11.044   7.004  1.00  0.00     0.112 A 
HETATM   17  O   UNL     1      42.805  -9.856   7.513  1.00  0.00    -0.215 OA
HETATM   18  N   UNL     1      41.526  -9.600   7.093  1.00  0.00    -0.131 NA
HETATM   19  C   UNL     1      41.174 -10.636   6.322  1.00  0.00     0.087 A 
HETATM   20  C   UNL     1      39.845 -10.594   5.667  1.00  0.00     0.075 C 
BRANCH  16  21
HETATM   21  C   UNL     1      44.652 -11.522   7.338  1.00  0.00     0.048 A 
HETATM   22  C   UNL     1      45.772 -11.423   6.326  1.00  0.00     0.012 A 
HETATM   23  C   UNL     1      45.791 -10.547   7.535  1.00  0.00     0.012 A 
ENDBRANCH  16  21
ENDBRANCH   3  15
TORSDOF 4
ENDMDL
MODEL 7
REMARK VINA RESULT:      -7.1      3.293      4.824
REMARK  4 active torsions:
REMARK  status: ('A' for Active; 'I' for Inactive)
REMARK    1  A    between atoms: C_5  and  C_6 
REMARK    2  A    between atoms: C_6  and  N_7 
REMARK       I    between atoms: N_7  and  C_8 
REMARK       I    between atoms: C_8  and  N_9 
REMARK    3  A    between atoms: N_9  and  C_10 
REMARK    4  A    between atoms: C_11  and  C_12 
ROOT
HETATM    1  N   UNL     1      39.387 -14.335   2.402  1.00  0.00    -0.339 N 
HETATM    2  C   UNL     1      39.530 -13.219   1.626  1.00  0.00     0.321 C 
HETATM    3  N   UNL     1      40.549 -13.271   0.718  1.00  0.00    -0.305 N 
HETATM    4  O   UNL     1      38.773 -12.275   1.817  1.00  0.00    -0.247 OA
HETATM    5  H   UNL     1      38.584 -14.252   3.014  1.00  0.00     0.164 HD
HETATM    6  H   UNL     1      41.320 -13.857   0.985  1.00  0.00     0.171 HD
ENDROOT
BRANCH   1   7
HETATM    7  C   UNL     1      39.768 -15.684   2.036  1.00  0.00     0.162 C 
BRANCH   7   8
HETATM    8  C   UNL     1      40.960 -16.165   2.819  1.00  0.00    -0.040 A 
HETATM    9  C   UNL     1      40.994 -16.038   4.214  1.00  0.00     0.009 A 
HETATM   10  C   UNL     1      42.076 -16.533   4.946  1.00  0.00     0.007 A 
HETATM   11  C   UNL     1      43.140 -17.170   4.300  1.00  0.00    -0.062 A 
HETATM   12  C   UNL     1      44.303 -17.712   5.075  1.00  0.00     0.048 C 
HETATM   13  C   UNL     1      43.111 -17.295   2.906  1.00  0.00     0.007 A 
HETATM   14  C   UNL     1      42.029 -16.801   2.173  1.00  0.00     0.009 A 
ENDBRANCH   7   8
ENDBRANCH   1   7
BRANCH   3  15
HETATM   15  C   UNL     1      40.800 -12.358  -0.299  1.00  0.00     0.095 A 
HETATM   16  C   UNL     1      40.628 -12.601  -1.655  1.00  0.00     0.112 A 
HETATM   17  O   UNL     1      40.955 -11.472  -2.346  1.00  0.00    -0.215 OA
HETATM   18  N   UNL     1      41.322 -10.473  -1.481  1.00  0.00    -0.131 NA
HETATM   19  C   UNL     1      41.221 -10.992  -0.251  1.00  0.00     0.087 A 
HETATM   20  C   UNL     1      41.496 -10.102   0.901  1.00  0.00     0.075 C 
BRANCH  16  21
HETATM   21  C   UNL     1      40.177 -13.840  -2.423  1.00  0.00     0.048 A 
HETATM   22  C   UNL     1      39.070 -14.726  -1.898  1.00  0.00     0.012 A 
HETATM   23  C   UNL     1      38.834 -13.894  -3.116  1.00  0.00     0.012 A 
ENDBRANCH  16  21
ENDBRANCH   3  15
TORSDOF 4
ENDMDL
MODEL 8
REMARK VINA RESULT:      -7.0     13.962     16.140
REMARK  4 active torsions:
REMARK  status: ('A' for Active; 'I' for Inactive)
REMARK    1  A    between atoms: C_5  and  C_6 
REMARK    2  A    between atoms: C_6  and  N_7 
REMARK       I    between atoms: N_7  and  C_8 
REMARK       I    between atoms: C_8  and  N_9 
REMARK    3  A    between atoms: N_9  and  C_10 
REMARK    4  A    between atoms: C_11  and  C_12 
ROOT
HETATM    1  N   UNL     1      45.485 -28.636   1.843  1.00  0.00    -0.339 N 
HETATM    2  C   UNL     1      46.851 -28.600   1.867  1.00  0.00     0.321 C 
HETATM    3  N   UNL     1      47.464 -29.820   1.825  1.00  0.00    -0.305 N 
HETATM    4  O   UNL     1      47.405 -27.510   1.949  1.00  0.00    -0.247 OA
HETATM    5  H   UNL     1      45.097 -27.700   1.823  1.00  0.00     0.164 HD
HETATM    6  H   UNL     1      46.927 -30.573   2.217  1.00  0.00     0.171 HD
ENDROOT
BRANCH   1   7
HETATM    7  C   UNL     1      44.668 -29.673   1.247  1.00  0.00     0.162 C 
BRANCH   7   8
HETATM    8  C   UNL     1      44.697 -29.620  -0.256  1.00  0.00    -0.040 A 
HETATM    9  C   UNL     1      44.410 -30.761  -1.016  1.00  0.00     0.009 A 
HETATM   10  C   UNL     1      44.384 -30.699  -2.412  1.00  0.00     0.007 A 
HETATM   11  C   UNL     1      44.638 -29.494  -3.074  1.00  0.00    -0.062 A 
HETATM   12  C   UNL     1      44.605 -29.412  -4.571  1.00  0.00     0.048 C 
HETATM   13  C   UNL     1      44.929 -28.352  -2.319  1.00  0.00     0.007 A 
HETATM   14  C   UNL     1      44.954 -28.413  -0.923  1.00  0.00     0.009 A 
ENDBRANCH   7   8
ENDBRANCH   1   7
BRANCH   3  15
HETATM   15  C   UNL     1      48.823 -30.060   1.663  1.00  0.00     0.095 A 
HETATM   16  C   UNL     1      49.523 -29.926   0.472  1.00  0.00     0.112 A 
HETATM   17  O   UNL     1      50.834 -30.226   0.699  1.00  0.00    -0.215 OA
HETATM   18  N   UNL     1      51.029 -30.538   2.020  1.00  0.00    -0.131 NA
HETATM   19  C   UNL     1      49.831 -30.429   2.608  1.00  0.00     0.087 A 
HETATM   20  C   UNL     1      49.754 -30.646   4.072  1.00  0.00     0.075 C 
BRANCH  16  21
HETATM   21  C   UNL     1      49.083 -29.537  -0.937  1.00  0.00     0.048 A 
HETATM   22  C   UNL     1      49.695 -30.189  -2.156  1.00  0.00     0.012 A 
HETATM   23  C   UNL     1      48.274 -30.479  -1.800  1.00  0.00     0.012 A 
ENDBRANCH  16  21
ENDBRANCH   3  15
TORSDOF 4
ENDMDL
MODEL 9
REMARK VINA RESULT:      -6.8      2.944      4.269
REMARK  4 active torsions:
REMARK  status: ('A' for Active; 'I' for Inactive)
REMARK    1  A    between atoms: C_5  and  C_6 
REMARK    2  A    between atoms: C_6  and  N_7 
REMARK       I    between atoms: N_7  and  C_8 
REMARK       I    between atoms: C_8  and  N_9 
REMARK    3  A    between atoms: N_9  and  C_10 
REMARK    4  A    between atoms: C_11  and  C_12 
ROOT
HETATM    1  N   UNL     1      43.138 -14.136   4.042  1.00  0.00    -0.339 N 
HETATM    2  C   UNL     1      43.106 -12.827   4.435  1.00  0.00     0.321 C 
HETATM    3  N   UNL     1      42.643 -12.613   5.702  1.00  0.00    -0.305 N 
HETATM    4  O   UNL     1      43.460 -11.969   3.635  1.00  0.00    -0.247 OA
HETATM    5  H   UNL     1      43.539 -14.228   3.117  1.00  0.00     0.164 HD
HETATM    6  H   UNL     1      41.991 -13.302   6.032  1.00  0.00     0.171 HD
ENDROOT
BRANCH   1   7
HETATM    7  C   UNL     1      43.280 -15.286   4.912  1.00  0.00     0.162 C 
BRANCH   7   8
HETATM    8  C   UNL     1      43.393 -16.569   4.135  1.00  0.00    -0.040 A 
HETATM    9  C   UNL     1      44.161 -17.633   4.626  1.00  0.00     0.009 A 
HETATM   10  C   UNL     1      44.223 -18.845   3.932  1.00  0.00     0.007 A 
HETATM   11  C   UNL     1      43.515 -19.017   2.738  1.00  0.00    -0.062 A 
HETATM   12  C   UNL     1      43.568 -20.314   1.988  1.00  0.00     0.048 C 
HETATM   13  C   UNL     1      42.751 -17.955   2.243  1.00  0.00     0.007 A 
HETATM   14  C   UNL     1      42.687 -16.744   2.937  1.00  0.00     0.009 A 
ENDBRANCH   7   8
ENDBRANCH   1   7
BRANCH   3  15
HETATM   15  C   UNL     1      42.673 -11.414   6.404  1.00  0.00     0.095 A 
HETATM   16  C   UNL     1      41.594 -10.556   6.569  1.00  0.00     0.112 A 
HETATM   17  O   UNL     1      41.992  -9.495   7.328  1.00  0.00    -0.215 OA
HETATM   18  N   UNL     1      43.307  -9.636   7.691  1.00  0.00    -0.131 NA
HETATM   19  C   UNL     1      43.720 -10.789   7.151  1.00  0.00     0.087 A 
HETATM   20  C   UNL     1      45.103 -11.235   7.441  1.00  0.00     0.075 C 
BRANCH  16  21
HETATM   21  C   UNL     1      40.156 -10.610   6.063  1.00  0.00     0.048 A 
HETATM   22  C   UNL     1      39.410 -11.922   5.964  1.00  0.00     0.012 A 
HETATM   23  C   UNL     1      39.003 -10.918   6.992  1.00  0.00     0.012 A 
ENDBRANCH  16  21
ENDBRANCH   3  15
TORSDOF 4
ENDMDL
MODEL 10
REMARK VINA RESULT:      -6.6      2.778      3.719
REMARK  4 active torsions:
REMARK  status: ('A' for Active; 'I' for Inactive)
REMARK    1  A    between atoms: C_5  and  C_6 
REMARK    2  A    between atoms: C_6  and  N_7 
REMARK       I    between atoms: N_7  and  C_8 
REMARK       I    between atoms: C_8  and  N_9 
REMARK    3  A    between atoms: N_9  and  C_10 
REMARK    4  A    between atoms: C_11  and  C_12 
ROOT
HETATM    1  N   UNL     1      41.317 -13.158   4.024  1.00  0.00    -0.339 N 
HETATM    2  C   UNL     1      40.387 -12.701   3.132  1.00  0.00     0.321 C 
HETATM    3  N   UNL     1      40.889 -11.963   2.099  1.00  0.00    -0.305 N 
HETATM    4  O   UNL     1      39.207 -12.960   3.336  1.00  0.00    -0.247 OA
HETATM    5  H   UNL     1      40.886 -13.740   4.732  1.00  0.00     0.164 HD
HETATM    6  H   UNL     1      41.738 -11.468   2.310  1.00  0.00     0.171 HD
ENDROOT
BRANCH   1   7
HETATM    7  C   UNL     1      42.711 -13.433   3.739  1.00  0.00     0.162 C 
BRANCH   7   8
HETATM    8  C   UNL     1      42.939 -14.876   3.381  1.00  0.00    -0.040 A 
HETATM    9  C   UNL     1      42.945 -15.864   4.374  1.00  0.00     0.009 A 
HETATM   10  C   UNL     1      43.103 -17.211   4.035  1.00  0.00     0.007 A 
HETATM   11  C   UNL     1      43.251 -17.596   2.699  1.00  0.00    -0.062 A 
HETATM   12  C   UNL     1      43.414 -19.038   2.322  1.00  0.00     0.048 C 
HETATM   13  C   UNL     1      43.249 -16.611   1.705  1.00  0.00     0.007 A 
HETATM   14  C   UNL     1      43.090 -15.264   2.042  1.00  0.00     0.009 A 
ENDBRANCH   7   8
ENDBRANCH   1   7
BRANCH   3  15
HETATM   15  C   UNL     1      40.196 -11.533   0.973  1.00  0.00     0.095 A 
HETATM   16  C   UNL     1      39.984 -12.286  -0.173  1.00  0.00     0.112 A 
HETATM   17  O   UNL     1      39.251 -11.546  -1.053  1.00  0.00    -0.215 OA
HETATM   18  N   UNL     1      38.952 -10.322  -0.512  1.00  0.00    -0.131 NA
HETATM   19  C   UNL     1      39.504 -10.310   0.707  1.00  0.00     0.087 A 
HETATM   20  C   UNL     1      39.279  -9.118   1.559  1.00  0.00     0.075 C 
BRANCH  16  21
HETATM   21  C   UNL     1      40.420 -13.694  -0.568  1.00  0.00     0.048 A 
HETATM   22  C   UNL     1      39.988 -14.901   0.235  1.00  0.00     0.012 A 
HETATM   23  C   UNL     1      39.439 -14.694  -1.138  1.00  0.00     0.012 A 
ENDBRANCH  16  21
ENDBRANCH   3  15
TORSDOF 4
ENDMDL
