MODEL 1
REMARK VINA RESULT:      -8.6      0.000      0.000
REMARK  4 active torsions:
REMARK  status: ('A' for Active; 'I' for Inactive)
REMARK    1  A    between atoms: C_4  and  N_5 
REMARK       I    between atoms: N_5  and  C_6 
REMARK    2  A    between atoms: C_6  and  C_7 
REMARK    3  A    between atoms: C_7  and  C_8 
REMARK    4  A    between atoms: C_10  and  O_11 
ROOT
HETATM    1  N   UNL     1      41.397 -15.993   2.279  1.00  0.00    -0.325 N 
HETATM    2  C   UNL     1      41.702 -14.823   1.618  1.00  0.00     0.226 C 
HETATM    3  O   UNL     1      42.826 -14.467   1.268  1.00  0.00    -0.273 OA
HETATM    4  H   UNL     1      40.424 -16.286   2.350  1.00  0.00     0.169 HD
ENDROOT
BRANCH   1   5
HETATM    5  C   UNL     1      42.293 -16.935   2.842  1.00  0.00     0.065 A 
HETATM    6  C   UNL     1      42.600 -18.154   2.226  1.00  0.00     0.038 A 
HETATM    7  C   UNL     1      43.528 -19.028   2.798  1.00  0.00    -0.059 A 
HETATM    8  C   UNL     1      43.874 -20.326   2.130  1.00  0.00     0.048 C 
HETATM    9  C   UNL     1      44.131 -18.677   4.008  1.00  0.00     0.020 A 
HETATM   10  C   UNL     1      43.827 -17.456   4.633  1.00  0.00    -0.005 A 
HETATM   11  C   UNL     1      42.905 -16.562   4.049  1.00  0.00     0.093 A 
HETATM   12  C   UNL     1      44.426 -17.090   5.846  1.00  0.00     0.015 A 
HETATM   13  N   UNL     1      42.601 -15.371   4.624  1.00  0.00    -0.258 NA
HETATM   14  C   UNL     1      43.200 -15.059   5.797  1.00  0.00     0.117 A 
HETATM   15  C   UNL     1      44.108 -15.876   6.440  1.00  0.00     0.020 A 
ENDBRANCH   1   5
BRANCH   2  16
HETATM   16  C   UNL     1      40.489 -13.937   1.365  1.00  0.00     0.141 C 
BRANCH  16  17
HETATM   17  C   UNL     1      40.145 -13.861  -0.105  1.00  0.00    -0.047 A 
HETATM   18  C   UNL     1      39.418 -14.897  -0.715  1.00  0.00     0.044 A 
HETATM   19  C   UNL     1      39.134 -14.843  -2.076  1.00  0.00     0.066 A 
HETATM   20  C   UNL     1      39.546 -13.764  -2.846  1.00  0.00     0.036 A 
HETATM   21  C   UNL     1      40.258 -12.725  -2.249  1.00  0.00     0.003 A 
HETATM   22  C   UNL     1      40.559 -12.773  -0.885  1.00  0.00     0.007 A 
BRANCH  19  23
HETATM   23  O   UNL     1      38.454 -15.850  -2.696  1.00  0.00    -0.361 OA
HETATM   24  H   UNL     1      38.962 -16.671  -2.586  1.00  0.00     0.217 HD
ENDBRANCH  19  23
ENDBRANCH  16  17
ENDBRANCH   2  16
TORSDOF 4
ENDMDL
MODEL 2
REMARK VINA RESULT:      -8.5      1.475      1.699
REMARK  4 active torsions:
REMARK  status: ('A' for Active; 'I' for Inactive)
REMARK    1  A    between atoms: C_4  and  N_5 
REMARK       I    between atoms: N_5  and  C_6 
REMARK    2  A    between atoms: C_6  and  C_7 
REMARK    3  A    between atoms: C_7  and  C_8 
REMARK    4  A    between atoms: C_10  and  O_11 
ROOT
HETATM    1  N   UNL     1      42.254 -14.527   1.340  1.00  0.00    -0.325 N 
HETATM    2  C   UNL     1      40.999 -14.270   0.833  1.00  0.00     0.226 C 
HETATM    3  O   UNL     1      39.955 -14.821   1.180  1.00  0.00    -0.273 OA
HETATM    4  H   UNL     1      43.017 -13.888   1.130  1.00  0.00     0.169 HD
ENDROOT
BRANCH   1   5
HETATM    5  C   UNL     1      42.641 -15.570   2.218  1.00  0.00     0.065 A 
HETATM    6  C   UNL     1      42.795 -16.897   1.801  1.00  0.00     0.038 A 
HETATM    7  C   UNL     1      43.227 -17.880   2.695  1.00  0.00    -0.059 A 
HETATM    8  C   UNL     1      43.411 -19.300   2.246  1.00  0.00     0.048 C 
HETATM    9  C   UNL     1      43.483 -17.523   4.021  1.00  0.00     0.020 A 
HETATM   10  C   UNL     1      43.330 -16.194   4.448  1.00  0.00    -0.005 A 
HETATM   11  C   UNL     1      42.913 -15.195   3.543  1.00  0.00     0.093 A 
HETATM   12  C   UNL     1      43.585 -15.821   5.775  1.00  0.00     0.015 A 
HETATM   13  N   UNL     1      42.768 -13.900   3.925  1.00  0.00    -0.258 NA
HETATM   14  C   UNL     1      43.021 -13.585   5.216  1.00  0.00     0.117 A 
HETATM   15  C   UNL     1      43.427 -14.499   6.167  1.00  0.00     0.020 A 
ENDBRANCH   1   5
BRANCH   2  16
HETATM   16  C   UNL     1      40.997 -13.221  -0.271  1.00  0.00     0.141 C 
BRANCH  16  17
HETATM   17  C   UNL     1      39.741 -13.291  -1.111  1.00  0.00    -0.047 A 
HETATM   18  C   UNL     1      39.641 -14.225  -2.155  1.00  0.00     0.044 A 
HETATM   19  C   UNL     1      38.501 -14.263  -2.950  1.00  0.00     0.066 A 
HETATM   20  C   UNL     1      37.441 -13.397  -2.716  1.00  0.00     0.036 A 
HETATM   21  C   UNL     1      37.525 -12.474  -1.675  1.00  0.00     0.003 A 
HETATM   22  C   UNL     1      38.671 -12.418  -0.877  1.00  0.00     0.007 A 
BRANCH  19  23
HETATM   23  O   UNL     1      38.391 -15.142  -3.988  1.00  0.00    -0.361 OA
HETATM   24  H   UNL     1      37.710 -15.797  -3.759  1.00  0.00     0.217 HD
ENDBRANCH  19  23
ENDBRANCH  16  17
ENDBRANCH   2  16
TORSDOF 4
ENDMDL
MODEL 3
REMARK VINA RESULT:      -8.2      2.356      6.945
REMARK  4 active torsions:
REMARK  status: ('A' for Active; 'I' for Inactive)
REMARK    1  A    between atoms: C_4  and  N_5 
REMARK       I    between atoms: N_5  and  C_6 
REMARK    2  A    between atoms: C_6  and  C_7 
REMARK    3  A    between atoms: C_7  and  C_8 
REMARK    4  A    between atoms: C_10  and  O_11 
ROOT
HETATM    1  N   UNL     1      41.818 -14.955   2.417  1.00  0.00    -0.325 N 
HETATM    2  C   UNL     1      43.027 -15.615   2.449  1.00  0.00     0.226 C 
HETATM    3  O   UNL     1      43.867 -15.622   1.551  1.00  0.00    -0.273 OA
HETATM    4  H   UNL     1      41.284 -14.850   3.278  1.00  0.00     0.169 HD
ENDROOT
BRANCH   1   5
HETATM    5  C   UNL     1      41.210 -14.303   1.316  1.00  0.00     0.065 A 
HETATM    6  C   UNL     1      40.495 -14.989   0.327  1.00  0.00     0.038 A 
HETATM    7  C   UNL     1      39.872 -14.295  -0.713  1.00  0.00    -0.059 A 
HETATM    8  C   UNL     1      39.089 -15.026  -1.763  1.00  0.00     0.048 C 
HETATM    9  C   UNL     1      39.992 -12.904  -0.766  1.00  0.00     0.020 A 
HETATM   10  C   UNL     1      40.709 -12.208   0.222  1.00  0.00    -0.005 A 
HETATM   11  C   UNL     1      41.323 -12.905   1.285  1.00  0.00     0.093 A 
HETATM   12  C   UNL     1      40.836 -10.813   0.183  1.00  0.00     0.015 A 
HETATM   13  N   UNL     1      42.012 -12.258   2.259  1.00  0.00    -0.258 NA
HETATM   14  C   UNL     1      42.113 -10.911   2.181  1.00  0.00     0.117 A 
HETATM   15  C   UNL     1      41.549 -10.153   1.174  1.00  0.00     0.020 A 
ENDBRANCH   1   5
BRANCH   2  16
HETATM   16  C   UNL     1      43.250 -16.406   3.732  1.00  0.00     0.141 C 
BRANCH  16  17
HETATM   17  C   UNL     1      43.392 -17.887   3.462  1.00  0.00    -0.047 A 
HETATM   18  C   UNL     1      43.978 -18.727   4.424  1.00  0.00     0.044 A 
HETATM   19  C   UNL     1      44.142 -20.083   4.159  1.00  0.00     0.066 A 
HETATM   20  C   UNL     1      43.715 -20.629   2.957  1.00  0.00     0.036 A 
HETATM   21  C   UNL     1      43.121 -19.807   2.000  1.00  0.00     0.003 A 
HETATM   22  C   UNL     1      42.962 -18.441   2.250  1.00  0.00     0.007 A 
BRANCH  19  23
HETATM   23  O   UNL     1      44.733 -20.914   5.065  1.00  0.00    -0.361 OA
HETATM   24  H   UNL     1      45.150 -21.644   4.578  1.00  0.00     0.217 HD
ENDBRANCH  19  23
ENDBRANCH  16  17
ENDBRANCH   2  16
TORSDOF 4
ENDMDL
MODEL 4
REMARK VINA RESULT:      -8.1      2.504      7.279
REMARK  4 active torsions:
REMARK  status: ('A' for Active; 'I' for Inactive)
REMARK    1  A    between atoms: C_4  and  N_5 
REMARK       I    between atoms: N_5  and  C_6 
REMARK    2  A    between atoms: C_6  and  C_7 
REMARK    3  A    between atoms: C_7  and  C_8 
REMARK    4  A    between atoms: C_10  and  O_11 
ROOT
HETATM    1  N   UNL     1      41.346 -15.663   2.363  1.00  0.00    -0.325 N 
HETATM    2  C   UNL     1      42.716 -15.768   2.265  1.00  0.00     0.226 C 
HETATM    3  O   UNL     1      43.527 -14.881   2.529  1.00  0.00    -0.273 OA
HETATM    4  H   UNL     1      40.777 -16.506   2.311  1.00  0.00     0.169 HD
ENDROOT
BRANCH   1   5
HETATM    5  C   UNL     1      40.577 -14.499   2.612  1.00  0.00     0.065 A 
HETATM    6  C   UNL     1      40.382 -13.977   3.896  1.00  0.00     0.038 A 
HETATM    7  C   UNL     1      39.655 -12.798   4.083  1.00  0.00    -0.059 A 
HETATM    8  C   UNL     1      39.461 -12.226   5.456  1.00  0.00     0.048 C 
HETATM    9  C   UNL     1      39.106 -12.158   2.969  1.00  0.00     0.020 A 
HETATM   10  C   UNL     1      39.296 -12.677   1.678  1.00  0.00    -0.005 A 
HETATM   11  C   UNL     1      40.046 -13.856   1.483  1.00  0.00     0.093 A 
HETATM   12  C   UNL     1      38.752 -12.044   0.552  1.00  0.00     0.015 A 
HETATM   13  N   UNL     1      40.255 -14.373   0.246  1.00  0.00    -0.258 NA
HETATM   14  C   UNL     1      39.709 -13.733  -0.813  1.00  0.00     0.117 A 
HETATM   15  C   UNL     1      38.959 -12.578  -0.713  1.00  0.00     0.020 A 
ENDBRANCH   1   5
BRANCH   2  16
HETATM   16  C   UNL     1      43.183 -17.122   1.748  1.00  0.00     0.141 C 
BRANCH  16  17
HETATM   17  C   UNL     1      43.514 -18.071   2.878  1.00  0.00    -0.047 A 
HETATM   18  C   UNL     1      43.673 -19.444   2.624  1.00  0.00     0.044 A 
HETATM   19  C   UNL     1      43.941 -20.321   3.670  1.00  0.00     0.066 A 
HETATM   20  C   UNL     1      44.073 -19.856   4.972  1.00  0.00     0.036 A 
HETATM   21  C   UNL     1      43.930 -18.494   5.234  1.00  0.00     0.003 A 
HETATM   22  C   UNL     1      43.649 -17.605   4.192  1.00  0.00     0.007 A 
BRANCH  19  23
HETATM   23  O   UNL     1      44.071 -21.661   3.454  1.00  0.00    -0.361 OA
HETATM   24  H   UNL     1      43.471 -21.910   2.731  1.00  0.00     0.217 HD
ENDBRANCH  19  23
ENDBRANCH  16  17
ENDBRANCH   2  16
TORSDOF 4
ENDMDL
MODEL 5
REMARK VINA RESULT:      -8.1      1.925      3.091
REMARK  4 active torsions:
REMARK  status: ('A' for Active; 'I' for Inactive)
REMARK    1  A    between atoms: C_4  and  N_5 
REMARK       I    between atoms: N_5  and  C_6 
REMARK    2  A    between atoms: C_6  and  C_7 
REMARK    3  A    between atoms: C_7  and  C_8 
REMARK    4  A    between atoms: C_10  and  O_11 
ROOT
HETATM    1  N   UNL     1      41.992 -15.577   1.832  1.00  0.00    -0.325 N 
HETATM    2  C   UNL     1      40.643 -15.405   1.613  1.00  0.00     0.226 C 
HETATM    3  O   UNL     1      39.739 -16.050   2.141  1.00  0.00    -0.273 OA
HETATM    4  H   UNL     1      42.646 -14.871   1.501  1.00  0.00     0.169 HD
ENDROOT
BRANCH   1   5
HETATM    5  C   UNL     1      42.631 -16.616   2.553  1.00  0.00     0.065 A 
HETATM    6  C   UNL     1      42.837 -17.895   2.022  1.00  0.00     0.038 A 
HETATM    7  C   UNL     1      43.517 -18.871   2.756  1.00  0.00    -0.059 A 
HETATM    8  C   UNL     1      43.756 -20.236   2.182  1.00  0.00     0.048 C 
HETATM    9  C   UNL     1      43.969 -18.558   4.040  1.00  0.00     0.020 A 
HETATM   10  C   UNL     1      43.765 -17.278   4.581  1.00  0.00    -0.005 A 
HETATM   11  C   UNL     1      43.097 -16.284   3.835  1.00  0.00     0.093 A 
HETATM   12  C   UNL     1      44.216 -16.950   5.867  1.00  0.00     0.015 A 
HETATM   13  N   UNL     1      42.896 -15.036   4.328  1.00  0.00    -0.258 NA
HETATM   14  C   UNL     1      43.343 -14.763   5.575  1.00  0.00     0.117 A 
HETATM   15  C   UNL     1      44.002 -15.676   6.374  1.00  0.00     0.020 A 
ENDBRANCH   1   5
BRANCH   2  16
HETATM   16  C   UNL     1      40.331 -14.319   0.591  1.00  0.00     0.141 C 
BRANCH  16  17
HETATM   17  C   UNL     1      40.351 -12.940   1.212  1.00  0.00    -0.047 A 
HETATM   18  C   UNL     1      41.244 -11.965   0.736  1.00  0.00     0.044 A 
HETATM   19  C   UNL     1      41.287 -10.709   1.333  1.00  0.00     0.066 A 
HETATM   20  C   UNL     1      40.442 -10.393   2.388  1.00  0.00     0.036 A 
HETATM   21  C   UNL     1      39.544 -11.350   2.860  1.00  0.00     0.003 A 
HETATM   22  C   UNL     1      39.500 -12.619   2.276  1.00  0.00     0.007 A 
BRANCH  19  23
HETATM   23  O   UNL     1      42.164  -9.755   0.908  1.00  0.00    -0.361 OA
HETATM   24  H   UNL     1      41.681  -9.131   0.341  1.00  0.00     0.217 HD
ENDBRANCH  19  23
ENDBRANCH  16  17
ENDBRANCH   2  16
TORSDOF 4
ENDMDL
MODEL 6
REMARK VINA RESULT:      -7.9      2.524      6.644
REMARK  4 active torsions:
REMARK  status: ('A' for Active; 'I' for Inactive)
REMARK    1  A    between atoms: C_4  and  N_5 
REMARK       I    between atoms: N_5  and  C_6 
REMARK    2  A    between atoms: C_6  and  C_7 
REMARK    3  A    between atoms: C_7  and  C_8 
REMARK    4  A    between atoms: C_10  and  O_11 
ROOT
HETATM    1  N   UNL     1      41.384 -15.707   2.071  1.00  0.00    -0.325 N 
HETATM    2  C   UNL     1      42.748 -15.858   1.957  1.00  0.00     0.226 C 
HETATM    3  O   UNL     1      43.587 -14.977   2.134  1.00  0.00    -0.273 OA
HETATM    4  H   UNL     1      40.791 -16.535   2.098  1.00  0.00     0.169 HD
ENDROOT
BRANCH   1   5
HETATM    5  C   UNL     1      40.651 -14.506   2.238  1.00  0.00     0.065 A 
HETATM    6  C   UNL     1      40.133 -13.776   1.162  1.00  0.00     0.038 A 
HETATM    7  C   UNL     1      39.375 -12.622   1.382  1.00  0.00    -0.059 A 
HETATM    8  C   UNL     1      38.802 -11.849   0.232  1.00  0.00     0.048 C 
HETATM    9  C   UNL     1      39.160 -12.194   2.695  1.00  0.00     0.020 A 
HETATM   10  C   UNL     1      39.678 -12.920   3.780  1.00  0.00    -0.005 A 
HETATM   11  C   UNL     1      40.427 -14.096   3.562  1.00  0.00     0.093 A 
HETATM   12  C   UNL     1      39.468 -12.504   5.101  1.00  0.00     0.015 A 
HETATM   13  N   UNL     1      40.930 -14.824   4.592  1.00  0.00    -0.258 NA
HETATM   14  C   UNL     1      40.706 -14.384   5.851  1.00  0.00     0.117 A 
HETATM   15  C   UNL     1      39.990 -13.243   6.154  1.00  0.00     0.020 A 
ENDBRANCH   1   5
BRANCH   2  16
HETATM   16  C   UNL     1      43.168 -17.262   1.543  1.00  0.00     0.141 C 
BRANCH  16  17
HETATM   17  C   UNL     1      43.516 -18.120   2.739  1.00  0.00    -0.047 A 
HETATM   18  C   UNL     1      43.671 -19.509   2.591  1.00  0.00     0.044 A 
HETATM   19  C   UNL     1      43.955 -20.301   3.699  1.00  0.00     0.066 A 
HETATM   20  C   UNL     1      44.106 -19.736   4.958  1.00  0.00     0.036 A 
HETATM   21  C   UNL     1      43.966 -18.357   5.114  1.00  0.00     0.003 A 
HETATM   22  C   UNL     1      43.669 -17.552   4.010  1.00  0.00     0.007 A 
BRANCH  19  23
HETATM   23  O   UNL     1      44.082 -21.654   3.586  1.00  0.00    -0.361 OA
HETATM   24  H   UNL     1      43.470 -22.069   4.216  1.00  0.00     0.217 HD
ENDBRANCH  19  23
ENDBRANCH  16  17
ENDBRANCH   2  16
TORSDOF 4
ENDMDL
MODEL 7
REMARK VINA RESULT:      -7.7      1.930      7.644
REMARK  4 active torsions:
REMARK  status: ('A' for Active; 'I' for Inactive)
REMARK    1  A    between atoms: C_4  and  N_5 
REMARK       I    between atoms: N_5  and  C_6 
REMARK    2  A    between atoms: C_6  and  C_7 
REMARK    3  A    between atoms: C_7  and  C_8 
REMARK    4  A    between atoms: C_10  and  O_11 
ROOT
HETATM    1  N   UNL     1      40.517 -14.171   1.484  1.00  0.00    -0.325 N 
HETATM    2  C   UNL     1      41.563 -14.963   1.904  1.00  0.00     0.226 C 
HETATM    3  O   UNL     1      42.743 -14.824   1.588  1.00  0.00    -0.273 OA
HETATM    4  H   UNL     1      39.615 -14.246   1.952  1.00  0.00     0.169 HD
ENDROOT
BRANCH   1   5
HETATM    5  C   UNL     1      40.533 -13.163   0.489  1.00  0.00     0.065 A 
HETATM    6  C   UNL     1      41.089 -11.896   0.700  1.00  0.00     0.038 A 
HETATM    7  C   UNL     1      41.124 -10.952  -0.330  1.00  0.00    -0.059 A 
HETATM    8  C   UNL     1      41.738  -9.600  -0.113  1.00  0.00     0.048 C 
HETATM    9  C   UNL     1      40.574 -11.284  -1.571  1.00  0.00     0.020 A 
HETATM   10  C   UNL     1      40.013 -12.553  -1.790  1.00  0.00    -0.005 A 
HETATM   11  C   UNL     1      39.993 -13.515  -0.758  1.00  0.00     0.093 A 
HETATM   12  C   UNL     1      39.460 -12.900  -3.030  1.00  0.00     0.015 A 
HETATM   13  N   UNL     1      39.468 -14.752  -0.945  1.00  0.00    -0.258 NA
HETATM   14  C   UNL     1      38.941 -15.044  -2.156  1.00  0.00     0.117 A 
HETATM   15  C   UNL     1      38.914 -14.162  -3.218  1.00  0.00     0.020 A 
ENDBRANCH   1   5
BRANCH   2  16
HETATM   16  C   UNL     1      41.129 -16.104   2.815  1.00  0.00     0.141 C 
BRANCH  16  17
HETATM   17  C   UNL     1      42.289 -17.003   3.182  1.00  0.00    -0.047 A 
HETATM   18  C   UNL     1      42.604 -18.113   2.381  1.00  0.00     0.044 A 
HETATM   19  C   UNL     1      43.648 -18.959   2.741  1.00  0.00     0.066 A 
HETATM   20  C   UNL     1      44.404 -18.712   3.879  1.00  0.00     0.036 A 
HETATM   21  C   UNL     1      44.107 -17.606   4.675  1.00  0.00     0.003 A 
HETATM   22  C   UNL     1      43.053 -16.756   4.330  1.00  0.00     0.007 A 
BRANCH  19  23
HETATM   23  O   UNL     1      43.956 -20.059   1.995  1.00  0.00    -0.361 OA
HETATM   24  H   UNL     1      43.127 -20.515   1.774  1.00  0.00     0.217 HD
ENDBRANCH  19  23
ENDBRANCH  16  17
ENDBRANCH   2  16
TORSDOF 4
ENDMDL
MODEL 8
REMARK VINA RESULT:      -7.6      1.874      3.563
REMARK  4 active torsions:
REMARK  status: ('A' for Active; 'I' for Inactive)
REMARK    1  A    between atoms: C_4  and  N_5 
REMARK       I    between atoms: N_5  and  C_6 
REMARK    2  A    between atoms: C_6  and  C_7 
REMARK    3  A    between atoms: C_7  and  C_8 
REMARK    4  A    between atoms: C_10  and  O_11 
ROOT
HETATM    1  N   UNL     1      41.864 -15.976   2.073  1.00  0.00    -0.325 N 
HETATM    2  C   UNL     1      40.502 -15.774   2.028  1.00  0.00     0.226 C 
HETATM    3  O   UNL     1      39.739 -15.796   2.991  1.00  0.00    -0.273 OA
HETATM    4  H   UNL     1      42.430 -15.745   1.258  1.00  0.00     0.169 HD
ENDROOT
BRANCH   1   5
HETATM    5  C   UNL     1      42.643 -16.416   3.171  1.00  0.00     0.065 A 
HETATM    6  C   UNL     1      42.966 -15.590   4.254  1.00  0.00     0.038 A 
HETATM    7  C   UNL     1      43.696 -16.086   5.337  1.00  0.00    -0.059 A 
HETATM    8  C   UNL     1      44.027 -15.207   6.507  1.00  0.00     0.048 C 
HETATM    9  C   UNL     1      44.121 -17.417   5.314  1.00  0.00     0.020 A 
HETATM   10  C   UNL     1      43.802 -18.252   4.231  1.00  0.00    -0.005 A 
HETATM   11  C   UNL     1      43.048 -17.760   3.145  1.00  0.00     0.093 A 
HETATM   12  C   UNL     1      44.219 -19.590   4.196  1.00  0.00     0.015 A 
HETATM   13  N   UNL     1      42.716 -18.548   2.090  1.00  0.00    -0.258 NA
HETATM   14  C   UNL     1      43.142 -19.832   2.095  1.00  0.00     0.117 A 
HETATM   15  C   UNL     1      43.888 -20.392   3.113  1.00  0.00     0.020 A 
ENDBRANCH   1   5
BRANCH   2  16
HETATM   16  C   UNL     1      39.973 -15.537   0.619  1.00  0.00     0.141 C 
BRANCH  16  17
HETATM   17  C   UNL     1      40.206 -14.114   0.163  1.00  0.00    -0.047 A 
HETATM   18  C   UNL     1      40.213 -13.065   1.098  1.00  0.00     0.044 A 
HETATM   19  C   UNL     1      40.391 -11.753   0.672  1.00  0.00     0.066 A 
HETATM   20  C   UNL     1      40.581 -11.460  -0.672  1.00  0.00     0.036 A 
HETATM   21  C   UNL     1      40.588 -12.495  -1.607  1.00  0.00     0.003 A 
HETATM   22  C   UNL     1      40.398 -13.816  -1.192  1.00  0.00     0.007 A 
BRANCH  19  23
HETATM   23  O   UNL     1      40.374 -10.714   1.556  1.00  0.00    -0.361 OA
HETATM   24  H   UNL     1      41.024 -10.900   2.253  1.00  0.00     0.217 HD
ENDBRANCH  19  23
ENDBRANCH  16  17
ENDBRANCH   2  16
TORSDOF 4
ENDMDL
MODEL 9
REMARK VINA RESULT:      -7.5     13.773     15.471
REMARK  4 active torsions:
REMARK  status: ('A' for Active; 'I' for Inactive)
REMARK    1  A    between atoms: C_4  and  N_5 
REMARK       I    between atoms: N_5  and  C_6 
REMARK    2  A    between atoms: C_6  and  C_7 
REMARK    3  A    between atoms: C_7  and  C_8 
REMARK    4  A    between atoms: C_10  and  O_11 
ROOT
HETATM    1  N   UNL     1      46.847 -29.077   0.938  1.00  0.00    -0.325 N 
HETATM    2  C   UNL     1      45.682 -29.811   0.875  1.00  0.00     0.226 C 
HETATM    3  O   UNL     1      45.536 -30.964   1.274  1.00  0.00    -0.273 OA
HETATM    4  H   UNL     1      46.815 -28.075   0.763  1.00  0.00     0.169 HD
ENDROOT
BRANCH   1   5
HETATM    5  C   UNL     1      48.141 -29.527   1.302  1.00  0.00     0.065 A 
HETATM    6  C   UNL     1      48.552 -29.660   2.633  1.00  0.00     0.038 A 
HETATM    7  C   UNL     1      49.823 -30.155   2.940  1.00  0.00    -0.059 A 
HETATM    8  C   UNL     1      50.260 -30.317   4.366  1.00  0.00     0.048 C 
HETATM    9  C   UNL     1      50.687 -30.494   1.896  1.00  0.00     0.020 A 
HETATM   10  C   UNL     1      50.282 -30.362   0.558  1.00  0.00    -0.005 A 
HETATM   11  C   UNL     1      48.993 -29.882   0.244  1.00  0.00     0.093 A 
HETATM   12  C   UNL     1      51.137 -30.702  -0.499  1.00  0.00     0.015 A 
HETATM   13  N   UNL     1      48.570 -29.755  -1.039  1.00  0.00    -0.258 NA
HETATM   14  C   UNL     1      49.429 -30.090  -2.029  1.00  0.00     0.117 A 
HETATM   15  C   UNL     1      50.708 -30.563  -1.812  1.00  0.00     0.020 A 
ENDBRANCH   1   5
BRANCH   2  16
HETATM   16  C   UNL     1      44.533 -29.063   0.211  1.00  0.00     0.141 C 
BRANCH  16  17
HETATM   17  C   UNL     1      44.577 -29.188  -1.295  1.00  0.00    -0.047 A 
HETATM   18  C   UNL     1      45.025 -28.112  -2.080  1.00  0.00     0.044 A 
HETATM   19  C   UNL     1      45.030 -28.215  -3.467  1.00  0.00     0.066 A 
HETATM   20  C   UNL     1      44.613 -29.381  -4.096  1.00  0.00     0.036 A 
HETATM   21  C   UNL     1      44.178 -30.459  -3.326  1.00  0.00     0.003 A 
HETATM   22  C   UNL     1      44.157 -30.363  -1.932  1.00  0.00     0.007 A 
BRANCH  19  23
HETATM   23  O   UNL     1      45.433 -27.175  -4.252  1.00  0.00    -0.361 OA
HETATM   24  H   UNL     1      46.398 -27.231  -4.357  1.00  0.00     0.217 HD
ENDBRANCH  19  23
ENDBRANCH  16  17
ENDBRANCH   2  16
TORSDOF 4
ENDMDL
MODEL 10
REMARK VINA RESULT:      -7.3      3.686      7.328
REMARK  4 active torsions:
REMARK  status: ('A' for Active; 'I' for Inactive)
REMARK    1  A    between atoms: C_4  and  N_5 
REMARK       I    between atoms: N_5  and  C_6 
REMARK    2  A    between atoms: C_6  and  C_7 
REMARK    3  A    between atoms: C_7  and  C_8 
REMARK    4  A    between atoms: C_10  and  O_11 
ROOT
HETATM    1  N   UNL     1      42.774 -13.626   4.740  1.00  0.00    -0.325 N 
HETATM    2  C   UNL     1      42.113 -13.217   5.877  1.00  0.00     0.226 C 
HETATM    3  O   UNL     1      41.414 -13.926   6.598  1.00  0.00    -0.273 OA
HETATM    4  H   UNL     1      43.479 -13.019   4.326  1.00  0.00     0.169 HD
ENDROOT
BRANCH   1   5
HETATM    5  C   UNL     1      42.660 -14.868   4.066  1.00  0.00     0.065 A 
HETATM    6  C   UNL     1      43.404 -15.998   4.425  1.00  0.00     0.038 A 
HETATM    7  C   UNL     1      43.220 -17.213   3.760  1.00  0.00    -0.059 A 
HETATM    8  C   UNL     1      44.001 -18.431   4.155  1.00  0.00     0.048 C 
HETATM    9  C   UNL     1      42.296 -17.279   2.714  1.00  0.00     0.020 A 
HETATM   10  C   UNL     1      41.547 -16.149   2.347  1.00  0.00    -0.005 A 
HETATM   11  C   UNL     1      41.716 -14.925   3.029  1.00  0.00     0.093 A 
HETATM   12  C   UNL     1      40.615 -16.201   1.301  1.00  0.00     0.015 A 
HETATM   13  N   UNL     1      40.998 -13.821   2.703  1.00  0.00    -0.258 NA
HETATM   14  C   UNL     1      40.112 -13.914   1.685  1.00  0.00     0.117 A 
HETATM   15  C   UNL     1      39.888 -15.068   0.962  1.00  0.00     0.020 A 
ENDBRANCH   1   5
BRANCH   2  16
HETATM   16  C   UNL     1      42.294 -11.735   6.180  1.00  0.00     0.141 C 
BRANCH  16  17
HETATM   17  C   UNL     1      43.684 -11.432   6.694  1.00  0.00    -0.047 A 
HETATM   18  C   UNL     1      43.883 -11.119   8.049  1.00  0.00     0.044 A 
HETATM   19  C   UNL     1      45.157 -10.805   8.512  1.00  0.00     0.066 A 
HETATM   20  C   UNL     1      46.248 -10.813   7.654  1.00  0.00     0.036 A 
HETATM   21  C   UNL     1      46.063 -11.134   6.310  1.00  0.00     0.003 A 
HETATM   22  C   UNL     1      44.787 -11.440   5.830  1.00  0.00     0.007 A 
BRANCH  19  23
HETATM   23  O   UNL     1      45.372 -10.470   9.817  1.00  0.00    -0.361 OA
HETATM   24  H   UNL     1      45.883 -11.184  10.232  1.00  0.00     0.217 HD
ENDBRANCH  19  23
ENDBRANCH  16  17
ENDBRANCH   2  16
TORSDOF 4
ENDMDL
