MODEL 1
REMARK VINA RESULT:      -8.9      0.000      0.000
REMARK  6 active torsions:
REMARK  status: ('A' for Active; 'I' for Inactive)
REMARK    1  A    between atoms: O_2  and  C_3 
REMARK    2  A    between atoms: C_8  and  C_9 
REMARK    3  A    between atoms: C_9  and  N_10 
REMARK    4  A    between atoms: N_13  and  C_26 
REMARK    5  A    between atoms: N_18  and  C_22 
REMARK    6  A    between atoms: C_29  and  C_32 
ROOT
HETATM    1  N   UNL     1      42.598 -11.550   6.302  1.00  0.00    -0.318 N 
HETATM    2  C   UNL     1      43.355 -12.722   6.118  1.00  0.00     0.326 C 
HETATM    3  O   UNL     1      44.553 -12.792   6.330  1.00  0.00    -0.247 OA
HETATM    4  N   UNL     1      42.467 -13.724   5.668  1.00  0.00    -0.297 N 
HETATM    5  C   UNL     1      41.108 -13.236   5.729  1.00  0.00     0.165 C 
HETATM    6  C   UNL     1      41.258 -11.691   5.733  1.00  0.00     0.057 C 
HETATM    7  C   UNL     1      40.170 -11.009   6.574  1.00  0.00     0.060 C 
HETATM    8  C   UNL     1      38.799 -11.049   5.913  1.00  0.00     0.238 C 
HETATM    9  N   UNL     1      38.840 -10.501   4.515  1.00  0.00    -0.063 N 
HETATM   10  H   UNL     1      37.909 -10.655   4.084  1.00  0.00     0.280 HD
HETATM   11  C   UNL     1      39.864 -11.164   3.642  1.00  0.00     0.238 C 
HETATM   12  C   UNL     1      41.246 -11.149   4.283  1.00  0.00     0.060 C 
ENDROOT
BRANCH   4  13
HETATM   13  C   UNL     1      42.813 -15.059   5.326  1.00  0.00     0.039 A 
HETATM   14  C   UNL     1      42.982 -15.453   3.994  1.00  0.00     0.030 A 
HETATM   15  C   UNL     1      43.283 -16.780   3.655  1.00  0.00     0.014 A 
HETATM   16  C   UNL     1      43.424 -17.759   4.640  1.00  0.00    -0.023 A 
HETATM   17  C   UNL     1      43.275 -17.371   5.975  1.00  0.00     0.014 A 
HETATM   18  C   UNL     1      42.972 -16.041   6.313  1.00  0.00     0.030 A 
BRANCH  16  19
HETATM   19  C   UNL     1      43.721 -19.140   4.300  1.00  0.00     0.010 A 
HETATM   20  C   UNL     1      43.738 -19.807   3.051  1.00  0.00     0.152 A 
HETATM   21  N   UNL     1      44.087 -21.092   3.152  1.00  0.00    -0.187 NA
HETATM   22  N   UNL     1      44.284 -21.263   4.468  1.00  0.00    -0.289 N 
HETATM   23  H   UNL     1      44.558 -22.182   4.800  1.00  0.00     0.188 HD
HETATM   24  C   UNL     1      44.087 -20.125   5.196  1.00  0.00     0.123 A 
ENDBRANCH  16  19
ENDBRANCH   4  13
BRANCH   1  25
HETATM   25  C   UNL     1      43.232 -10.300   6.706  1.00  0.00     0.167 C 
BRANCH  25  26
HETATM   26  C   UNL     1      43.350 -10.141   8.202  1.00  0.00    -0.035 A 
HETATM   27  C   UNL     1      44.529 -10.456   8.888  1.00  0.00     0.051 A 
HETATM   28  C   UNL     1      44.620 -10.231  10.258  1.00  0.00     0.119 A 
HETATM   29  C   UNL     1      43.568  -9.668  10.972  1.00  0.00     0.079 A 
HETATM   30  F   UNL     1      45.746 -10.563  10.902  1.00  0.00    -0.206 F 
HETATM   31  C   UNL     1      42.402  -9.316  10.300  1.00  0.00     0.071 A 
HETATM   32  C   UNL     1      42.293  -9.565   8.926  1.00  0.00     0.045 A 
BRANCH  31  33
HETATM   33  O   UNL     1      41.298  -8.741  10.869  1.00  0.00    -0.356 OA
HETATM   34  C   UNL     1      40.166  -9.594  11.030  1.00  0.00     0.210 C 
ENDBRANCH  31  33
ENDBRANCH  25  26
ENDBRANCH   1  25
BRANCH   9  35
HETATM   35  C   UNL     1      39.047  -8.988   4.531  1.00  0.00     0.235 C 
HETATM   36  C   UNL     1      38.964  -8.324   3.125  1.00  0.00     0.203 C 
HETATM   37  O   UNL     1      37.534  -8.134   3.308  1.00  0.00    -0.387 OA
HETATM   38  C   UNL     1      37.737  -8.176   4.748  1.00  0.00     0.203 C 
ENDBRANCH   9  35
TORSDOF 6
ENDMDL
MODEL 2
REMARK VINA RESULT:      -8.6     17.926     20.414
REMARK  6 active torsions:
REMARK  status: ('A' for Active; 'I' for Inactive)
REMARK    1  A    between atoms: O_2  and  C_3 
REMARK    2  A    between atoms: C_8  and  C_9 
REMARK    3  A    between atoms: C_9  and  N_10 
REMARK    4  A    between atoms: N_13  and  C_26 
REMARK    5  A    between atoms: N_18  and  C_22 
REMARK    6  A    between atoms: C_29  and  C_32 
ROOT
HETATM    1  N   UNL     1      44.308 -29.680   0.996  1.00  0.00    -0.318 N 
HETATM    2  C   UNL     1      42.970 -29.831   1.407  1.00  0.00     0.326 C 
HETATM    3  O   UNL     1      42.064 -29.108   1.033  1.00  0.00    -0.247 OA
HETATM    4  N   UNL     1      42.928 -30.936   2.285  1.00  0.00    -0.297 N 
HETATM    5  C   UNL     1      44.212 -31.598   2.301  1.00  0.00     0.165 C 
HETATM    6  C   UNL     1      45.204 -30.517   1.794  1.00  0.00     0.057 C 
HETATM    7  C   UNL     1      46.350 -31.126   0.974  1.00  0.00     0.060 C 
HETATM    8  C   UNL     1      47.349 -31.891   1.830  1.00  0.00     0.238 C 
HETATM    9  N   UNL     1      47.867 -31.050   2.963  1.00  0.00    -0.063 N 
HETATM   10  H   UNL     1      48.454 -31.655   3.567  1.00  0.00     0.280 HD
HETATM   11  C   UNL     1      46.782 -30.463   3.818  1.00  0.00     0.238 C 
HETATM   12  C   UNL     1      45.760 -29.701   2.985  1.00  0.00     0.060 C 
ENDROOT
BRANCH   4  13
HETATM   13  C   UNL     1      41.778 -31.424   2.962  1.00  0.00     0.039 A 
HETATM   14  C   UNL     1      41.389 -30.914   4.206  1.00  0.00     0.030 A 
HETATM   15  C   UNL     1      40.277 -31.425   4.892  1.00  0.00     0.014 A 
HETATM   16  C   UNL     1      39.519 -32.468   4.357  1.00  0.00    -0.023 A 
HETATM   17  C   UNL     1      39.890 -32.973   3.107  1.00  0.00     0.014 A 
HETATM   18  C   UNL     1      41.004 -32.459   2.421  1.00  0.00     0.030 A 
BRANCH  16  19
HETATM   19  C   UNL     1      38.375 -33.016   5.067  1.00  0.00     0.010 A 
HETATM   20  C   UNL     1      38.187 -33.312   6.438  1.00  0.00     0.152 A 
HETATM   21  N   UNL     1      36.969 -33.790   6.704  1.00  0.00    -0.187 NA
HETATM   22  N   UNL     1      36.370 -33.815   5.504  1.00  0.00    -0.289 N 
HETATM   23  H   UNL     1      35.416 -34.154   5.448  1.00  0.00     0.188 HD
HETATM   24  C   UNL     1      37.165 -33.354   4.494  1.00  0.00     0.123 A 
ENDBRANCH  16  19
ENDBRANCH   4  13
BRANCH   1  25
HETATM   25  C   UNL     1      44.708 -28.580   0.126  1.00  0.00     0.167 C 
BRANCH  25  26
HETATM   26  C   UNL     1      44.627 -28.914  -1.343  1.00  0.00    -0.035 A 
HETATM   27  C   UNL     1      45.005 -27.997  -2.331  1.00  0.00     0.051 A 
HETATM   28  C   UNL     1      44.979 -28.368  -3.673  1.00  0.00     0.119 A 
HETATM   29  C   UNL     1      44.610 -29.650  -4.065  1.00  0.00     0.079 A 
HETATM   30  F   UNL     1      45.318 -27.469  -4.606  1.00  0.00    -0.206 F 
HETATM   31  C   UNL     1      44.266 -30.585  -3.093  1.00  0.00     0.071 A 
HETATM   32  C   UNL     1      44.263 -30.211  -1.743  1.00  0.00     0.045 A 
BRANCH  31  33
HETATM   33  O   UNL     1      43.901 -31.882  -3.331  1.00  0.00    -0.356 OA
HETATM   34  C   UNL     1      44.708 -32.593  -4.267  1.00  0.00     0.210 C 
ENDBRANCH  31  33
ENDBRANCH  25  26
ENDBRANCH   1  25
BRANCH   9  35
HETATM   35  C   UNL     1      48.795 -29.953   2.445  1.00  0.00     0.235 C 
HETATM   36  C   UNL     1      49.552 -29.185   3.567  1.00  0.00     0.203 C 
HETATM   37  O   UNL     1      50.638 -30.148   3.483  1.00  0.00    -0.387 OA
HETATM   38  C   UNL     1      50.233 -30.450   2.118  1.00  0.00     0.203 C 
ENDBRANCH   9  35
TORSDOF 6
ENDMDL
MODEL 3
REMARK VINA RESULT:      -8.5      4.382      7.231
REMARK  6 active torsions:
REMARK  status: ('A' for Active; 'I' for Inactive)
REMARK    1  A    between atoms: O_2  and  C_3 
REMARK    2  A    between atoms: C_8  and  C_9 
REMARK    3  A    between atoms: C_9  and  N_10 
REMARK    4  A    between atoms: N_13  and  C_26 
REMARK    5  A    between atoms: N_18  and  C_22 
REMARK    6  A    between atoms: C_29  and  C_32 
ROOT
HETATM    1  N   UNL     1      40.177 -12.608   1.709  1.00  0.00    -0.318 N 
HETATM    2  C   UNL     1      40.480 -13.982   1.686  1.00  0.00     0.326 C 
HETATM    3  O   UNL     1      39.940 -14.781   0.943  1.00  0.00    -0.247 OA
HETATM    4  N   UNL     1      41.486 -14.201   2.653  1.00  0.00    -0.297 N 
HETATM    5  C   UNL     1      41.948 -12.934   3.175  1.00  0.00     0.165 C 
HETATM    6  C   UNL     1      40.789 -11.950   2.862  1.00  0.00     0.057 C 
HETATM    7  C   UNL     1      41.303 -10.537   2.549  1.00  0.00     0.060 C 
HETATM    8  C   UNL     1      41.822  -9.810   3.781  1.00  0.00     0.238 C 
HETATM    9  N   UNL     1      40.805  -9.795   4.887  1.00  0.00    -0.063 N 
HETATM   10  H   UNL     1      41.254  -9.385   5.727  1.00  0.00     0.280 HD
HETATM   11  C   UNL     1      40.301 -11.159   5.256  1.00  0.00     0.238 C 
HETATM   12  C   UNL     1      39.784 -11.916   4.039  1.00  0.00     0.060 C 
ENDROOT
BRANCH   4  13
HETATM   13  C   UNL     1      42.068 -15.453   2.989  1.00  0.00     0.039 A 
HETATM   14  C   UNL     1      42.554 -16.322   2.006  1.00  0.00     0.030 A 
HETATM   15  C   UNL     1      43.090 -17.575   2.336  1.00  0.00     0.014 A 
HETATM   16  C   UNL     1      43.156 -18.002   3.663  1.00  0.00    -0.023 A 
HETATM   17  C   UNL     1      42.688 -17.134   4.654  1.00  0.00     0.014 A 
HETATM   18  C   UNL     1      42.151 -15.879   4.322  1.00  0.00     0.030 A 
BRANCH  16  19
HETATM   19  C   UNL     1      43.695 -19.305   4.015  1.00  0.00     0.010 A 
HETATM   20  C   UNL     1      44.204 -19.801   5.239  1.00  0.00     0.152 A 
HETATM   21  N   UNL     1      44.590 -21.077   5.164  1.00  0.00    -0.187 NA
HETATM   22  N   UNL     1      44.342 -21.406   3.887  1.00  0.00    -0.289 N 
HETATM   23  H   UNL     1      44.563 -22.348   3.581  1.00  0.00     0.188 HD
HETATM   24  C   UNL     1      43.799 -20.385   3.161  1.00  0.00     0.123 A 
ENDBRANCH  16  19
ENDBRANCH   4  13
BRANCH   1  25
HETATM   25  C   UNL     1      39.123 -12.057   0.864  1.00  0.00     0.167 C 
BRANCH  25  26
HETATM   26  C   UNL     1      39.551 -11.836  -0.566  1.00  0.00    -0.035 A 
HETATM   27  C   UNL     1      40.345 -10.746  -0.940  1.00  0.00     0.051 A 
HETATM   28  C   UNL     1      40.774 -10.615  -2.258  1.00  0.00     0.119 A 
HETATM   29  C   UNL     1      40.454 -11.564  -3.222  1.00  0.00     0.079 A 
HETATM   30  F   UNL     1      41.510  -9.551  -2.603  1.00  0.00    -0.206 F 
HETATM   31  C   UNL     1      39.696 -12.673  -2.860  1.00  0.00     0.071 A 
HETATM   32  C   UNL     1      39.237 -12.797  -1.542  1.00  0.00     0.045 A 
BRANCH  31  33
HETATM   33  O   UNL     1      39.322 -13.689  -3.696  1.00  0.00    -0.356 OA
HETATM   34  C   UNL     1      38.384 -14.621  -3.161  1.00  0.00     0.210 C 
ENDBRANCH  31  33
ENDBRANCH  25  26
ENDBRANCH   1  25
BRANCH   9  35
HETATM   35  C   UNL     1      39.642  -8.867   4.542  1.00  0.00     0.235 C 
HETATM   36  C   UNL     1      38.545  -8.793   5.644  1.00  0.00     0.203 C 
HETATM   37  O   UNL     1      39.252  -7.682   6.261  1.00  0.00    -0.387 OA
HETATM   38  C   UNL     1      39.866  -7.389   4.975  1.00  0.00     0.203 C 
ENDBRANCH   9  35
TORSDOF 6
ENDMDL
MODEL 4
REMARK VINA RESULT:      -8.5      4.207      6.712
REMARK  6 active torsions:
REMARK  status: ('A' for Active; 'I' for Inactive)
REMARK    1  A    between atoms: O_2  and  C_3 
REMARK    2  A    between atoms: C_8  and  C_9 
REMARK    3  A    between atoms: C_9  and  N_10 
REMARK    4  A    between atoms: N_13  and  C_26 
REMARK    5  A    between atoms: N_18  and  C_22 
REMARK    6  A    between atoms: C_29  and  C_32 
ROOT
HETATM    1  N   UNL     1      40.598 -11.881   2.167  1.00  0.00    -0.318 N 
HETATM    2  C   UNL     1      40.841 -13.234   1.865  1.00  0.00     0.326 C 
HETATM    3  O   UNL     1      40.349 -13.812   0.912  1.00  0.00    -0.247 OA
HETATM    4  N   UNL     1      41.727 -13.727   2.849  1.00  0.00    -0.297 N 
HETATM    5  C   UNL     1      42.185 -12.639   3.683  1.00  0.00     0.165 C 
HETATM    6  C   UNL     1      41.111 -11.535   3.492  1.00  0.00     0.057 C 
HETATM    7  C   UNL     1      41.718 -10.126   3.555  1.00  0.00     0.060 C 
HETATM    8  C   UNL     1      42.133  -9.723   4.962  1.00  0.00     0.238 C 
HETATM    9  N   UNL     1      41.005  -9.882   5.942  1.00  0.00    -0.063 N 
HETATM   10  H   UNL     1      41.378  -9.698   6.891  1.00  0.00     0.280 HD
HETATM   11  C   UNL     1      40.404 -11.257   5.944  1.00  0.00     0.238 C 
HETATM   12  C   UNL     1      39.988 -11.693   4.545  1.00  0.00     0.060 C 
ENDROOT
BRANCH   4  13
HETATM   13  C   UNL     1      42.213 -15.058   2.948  1.00  0.00     0.039 A 
HETATM   14  C   UNL     1      42.793 -15.709   1.853  1.00  0.00     0.030 A 
HETATM   15  C   UNL     1      43.235 -17.037   1.941  1.00  0.00     0.014 A 
HETATM   16  C   UNL     1      43.109 -17.760   3.128  1.00  0.00    -0.023 A 
HETATM   17  C   UNL     1      42.545 -17.113   4.232  1.00  0.00     0.014 A 
HETATM   18  C   UNL     1      42.103 -15.782   4.142  1.00  0.00     0.030 A 
BRANCH  16  19
HETATM   19  C   UNL     1      43.549 -19.142   3.226  1.00  0.00     0.010 A 
HETATM   20  C   UNL     1      43.593 -20.174   2.258  1.00  0.00     0.152 A 
HETATM   21  N   UNL     1      44.091 -21.316   2.738  1.00  0.00    -0.187 NA
HETATM   22  N   UNL     1      44.359 -21.029   4.020  1.00  0.00    -0.289 N 
HETATM   23  H   UNL     1      44.750 -21.759   4.606  1.00  0.00     0.188 HD
HETATM   24  C   UNL     1      44.061 -19.740   4.360  1.00  0.00     0.123 A 
ENDBRANCH  16  19
ENDBRANCH   4  13
BRANCH   1  25
HETATM   25  C   UNL     1      39.667 -11.089   1.372  1.00  0.00     0.167 C 
BRANCH  25  26
HETATM   26  C   UNL     1      40.217 -10.683   0.026  1.00  0.00    -0.035 A 
HETATM   27  C   UNL     1      39.500 -10.891  -1.158  1.00  0.00     0.051 A 
HETATM   28  C   UNL     1      40.013 -10.442  -2.372  1.00  0.00     0.119 A 
HETATM   29  C   UNL     1      41.221  -9.758  -2.440  1.00  0.00     0.079 A 
HETATM   30  F   UNL     1      39.325 -10.673  -3.497  1.00  0.00    -0.206 F 
HETATM   31  C   UNL     1      41.930  -9.512  -1.268  1.00  0.00     0.071 A 
HETATM   32  C   UNL     1      41.433  -9.985  -0.047  1.00  0.00     0.045 A 
BRANCH  31  33
HETATM   33  O   UNL     1      43.118  -8.840  -1.184  1.00  0.00    -0.356 OA
HETATM   34  C   UNL     1      43.047  -7.426  -1.355  1.00  0.00     0.210 C 
ENDBRANCH  31  33
ENDBRANCH  25  26
ENDBRANCH   1  25
BRANCH   9  35
HETATM   35  C   UNL     1      39.927  -8.826   5.706  1.00  0.00     0.235 C 
HETATM   36  C   UNL     1      39.221  -8.342   7.005  1.00  0.00     0.203 C 
HETATM   37  O   UNL     1      40.220  -7.296   7.149  1.00  0.00    -0.387 OA
HETATM   38  C   UNL     1      40.465  -7.365   5.717  1.00  0.00     0.203 C 
ENDBRANCH   9  35
TORSDOF 6
ENDMDL
MODEL 5
REMARK VINA RESULT:      -8.4      3.865      8.977
REMARK  6 active torsions:
REMARK  status: ('A' for Active; 'I' for Inactive)
REMARK    1  A    between atoms: O_2  and  C_3 
REMARK    2  A    between atoms: C_8  and  C_9 
REMARK    3  A    between atoms: C_9  and  N_10 
REMARK    4  A    between atoms: N_13  and  C_26 
REMARK    5  A    between atoms: N_18  and  C_22 
REMARK    6  A    between atoms: C_29  and  C_32 
ROOT
HETATM    1  N   UNL     1      40.637 -14.222   3.785  1.00  0.00    -0.318 N 
HETATM    2  C   UNL     1      40.535 -13.688   5.083  1.00  0.00     0.326 C 
HETATM    3  O   UNL     1      40.382 -14.367   6.083  1.00  0.00    -0.247 OA
HETATM    4  N   UNL     1      40.649 -12.285   4.965  1.00  0.00    -0.297 N 
HETATM    5  C   UNL     1      40.996 -11.935   3.607  1.00  0.00     0.165 C 
HETATM    6  C   UNL     1      40.560 -13.170   2.773  1.00  0.00     0.057 C 
HETATM    7  C   UNL     1      41.490 -13.414   1.576  1.00  0.00     0.060 C 
HETATM    8  C   UNL     1      41.313 -12.384   0.469  1.00  0.00     0.238 C 
HETATM    9  N   UNL     1      39.878 -12.273   0.039  1.00  0.00    -0.063 N 
HETATM   10  H   UNL     1      39.806 -11.487  -0.634  1.00  0.00     0.280 HD
HETATM   11  C   UNL     1      38.933 -11.996   1.170  1.00  0.00     0.238 C 
HETATM   12  C   UNL     1      39.095 -13.005   2.300  1.00  0.00     0.060 C 
ENDROOT
BRANCH   4  13
HETATM   13  C   UNL     1      40.570 -11.345   6.028  1.00  0.00     0.039 A 
HETATM   14  C   UNL     1      39.357 -11.062   6.666  1.00  0.00     0.030 A 
HETATM   15  C   UNL     1      39.272 -10.104   7.687  1.00  0.00     0.014 A 
HETATM   16  C   UNL     1      40.400  -9.395   8.103  1.00  0.00    -0.023 A 
HETATM   17  C   UNL     1      41.620  -9.684   7.483  1.00  0.00     0.014 A 
HETATM   18  C   UNL     1      41.703 -10.643   6.460  1.00  0.00     0.030 A 
BRANCH  16  19
HETATM   19  C   UNL     1      40.321  -8.389   9.149  1.00  0.00     0.010 A 
HETATM   20  C   UNL     1      41.191  -8.100  10.227  1.00  0.00     0.152 A 
HETATM   21  N   UNL     1      40.776  -7.069  10.968  1.00  0.00    -0.187 NA
HETATM   22  N   UNL     1      39.630  -6.698  10.377  1.00  0.00    -0.289 N 
HETATM   23  H   UNL     1      39.114  -5.918  10.773  1.00  0.00     0.188 HD
HETATM   24  C   UNL     1      39.318  -7.449   9.281  1.00  0.00     0.123 A 
ENDBRANCH  16  19
ENDBRANCH   4  13
BRANCH   1  25
HETATM   25  C   UNL     1      40.495 -15.654   3.548  1.00  0.00     0.167 C 
BRANCH  25  26
HETATM   26  C   UNL     1      41.801 -16.407   3.613  1.00  0.00    -0.035 A 
HETATM   27  C   UNL     1      42.722 -16.202   4.647  1.00  0.00     0.051 A 
HETATM   28  C   UNL     1      43.885 -16.965   4.706  1.00  0.00     0.119 A 
HETATM   29  C   UNL     1      44.149 -17.960   3.772  1.00  0.00     0.079 A 
HETATM   30  F   UNL     1      44.767 -16.736   5.687  1.00  0.00    -0.206 F 
HETATM   31  C   UNL     1      43.227 -18.202   2.758  1.00  0.00     0.071 A 
HETATM   32  C   UNL     1      42.068 -17.419   2.675  1.00  0.00     0.045 A 
BRANCH  31  33
HETATM   33  O   UNL     1      43.347 -19.155   1.784  1.00  0.00    -0.356 OA
HETATM   34  C   UNL     1      43.666 -20.470   2.237  1.00  0.00     0.210 C 
ENDBRANCH  31  33
ENDBRANCH  25  26
ENDBRANCH   1  25
BRANCH   9  35
HETATM   35  C   UNL     1      39.443 -13.519  -0.731  1.00  0.00     0.235 C 
HETATM   36  C   UNL     1      38.285 -13.268  -1.738  1.00  0.00     0.203 C 
HETATM   37  O   UNL     1      39.261 -12.966  -2.773  1.00  0.00    -0.387 OA
HETATM   38  C   UNL     1      40.241 -13.757  -2.045  1.00  0.00     0.203 C 
ENDBRANCH   9  35
TORSDOF 6
ENDMDL
MODEL 6
REMARK VINA RESULT:      -8.3      3.969      8.679
REMARK  6 active torsions:
REMARK  status: ('A' for Active; 'I' for Inactive)
REMARK    1  A    between atoms: O_2  and  C_3 
REMARK    2  A    between atoms: C_8  and  C_9 
REMARK    3  A    between atoms: C_9  and  N_10 
REMARK    4  A    between atoms: N_13  and  C_26 
REMARK    5  A    between atoms: N_18  and  C_22 
REMARK    6  A    between atoms: C_29  and  C_32 
ROOT
HETATM    1  N   UNL     1      40.849 -14.200   3.691  1.00  0.00    -0.318 N 
HETATM    2  C   UNL     1      40.952 -13.616   4.968  1.00  0.00     0.326 C 
HETATM    3  O   UNL     1      40.821 -14.237   6.007  1.00  0.00    -0.247 OA
HETATM    4  N   UNL     1      41.226 -12.244   4.776  1.00  0.00    -0.297 N 
HETATM    5  C   UNL     1      41.469 -11.984   3.375  1.00  0.00     0.165 C 
HETATM    6  C   UNL     1      40.797 -13.179   2.645  1.00  0.00     0.057 C 
HETATM    7  C   UNL     1      41.559 -13.579   1.374  1.00  0.00     0.060 C 
HETATM    8  C   UNL     1      41.396 -12.571   0.245  1.00  0.00     0.238 C 
HETATM    9  N   UNL     1      39.948 -12.291  -0.044  1.00  0.00    -0.063 N 
HETATM   10  H   UNL     1      39.905 -11.524  -0.741  1.00  0.00     0.280 HD
HETATM   11  C   UNL     1      39.169 -11.858   1.163  1.00  0.00     0.238 C 
HETATM   12  C   UNL     1      39.323 -12.843   2.315  1.00  0.00     0.060 C 
ENDROOT
BRANCH   4  13
HETATM   13  C   UNL     1      41.376 -11.268   5.798  1.00  0.00     0.039 A 
HETATM   14  C   UNL     1      42.633 -10.940   6.318  1.00  0.00     0.030 A 
HETATM   15  C   UNL     1      42.775 -10.006   7.355  1.00  0.00     0.014 A 
HETATM   16  C   UNL     1      41.663  -9.371   7.909  1.00  0.00    -0.023 A 
HETATM   17  C   UNL     1      40.404  -9.680   7.383  1.00  0.00     0.014 A 
HETATM   18  C   UNL     1      40.263 -10.615   6.344  1.00  0.00     0.030 A 
BRANCH  16  19
HETATM   19  C   UNL     1      41.797  -8.414   8.994  1.00  0.00     0.010 A 
HETATM   20  C   UNL     1      42.784  -7.432   9.250  1.00  0.00     0.152 A 
HETATM   21  N   UNL     1      42.539  -6.724  10.356  1.00  0.00    -0.187 NA
HETATM   22  N   UNL     1      41.399  -7.256  10.824  1.00  0.00    -0.289 N 
HETATM   23  H   UNL     1      41.007  -6.878  11.681  1.00  0.00     0.188 HD
HETATM   24  C   UNL     1      40.911  -8.262  10.042  1.00  0.00     0.123 A 
ENDBRANCH  16  19
ENDBRANCH   4  13
BRANCH   1  25
HETATM   25  C   UNL     1      40.507 -15.609   3.535  1.00  0.00     0.167 C 
BRANCH  25  26
HETATM   26  C   UNL     1      41.706 -16.524   3.537  1.00  0.00    -0.035 A 
HETATM   27  C   UNL     1      41.941 -17.437   2.502  1.00  0.00     0.051 A 
HETATM   28  C   UNL     1      43.094 -18.217   2.508  1.00  0.00     0.119 A 
HETATM   29  C   UNL     1      44.049 -18.093   3.511  1.00  0.00     0.079 A 
HETATM   30  F   UNL     1      43.288 -19.104   1.524  1.00  0.00    -0.206 F 
HETATM   31  C   UNL     1      43.849 -17.165   4.528  1.00  0.00     0.071 A 
HETATM   32  C   UNL     1      42.677 -16.397   4.544  1.00  0.00     0.045 A 
BRANCH  31  33
HETATM   33  O   UNL     1      44.707 -16.925   5.566  1.00  0.00    -0.356 OA
HETATM   34  C   UNL     1      44.108 -16.458   6.773  1.00  0.00     0.210 C 
ENDBRANCH  31  33
ENDBRANCH  25  26
ENDBRANCH   1  25
BRANCH   9  35
HETATM   35  C   UNL     1      39.284 -13.495  -0.709  1.00  0.00     0.235 C 
HETATM   36  C   UNL     1      38.184 -13.119  -1.744  1.00  0.00     0.203 C 
HETATM   37  O   UNL     1      39.192 -13.091  -2.792  1.00  0.00    -0.387 OA
HETATM   38  C   UNL     1      40.014 -13.987  -1.993  1.00  0.00     0.203 C 
ENDBRANCH   9  35
TORSDOF 6
ENDMDL
MODEL 7
REMARK VINA RESULT:      -8.2      3.746      4.941
REMARK  6 active torsions:
REMARK  status: ('A' for Active; 'I' for Inactive)
REMARK    1  A    between atoms: O_2  and  C_3 
REMARK    2  A    between atoms: C_8  and  C_9 
REMARK    3  A    between atoms: C_9  and  N_10 
REMARK    4  A    between atoms: N_13  and  C_26 
REMARK    5  A    between atoms: N_18  and  C_22 
REMARK    6  A    between atoms: C_29  and  C_32 
ROOT
HETATM    1  N   UNL     1      41.077 -11.622   1.999  1.00  0.00    -0.318 N 
HETATM    2  C   UNL     1      41.852 -12.632   2.598  1.00  0.00     0.326 C 
HETATM    3  O   UNL     1      42.713 -12.417   3.433  1.00  0.00    -0.247 OA
HETATM    4  N   UNL     1      41.428 -13.862   2.048  1.00  0.00    -0.297 N 
HETATM    5  C   UNL     1      40.261 -13.653   1.222  1.00  0.00     0.165 C 
HETATM    6  C   UNL     1      40.314 -12.143   0.865  1.00  0.00     0.057 C 
HETATM    7  C   UNL     1      38.912 -11.530   0.748  1.00  0.00     0.060 C 
HETATM    8  C   UNL     1      38.172 -11.979  -0.504  1.00  0.00     0.238 C 
HETATM    9  N   UNL     1      38.985 -11.739  -1.745  1.00  0.00    -0.063 N 
HETATM   10  H   UNL     1      38.477 -12.162  -2.545  1.00  0.00     0.280 HD
HETATM   11  C   UNL     1      40.352 -12.354  -1.693  1.00  0.00     0.238 C 
HETATM   12  C   UNL     1      41.113 -11.931  -0.444  1.00  0.00     0.060 C 
ENDROOT
BRANCH   4  13
HETATM   13  C   UNL     1      41.967 -15.144   2.346  1.00  0.00     0.039 A 
HETATM   14  C   UNL     1      42.933 -15.740   1.527  1.00  0.00     0.030 A 
HETATM   15  C   UNL     1      43.433 -17.022   1.800  1.00  0.00     0.014 A 
HETATM   16  C   UNL     1      42.980 -17.752   2.900  1.00  0.00    -0.023 A 
HETATM   17  C   UNL     1      42.027 -17.157   3.733  1.00  0.00     0.014 A 
HETATM   18  C   UNL     1      41.527 -15.872   3.459  1.00  0.00     0.030 A 
BRANCH  16  19
HETATM   19  C   UNL     1      43.480 -19.087   3.183  1.00  0.00     0.010 A 
HETATM   20  C   UNL     1      43.522 -20.252   2.381  1.00  0.00     0.152 A 
HETATM   21  N   UNL     1      44.087 -21.291   3.002  1.00  0.00    -0.187 NA
HETATM   22  N   UNL     1      44.401 -20.802   4.211  1.00  0.00    -0.289 N 
HETATM   23  H   UNL     1      44.847 -21.421   4.880  1.00  0.00     0.188 HD
HETATM   24  C   UNL     1      44.067 -19.487   4.367  1.00  0.00     0.123 A 
ENDBRANCH  16  19
ENDBRANCH   4  13
BRANCH   1  25
HETATM   25  C   UNL     1      41.308 -10.216   2.305  1.00  0.00     0.167 C 
BRANCH  25  26
HETATM   26  C   UNL     1      40.742  -9.787   3.636  1.00  0.00    -0.035 A 
HETATM   27  C   UNL     1      39.424 -10.080   4.008  1.00  0.00     0.051 A 
HETATM   28  C   UNL     1      38.960  -9.725   5.271  1.00  0.00     0.119 A 
HETATM   29  C   UNL     1      39.788  -9.104   6.200  1.00  0.00     0.079 A 
HETATM   30  F   UNL     1      37.689  -9.990   5.599  1.00  0.00    -0.206 F 
HETATM   31  C   UNL     1      41.111  -8.837   5.861  1.00  0.00     0.071 A 
HETATM   32  C   UNL     1      41.576  -9.166   4.580  1.00  0.00     0.045 A 
BRANCH  31  33
HETATM   33  O   UNL     1      42.038  -8.249   6.676  1.00  0.00    -0.356 OA
HETATM   34  C   UNL     1      41.802  -8.373   8.077  1.00  0.00     0.210 C 
ENDBRANCH  31  33
ENDBRANCH  25  26
ENDBRANCH   1  25
BRANCH   9  35
HETATM   35  C   UNL     1      39.078 -10.246  -2.053  1.00  0.00     0.235 C 
HETATM   36  C   UNL     1      39.214  -9.921  -3.569  1.00  0.00     0.203 C 
HETATM   37  O   UNL     1      37.765  -9.856  -3.676  1.00  0.00    -0.387 OA
HETATM   38  C   UNL     1      37.697  -9.557  -2.254  1.00  0.00     0.203 C 
ENDBRANCH   9  35
TORSDOF 6
ENDMDL
MODEL 8
REMARK VINA RESULT:      -8.1      2.236      3.055
REMARK  6 active torsions:
REMARK  status: ('A' for Active; 'I' for Inactive)
REMARK    1  A    between atoms: O_2  and  C_3 
REMARK    2  A    between atoms: C_8  and  C_9 
REMARK    3  A    between atoms: C_9  and  N_10 
REMARK    4  A    between atoms: N_13  and  C_26 
REMARK    5  A    between atoms: N_18  and  C_22 
REMARK    6  A    between atoms: C_29  and  C_32 
ROOT
HETATM    1  N   UNL     1      41.931 -11.388   3.961  1.00  0.00    -0.318 N 
HETATM    2  C   UNL     1      42.609 -12.597   4.208  1.00  0.00     0.326 C 
HETATM    3  O   UNL     1      43.591 -12.686   4.922  1.00  0.00    -0.247 OA
HETATM    4  N   UNL     1      41.930 -13.607   3.490  1.00  0.00    -0.297 N 
HETATM    5  C   UNL     1      40.715 -13.070   2.921  1.00  0.00     0.165 C 
HETATM    6  C   UNL     1      40.959 -11.538   2.879  1.00  0.00     0.057 C 
HETATM    7  C   UNL     1      39.667 -10.743   3.115  1.00  0.00     0.060 C 
HETATM    8  C   UNL     1      38.713 -10.800   1.930  1.00  0.00     0.238 C 
HETATM    9  N   UNL     1      39.389 -10.389   0.653  1.00  0.00    -0.063 N 
HETATM   10  H   UNL     1      38.724 -10.552  -0.127  1.00  0.00     0.280 HD
HETATM   11  C   UNL     1      40.638 -11.166   0.359  1.00  0.00     0.238 C 
HETATM   12  C   UNL     1      41.609 -11.136   1.533  1.00  0.00     0.060 C 
ENDROOT
BRANCH   4  13
HETATM   13  C   UNL     1      42.294 -14.979   3.428  1.00  0.00     0.039 A 
HETATM   14  C   UNL     1      42.255 -15.798   4.562  1.00  0.00     0.030 A 
HETATM   15  C   UNL     1      42.653 -17.142   4.508  1.00  0.00     0.014 A 
HETATM   16  C   UNL     1      43.107 -17.711   3.317  1.00  0.00    -0.023 A 
HETATM   17  C   UNL     1      43.133 -16.904   2.175  1.00  0.00     0.014 A 
HETATM   18  C   UNL     1      42.734 -15.558   2.230  1.00  0.00     0.030 A 
BRANCH  16  19
HETATM   19  C   UNL     1      43.537 -19.098   3.253  1.00  0.00     0.010 A 
HETATM   20  C   UNL     1      43.550 -20.018   2.178  1.00  0.00     0.152 A 
HETATM   21  N   UNL     1      44.049 -21.209   2.519  1.00  0.00    -0.187 NA
HETATM   22  N   UNL     1      44.348 -21.065   3.819  1.00  0.00    -0.289 N 
HETATM   23  H   UNL     1      44.745 -21.858   4.313  1.00  0.00     0.188 HD
HETATM   24  C   UNL     1      44.068 -19.819   4.303  1.00  0.00     0.123 A 
ENDBRANCH  16  19
ENDBRANCH   4  13
BRANCH   1  25
HETATM   25  C   UNL     1      42.418 -10.128   4.510  1.00  0.00     0.167 C 
BRANCH  25  26
HETATM   26  C   UNL     1      41.942  -9.859   5.917  1.00  0.00    -0.035 A 
HETATM   27  C   UNL     1      42.799  -9.963   7.019  1.00  0.00     0.051 A 
HETATM   28  C   UNL     1      42.337  -9.641   8.293  1.00  0.00     0.119 A 
HETATM   29  C   UNL     1      41.041  -9.186   8.502  1.00  0.00     0.079 A 
HETATM   30  F   UNL     1      43.163  -9.773   9.339  1.00  0.00    -0.206 F 
HETATM   31  C   UNL     1      40.187  -9.043   7.412  1.00  0.00     0.071 A 
HETATM   32  C   UNL     1      40.635  -9.391   6.131  1.00  0.00     0.045 A 
BRANCH  31  33
HETATM   33  O   UNL     1      38.897  -8.592   7.467  1.00  0.00    -0.356 OA
HETATM   34  C   UNL     1      38.634  -7.374   6.773  1.00  0.00     0.210 C 
ENDBRANCH  31  33
ENDBRANCH  25  26
ENDBRANCH   1  25
BRANCH   9  35
HETATM   35  C   UNL     1      39.676  -8.888   0.648  1.00  0.00     0.235 C 
HETATM   36  C   UNL     1      40.402  -8.388  -0.634  1.00  0.00     0.203 C 
HETATM   37  O   UNL     1      39.112  -8.146  -1.260  1.00  0.00    -0.387 OA
HETATM   38  C   UNL     1      38.519  -8.028   0.063  1.00  0.00     0.203 C 
ENDBRANCH   9  35
TORSDOF 6
ENDMDL
MODEL 9
REMARK VINA RESULT:      -7.9      2.224      2.872
REMARK  6 active torsions:
REMARK  status: ('A' for Active; 'I' for Inactive)
REMARK    1  A    between atoms: O_2  and  C_3 
REMARK    2  A    between atoms: C_8  and  C_9 
REMARK    3  A    between atoms: C_9  and  N_10 
REMARK    4  A    between atoms: N_13  and  C_26 
REMARK    5  A    between atoms: N_18  and  C_22 
REMARK    6  A    between atoms: C_29  and  C_32 
ROOT
HETATM    1  N   UNL     1      41.983 -11.303   4.187  1.00  0.00    -0.318 N 
HETATM    2  C   UNL     1      42.730 -12.482   4.367  1.00  0.00     0.326 C 
HETATM    3  O   UNL     1      43.774 -12.531   4.993  1.00  0.00    -0.247 OA
HETATM    4  N   UNL     1      42.037 -13.518   3.704  1.00  0.00    -0.297 N 
HETATM    5  C   UNL     1      40.755 -13.034   3.244  1.00  0.00     0.165 C 
HETATM    6  C   UNL     1      40.928 -11.492   3.192  1.00  0.00     0.057 C 
HETATM    7  C   UNL     1      39.628 -10.755   3.543  1.00  0.00     0.060 C 
HETATM    8  C   UNL     1      38.578 -10.850   2.444  1.00  0.00     0.238 C 
HETATM    9  N   UNL     1      39.124 -10.406   1.116  1.00  0.00    -0.063 N 
HETATM   10  H   UNL     1      38.402 -10.596   0.396  1.00  0.00     0.280 HD
HETATM   11  C   UNL     1      40.375 -11.128   0.711  1.00  0.00     0.238 C 
HETATM   12  C   UNL     1      41.441 -11.059   1.797  1.00  0.00     0.060 C 
ENDROOT
BRANCH   4  13
HETATM   13  C   UNL     1      42.452 -14.874   3.601  1.00  0.00     0.039 A 
HETATM   14  C   UNL     1      42.740 -15.459   2.364  1.00  0.00     0.030 A 
HETATM   15  C   UNL     1      43.111 -16.809   2.261  1.00  0.00     0.014 A 
HETATM   16  C   UNL     1      43.203 -17.618   3.394  1.00  0.00    -0.023 A 
HETATM   17  C   UNL     1      42.934 -17.036   4.637  1.00  0.00     0.014 A 
HETATM   18  C   UNL     1      42.563 -15.684   4.739  1.00  0.00     0.030 A 
BRANCH  16  19
HETATM   19  C   UNL     1      43.571 -19.020   3.298  1.00  0.00     0.010 A 
HETATM   20  C   UNL     1      43.522 -19.921   2.207  1.00  0.00     0.152 A 
HETATM   21  N   UNL     1      43.975 -21.138   2.517  1.00  0.00    -0.187 NA
HETATM   22  N   UNL     1      44.307 -21.031   3.812  1.00  0.00    -0.289 N 
HETATM   23  H   UNL     1      44.679 -21.849   4.284  1.00  0.00     0.188 HD
HETATM   24  C   UNL     1      44.093 -19.783   4.323  1.00  0.00     0.123 A 
ENDBRANCH  16  19
ENDBRANCH   4  13
BRANCH   1  25
HETATM   25  C   UNL     1      42.460 -10.025   4.700  1.00  0.00     0.167 C 
BRANCH  25  26
HETATM   26  C   UNL     1      42.077  -9.771   6.138  1.00  0.00    -0.035 A 
HETATM   27  C   UNL     1      40.756  -9.498   6.513  1.00  0.00     0.051 A 
HETATM   28  C   UNL     1      40.433  -9.336   7.858  1.00  0.00     0.119 A 
HETATM   29  C   UNL     1      41.392  -9.467   8.855  1.00  0.00     0.079 A 
HETATM   30  F   UNL     1      39.169  -9.050   8.196  1.00  0.00    -0.206 F 
HETATM   31  C   UNL     1      42.703  -9.773   8.503  1.00  0.00     0.071 A 
HETATM   32  C   UNL     1      43.041  -9.910   7.150  1.00  0.00     0.045 A 
BRANCH  31  33
HETATM   33  O   UNL     1      43.742  -9.947   9.375  1.00  0.00    -0.356 OA
HETATM   34  C   UNL     1      43.381 -10.147  10.740  1.00  0.00     0.210 C 
ENDBRANCH  31  33
ENDBRANCH  25  26
ENDBRANCH   1  25
BRANCH   9  35
HETATM   35  C   UNL     1      39.344  -8.895   1.097  1.00  0.00     0.235 C 
HETATM   36  C   UNL     1      39.835  -8.346  -0.274  1.00  0.00     0.203 C 
HETATM   37  O   UNL     1      38.452  -8.152  -0.682  1.00  0.00    -0.387 OA
HETATM   38  C   UNL     1      38.074  -8.079   0.721  1.00  0.00     0.203 C 
ENDBRANCH   9  35
TORSDOF 6
ENDMDL
MODEL 10
REMARK VINA RESULT:      -7.8      4.310      8.033
REMARK  6 active torsions:
REMARK  status: ('A' for Active; 'I' for Inactive)
REMARK    1  A    between atoms: O_2  and  C_3 
REMARK    2  A    between atoms: C_8  and  C_9 
REMARK    3  A    between atoms: C_9  and  N_10 
REMARK    4  A    between atoms: N_13  and  C_26 
REMARK    5  A    between atoms: N_18  and  C_22 
REMARK    6  A    between atoms: C_29  and  C_32 
ROOT
HETATM    1  N   UNL     1      42.812 -12.472   2.620  1.00  0.00    -0.318 N 
HETATM    2  C   UNL     1      41.958 -11.830   1.704  1.00  0.00     0.326 C 
HETATM    3  O   UNL     1      42.043 -10.649   1.416  1.00  0.00    -0.247 OA
HETATM    4  N   UNL     1      41.051 -12.803   1.229  1.00  0.00    -0.297 N 
HETATM    5  C   UNL     1      41.435 -14.109   1.715  1.00  0.00     0.165 C 
HETATM    6  C   UNL     1      42.320 -13.808   2.955  1.00  0.00     0.057 C 
HETATM    7  C   UNL     1      43.443 -14.840   3.125  1.00  0.00     0.060 C 
HETATM    8  C   UNL     1      42.935 -16.195   3.597  1.00  0.00     0.238 C 
HETATM    9  N   UNL     1      42.105 -16.073   4.844  1.00  0.00    -0.063 N 
HETATM   10  H   UNL     1      41.702 -17.006   5.051  1.00  0.00     0.280 HD
HETATM   11  C   UNL     1      40.968 -15.102   4.713  1.00  0.00     0.238 C 
HETATM   12  C   UNL     1      41.445 -13.738   4.231  1.00  0.00     0.060 C 
ENDROOT
BRANCH   4  13
HETATM   13  C   UNL     1      39.990 -12.582   0.309  1.00  0.00     0.039 A 
HETATM   14  C   UNL     1      40.046 -13.068  -1.001  1.00  0.00     0.030 A 
HETATM   15  C   UNL     1      39.017 -12.815  -1.921  1.00  0.00     0.014 A 
HETATM   16  C   UNL     1      37.898 -12.063  -1.558  1.00  0.00    -0.023 A 
HETATM   17  C   UNL     1      37.826 -11.587  -0.245  1.00  0.00     0.014 A 
HETATM   18  C   UNL     1      38.858 -11.842   0.674  1.00  0.00     0.030 A 
BRANCH  16  19
HETATM   19  C   UNL     1      36.834 -11.781  -2.507  1.00  0.00     0.010 A 
HETATM   20  C   UNL     1      36.230 -10.559  -2.890  1.00  0.00     0.152 A 
HETATM   21  N   UNL     1      35.287 -10.715  -3.822  1.00  0.00    -0.187 NA
HETATM   22  N   UNL     1      35.270 -12.039  -4.035  1.00  0.00    -0.289 N 
HETATM   23  H   UNL     1      34.614 -12.410  -4.715  1.00  0.00     0.188 HD
HETATM   24  C   UNL     1      36.182 -12.720  -3.281  1.00  0.00     0.123 A 
ENDBRANCH  16  19
ENDBRANCH   4  13
BRANCH   1  25
HETATM   25  C   UNL     1      43.834 -11.727   3.345  1.00  0.00     0.167 C 
BRANCH  25  26
HETATM   26  C   UNL     1      43.355 -11.173   4.664  1.00  0.00    -0.035 A 
HETATM   27  C   UNL     1      42.166 -10.440   4.769  1.00  0.00     0.051 A 
HETATM   28  C   UNL     1      41.725 -10.003   6.015  1.00  0.00     0.119 A 
HETATM   29  C   UNL     1      42.425 -10.302   7.179  1.00  0.00     0.079 A 
HETATM   30  F   UNL     1      40.600  -9.281   6.094  1.00  0.00    -0.206 F 
HETATM   31  C   UNL     1      43.589 -11.060   7.096  1.00  0.00     0.071 A 
HETATM   32  C   UNL     1      44.054 -11.479   5.843  1.00  0.00     0.045 A 
BRANCH  31  33
HETATM   33  O   UNL     1      44.366 -11.442   8.155  1.00  0.00    -0.356 OA
HETATM   34  C   UNL     1      45.612 -10.760   8.289  1.00  0.00     0.210 C 
ENDBRANCH  31  33
ENDBRANCH  25  26
ENDBRANCH   1  25
BRANCH   9  35
HETATM   35  C   UNL     1      42.978 -15.720   6.046  1.00  0.00     0.235 C 
HETATM   36  C   UNL     1      42.459 -16.297   7.395  1.00  0.00     0.203 C 
HETATM   37  O   UNL     1      43.246 -17.500   7.173  1.00  0.00    -0.387 OA
HETATM   38  C   UNL     1      44.129 -16.734   6.307  1.00  0.00     0.203 C 
ENDBRANCH   9  35
TORSDOF 6
ENDMDL
