MODEL 1
REMARK VINA RESULT:      -9.1      0.000      0.000
REMARK  9 active torsions:
REMARK  status: ('A' for Active; 'I' for Inactive)
REMARK    1  A    between atoms: C_4  and  C_5 
REMARK    2  A    between atoms: C_7  and  O_8 
REMARK    3  A    between atoms: C_10  and  O_11 
REMARK    4  A    between atoms: C_16  and  C_17 
REMARK    5  A    between atoms: C_20  and  C_21 
REMARK    6  A    between atoms: C_21  and  N_22 
REMARK    7  A    between atoms: N_22  and  C_23 
REMARK    8  A    between atoms: C_23  and  N_24 
REMARK    9  A    between atoms: N_24  and  C_25 
ROOT
HETATM    1  C   UNL     1      43.140  -9.161  11.515  1.00  0.00     0.035 A 
HETATM    2  C   UNL     1      41.989  -9.910  11.765  1.00  0.00     0.052 A 
HETATM    3  C   UNL     1      41.280  -9.763  12.964  1.00  0.00     0.046 A 
HETATM    4  C   UNL     1      40.126 -10.582  13.185  1.00  0.00     0.099 C 
HETATM    5  N   UNL     1      39.226 -11.306  13.295  1.00  0.00    -0.191 NA
HETATM    6  C   UNL     1      41.707  -8.836  13.914  1.00  0.00     0.023 A 
HETATM    7  C   UNL     1      42.834  -8.055  13.656  1.00  0.00     0.004 A 
HETATM    8  C   UNL     1      43.542  -8.213  12.459  1.00  0.00     0.029 A 
ENDROOT
BRANCH   1   9
HETATM    9  N   UNL     1      43.881  -9.262  10.318  1.00  0.00    -0.333 N 
HETATM   10  H   UNL     1      44.794  -9.703  10.402  1.00  0.00     0.168 HD
BRANCH   9  11
HETATM   11  C   UNL     1      43.656  -8.701   9.090  1.00  0.00     0.172 C 
HETATM   12  S   UNL     1      43.225  -7.092   9.010  1.00  0.00    -0.041 SA
BRANCH  11  13
HETATM   13  N   UNL     1      43.862  -9.518   8.005  1.00  0.00    -0.365 N 
HETATM   14  H   UNL     1      44.569  -9.141   7.380  1.00  0.00     0.161 HD
BRANCH  13  15
HETATM   15  C   UNL     1      42.878 -10.448   7.456  1.00  0.00     0.155 C 
BRANCH  15  16
HETATM   16  C   UNL     1      42.052  -9.853   6.295  1.00  0.00     0.206 C 
HETATM   17  C   UNL     1      42.426 -10.373   4.898  1.00  0.00     0.040 C 
HETATM   18  C   UNL     1      41.160 -10.603   4.038  1.00  0.00     0.001 C 
HETATM   19  C   UNL     1      40.306 -11.761   4.618  1.00  0.00     0.067 C 
HETATM   20  C   UNL     1      40.300  -9.322   4.135  1.00  0.00     0.033 C 
HETATM   21  C   UNL     1      40.158 -11.539   6.140  1.00  0.00     0.246 C 
HETATM   22  N   UNL     1      40.551 -10.094   6.472  1.00  0.00    -0.065 N 
HETATM   23  C   UNL     1      39.786  -9.133   5.569  1.00  0.00     0.236 C 
HETATM   24  H   UNL     1      40.288  -9.900   7.449  1.00  0.00     0.280 HD
BRANCH  19  25
HETATM   25  C   UNL     1      40.794 -13.141   4.280  1.00  0.00     0.038 A 
HETATM   26  N   UNL     1      40.468 -13.791   3.108  1.00  0.00    -0.277 N 
HETATM   27  C   UNL     1      39.685 -13.293   1.998  1.00  0.00     0.179 C 
HETATM   28  N   UNL     1      40.974 -15.025   3.019  1.00  0.00    -0.172 NA
HETATM   29  C   UNL     1      41.722 -15.185   4.117  1.00  0.00     0.089 A 
HETATM   30  C   UNL     1      41.644 -14.021   4.927  1.00  0.00     0.061 A 
BRANCH  29  31
HETATM   31  C   UNL     1      42.487 -16.409   4.361  1.00  0.00    -0.003 A 
HETATM   32  C   UNL     1      42.901 -17.209   3.285  1.00  0.00     0.053 A 
HETATM   33  C   UNL     1      43.651 -18.373   3.500  1.00  0.00     0.102 A 
HETATM   34  C   UNL     1      43.979 -18.758   4.815  1.00  0.00     0.101 A 
HETATM   35  C   UNL     1      43.559 -17.967   5.888  1.00  0.00     0.040 A 
HETATM   36  C   UNL     1      42.823 -16.800   5.662  1.00  0.00     0.017 A 
BRANCH  33  37
HETATM   37  O   UNL     1      44.103 -19.200   2.500  1.00  0.00    -0.353 OA
HETATM   38  C   UNL     1      43.184 -20.133   1.951  1.00  0.00     0.210 C 
ENDBRANCH  33  37
BRANCH  34  39
HETATM   39  O   UNL     1      44.711 -19.912   4.941  1.00  0.00    -0.353 OA
HETATM   40  C   UNL     1      44.035 -21.085   5.365  1.00  0.00     0.210 C 
ENDBRANCH  34  39
ENDBRANCH  29  31
ENDBRANCH  19  25
ENDBRANCH  15  16
ENDBRANCH  13  15
ENDBRANCH  11  13
ENDBRANCH   9  11
ENDBRANCH   1   9
TORSDOF 9
ENDMDL
MODEL 2
REMARK VINA RESULT:      -8.8      4.556      7.884
REMARK  9 active torsions:
REMARK  status: ('A' for Active; 'I' for Inactive)
REMARK    1  A    between atoms: C_4  and  C_5 
REMARK    2  A    between atoms: C_7  and  O_8 
REMARK    3  A    between atoms: C_10  and  O_11 
REMARK    4  A    between atoms: C_16  and  C_17 
REMARK    5  A    between atoms: C_20  and  C_21 
REMARK    6  A    between atoms: C_21  and  N_22 
REMARK    7  A    between atoms: N_22  and  C_23 
REMARK    8  A    between atoms: C_23  and  N_24 
REMARK    9  A    between atoms: N_24  and  C_25 
ROOT
HETATM    1  C   UNL     1      43.336  -9.490   9.885  1.00  0.00     0.035 A 
HETATM    2  C   UNL     1      43.298  -9.182  11.246  1.00  0.00     0.052 A 
HETATM    3  C   UNL     1      43.046  -7.874  11.682  1.00  0.00     0.046 A 
HETATM    4  C   UNL     1      43.053  -7.605  13.089  1.00  0.00     0.099 C 
HETATM    5  N   UNL     1      43.111  -7.471  14.239  1.00  0.00    -0.191 NA
HETATM    6  C   UNL     1      42.798  -6.867  10.750  1.00  0.00     0.023 A 
HETATM    7  C   UNL     1      42.795  -7.174   9.389  1.00  0.00     0.004 A 
HETATM    8  C   UNL     1      43.056  -8.481   8.960  1.00  0.00     0.029 A 
ENDROOT
BRANCH   1   9
HETATM    9  N   UNL     1      43.572 -10.793   9.396  1.00  0.00    -0.333 N 
HETATM   10  H   UNL     1      43.402 -11.547  10.058  1.00  0.00     0.168 HD
BRANCH   9  11
HETATM   11  C   UNL     1      44.167 -11.206   8.235  1.00  0.00     0.172 C 
HETATM   12  S   UNL     1      45.682 -10.622   7.858  1.00  0.00    -0.041 SA
BRANCH  11  13
HETATM   13  N   UNL     1      43.470 -12.128   7.493  1.00  0.00    -0.365 N 
HETATM   14  H   UNL     1      42.872 -12.706   8.078  1.00  0.00     0.161 HD
BRANCH  13  15
HETATM   15  C   UNL     1      43.895 -12.660   6.200  1.00  0.00     0.155 C 
BRANCH  15  16
HETATM   16  C   UNL     1      42.722 -13.129   5.313  1.00  0.00     0.206 C 
HETATM   17  C   UNL     1      41.362 -13.210   6.023  1.00  0.00     0.040 C 
HETATM   18  C   UNL     1      40.227 -12.700   5.103  1.00  0.00     0.001 C 
HETATM   19  C   UNL     1      40.383 -11.181   4.831  1.00  0.00     0.067 C 
HETATM   20  C   UNL     1      40.385 -13.416   3.741  1.00  0.00     0.033 C 
HETATM   21  C   UNL     1      41.855 -10.905   4.446  1.00  0.00     0.246 C 
HETATM   22  N   UNL     1      42.531 -12.234   4.087  1.00  0.00    -0.065 N 
HETATM   23  C   UNL     1      41.689 -12.979   3.058  1.00  0.00     0.236 C 
HETATM   24  H   UNL     1      43.450 -12.030   3.668  1.00  0.00     0.280 HD
BRANCH  19  25
HETATM   25  C   UNL     1      39.898 -10.285   5.935  1.00  0.00     0.038 A 
HETATM   26  N   UNL     1      38.924  -9.326   5.756  1.00  0.00    -0.277 N 
HETATM   27  C   UNL     1      38.166  -9.034   4.558  1.00  0.00     0.179 C 
HETATM   28  N   UNL     1      38.663  -8.611   6.855  1.00  0.00    -0.172 NA
HETATM   29  C   UNL     1      39.421  -9.149   7.819  1.00  0.00     0.089 A 
HETATM   30  C   UNL     1      40.200 -10.209   7.283  1.00  0.00     0.061 A 
BRANCH  29  31
HETATM   31  C   UNL     1      39.379  -8.662   9.199  1.00  0.00    -0.003 A 
HETATM   32  C   UNL     1      39.691  -9.524  10.261  1.00  0.00     0.053 A 
HETATM   33  C   UNL     1      39.675  -9.070  11.586  1.00  0.00     0.102 A 
HETATM   34  C   UNL     1      39.322  -7.733  11.860  1.00  0.00     0.101 A 
HETATM   35  C   UNL     1      39.001  -6.876  10.804  1.00  0.00     0.040 A 
HETATM   36  C   UNL     1      39.034  -7.336   9.483  1.00  0.00     0.017 A 
BRANCH  33  37
HETATM   37  O   UNL     1      39.980  -9.847  12.677  1.00  0.00    -0.353 OA
HETATM   38  C   UNL     1      39.251 -11.054  12.850  1.00  0.00     0.210 C 
ENDBRANCH  33  37
BRANCH  34  39
HETATM   39  O   UNL     1      39.325  -7.367  13.183  1.00  0.00    -0.353 OA
HETATM   40  C   UNL     1      39.734  -6.047  13.506  1.00  0.00     0.210 C 
ENDBRANCH  34  39
ENDBRANCH  29  31
ENDBRANCH  19  25
ENDBRANCH  15  16
ENDBRANCH  13  15
ENDBRANCH  11  13
ENDBRANCH   9  11
ENDBRANCH   1   9
TORSDOF 9
ENDMDL
MODEL 3
REMARK VINA RESULT:      -8.7      2.102      3.245
REMARK  9 active torsions:
REMARK  status: ('A' for Active; 'I' for Inactive)
REMARK    1  A    between atoms: C_4  and  C_5 
REMARK    2  A    between atoms: C_7  and  O_8 
REMARK    3  A    between atoms: C_10  and  O_11 
REMARK    4  A    between atoms: C_16  and  C_17 
REMARK    5  A    between atoms: C_20  and  C_21 
REMARK    6  A    between atoms: C_21  and  N_22 
REMARK    7  A    between atoms: N_22  and  C_23 
REMARK    8  A    between atoms: C_23  and  N_24 
REMARK    9  A    between atoms: N_24  and  C_25 
ROOT
HETATM    1  C   UNL     1      43.728 -10.118   8.260  1.00  0.00     0.035 A 
HETATM    2  C   UNL     1      42.714  -9.746   9.144  1.00  0.00     0.052 A 
HETATM    3  C   UNL     1      43.004  -9.406  10.472  1.00  0.00     0.046 A 
HETATM    4  C   UNL     1      41.922  -9.066  11.347  1.00  0.00     0.099 C 
HETATM    5  N   UNL     1      40.986  -8.837  11.992  1.00  0.00    -0.191 NA
HETATM    6  C   UNL     1      44.325  -9.408  10.916  1.00  0.00     0.023 A 
HETATM    7  C   UNL     1      45.350  -9.741  10.029  1.00  0.00     0.004 A 
HETATM    8  C   UNL     1      45.052 -10.087   8.706  1.00  0.00     0.029 A 
ENDROOT
BRANCH   1   9
HETATM    9  N   UNL     1      43.489 -10.455   6.910  1.00  0.00    -0.333 N 
HETATM   10  H   UNL     1      43.449  -9.671   6.263  1.00  0.00     0.168 HD
BRANCH   9  11
HETATM   11  C   UNL     1      43.119 -11.647   6.349  1.00  0.00     0.172 C 
HETATM   12  S   UNL     1      43.952 -13.027   6.775  1.00  0.00    -0.041 SA
BRANCH  11  13
HETATM   13  N   UNL     1      42.034 -11.608   5.508  1.00  0.00    -0.365 N 
HETATM   14  H   UNL     1      42.085 -12.331   4.796  1.00  0.00     0.161 HD
BRANCH  13  15
HETATM   15  C   UNL     1      41.228 -10.421   5.232  1.00  0.00     0.155 C 
BRANCH  15  16
HETATM   16  C   UNL     1      41.270  -9.981   3.753  1.00  0.00     0.206 C 
HETATM   17  C   UNL     1      42.304 -10.715   2.885  1.00  0.00     0.040 C 
HETATM   18  C   UNL     1      41.725 -11.030   1.485  1.00  0.00     0.001 C 
HETATM   19  C   UNL     1      40.570 -12.061   1.589  1.00  0.00     0.067 C 
HETATM   20  C   UNL     1      41.108  -9.722   0.938  1.00  0.00     0.033 C 
HETATM   21  C   UNL     1      39.617 -11.610   2.720  1.00  0.00     0.246 C 
HETATM   22  N   UNL     1      39.913 -10.144   3.063  1.00  0.00    -0.065 N 
HETATM   23  C   UNL     1      39.901  -9.305   1.791  1.00  0.00     0.236 C 
HETATM   24  H   UNL     1      39.171  -9.799   3.687  1.00  0.00     0.280 HD
BRANCH  19  25
HETATM   25  C   UNL     1      41.006 -13.490   1.737  1.00  0.00     0.038 A 
HETATM   26  N   UNL     1      40.637 -14.487   0.858  1.00  0.00    -0.277 N 
HETATM   27  C   UNL     1      39.851 -14.367  -0.349  1.00  0.00     0.179 C 
HETATM   28  N   UNL     1      41.101 -15.696   1.191  1.00  0.00    -0.172 NA
HETATM   29  C   UNL     1      41.864 -15.501   2.273  1.00  0.00     0.089 A 
HETATM   30  C   UNL     1      41.839 -14.129   2.639  1.00  0.00     0.061 A 
BRANCH  29  31
HETATM   31  C   UNL     1      42.593 -16.597   2.914  1.00  0.00    -0.003 A 
HETATM   32  C   UNL     1      43.152 -16.423   4.189  1.00  0.00     0.053 A 
HETATM   33  C   UNL     1      43.836 -17.468   4.825  1.00  0.00     0.102 A 
HETATM   34  C   UNL     1      43.983 -18.705   4.168  1.00  0.00     0.101 A 
HETATM   35  C   UNL     1      43.436 -18.877   2.893  1.00  0.00     0.040 A 
HETATM   36  C   UNL     1      42.743 -17.833   2.273  1.00  0.00     0.017 A 
BRANCH  33  37
HETATM   37  O   UNL     1      44.398 -17.379   6.075  1.00  0.00    -0.353 OA
HETATM   38  C   UNL     1      43.550 -17.016   7.155  1.00  0.00     0.210 C 
ENDBRANCH  33  37
BRANCH  34  39
HETATM   39  O   UNL     1      44.670 -19.675   4.855  1.00  0.00    -0.353 OA
HETATM   40  C   UNL     1      44.055 -20.946   5.003  1.00  0.00     0.210 C 
ENDBRANCH  34  39
ENDBRANCH  29  31
ENDBRANCH  19  25
ENDBRANCH  15  16
ENDBRANCH  13  15
ENDBRANCH  11  13
ENDBRANCH   9  11
ENDBRANCH   1   9
TORSDOF 9
ENDMDL
MODEL 4
REMARK VINA RESULT:      -8.5      4.208      8.314
REMARK  9 active torsions:
REMARK  status: ('A' for Active; 'I' for Inactive)
REMARK    1  A    between atoms: C_4  and  C_5 
REMARK    2  A    between atoms: C_7  and  O_8 
REMARK    3  A    between atoms: C_10  and  O_11 
REMARK    4  A    between atoms: C_16  and  C_17 
REMARK    5  A    between atoms: C_20  and  C_21 
REMARK    6  A    between atoms: C_21  and  N_22 
REMARK    7  A    between atoms: N_22  and  C_23 
REMARK    8  A    between atoms: C_23  and  N_24 
REMARK    9  A    between atoms: N_24  and  C_25 
ROOT
HETATM    1  C   UNL     1      39.857 -12.909  -0.709  1.00  0.00     0.035 A 
HETATM    2  C   UNL     1      40.518 -11.682  -0.630  1.00  0.00     0.052 A 
HETATM    3  C   UNL     1      41.336 -11.235  -1.676  1.00  0.00     0.046 A 
HETATM    4  C   UNL     1      42.020  -9.985  -1.528  1.00  0.00     0.099 C 
HETATM    5  N   UNL     1      42.560  -8.982  -1.311  1.00  0.00    -0.191 NA
HETATM    6  C   UNL     1      41.473 -12.007  -2.828  1.00  0.00     0.023 A 
HETATM    7  C   UNL     1      40.784 -13.217  -2.933  1.00  0.00     0.004 A 
HETATM    8  C   UNL     1      39.975 -13.661  -1.881  1.00  0.00     0.029 A 
ENDROOT
BRANCH   1   9
HETATM    9  N   UNL     1      39.011 -13.396   0.311  1.00  0.00    -0.333 N 
HETATM   10  H   UNL     1      38.022 -13.182   0.200  1.00  0.00     0.168 HD
BRANCH   9  11
HETATM   11  C   UNL     1      39.318 -13.953   1.523  1.00  0.00     0.172 C 
HETATM   12  S   UNL     1      40.100 -15.425   1.554  1.00  0.00    -0.041 SA
BRANCH  11  13
HETATM   13  N   UNL     1      38.997 -13.207   2.630  1.00  0.00    -0.365 N 
HETATM   14  H   UNL     1      38.608 -13.783   3.371  1.00  0.00     0.161 HD
BRANCH  13  15
HETATM   15  C   UNL     1      38.667 -11.783   2.615  1.00  0.00     0.155 C 
BRANCH  15  16
HETATM   16  C   UNL     1      38.982 -11.066   3.945  1.00  0.00     0.206 C 
HETATM   17  C   UNL     1      39.246 -11.997   5.139  1.00  0.00     0.040 C 
HETATM   18  C   UNL     1      40.408 -11.463   6.010  1.00  0.00     0.001 C 
HETATM   19  C   UNL     1      41.748 -11.519   5.229  1.00  0.00     0.067 C 
HETATM   20  C   UNL     1      40.120  -9.970   6.295  1.00  0.00     0.033 C 
HETATM   21  C   UNL     1      41.515 -10.920   3.823  1.00  0.00     0.246 C 
HETATM   22  N   UNL     1      40.195 -10.139   3.828  1.00  0.00    -0.065 N 
HETATM   23  C   UNL     1      40.181  -9.158   4.994  1.00  0.00     0.236 C 
HETATM   24  H   UNL     1      40.129  -9.603   2.951  1.00  0.00     0.280 HD
BRANCH  19  25
HETATM   25  C   UNL     1      42.398 -12.872   5.180  1.00  0.00     0.038 A 
HETATM   26  N   UNL     1      43.384 -13.268   6.059  1.00  0.00    -0.277 N 
HETATM   27  C   UNL     1      43.927 -12.535   7.182  1.00  0.00     0.179 C 
HETATM   28  N   UNL     1      43.856 -14.496   5.821  1.00  0.00    -0.172 NA
HETATM   29  C   UNL     1      43.121 -14.971   4.808  1.00  0.00     0.089 A 
HETATM   30  C   UNL     1      42.187 -13.986   4.387  1.00  0.00     0.061 A 
BRANCH  29  31
HETATM   31  C   UNL     1      43.309 -16.325   4.283  1.00  0.00    -0.003 A 
HETATM   32  C   UNL     1      43.573 -17.390   5.157  1.00  0.00     0.053 A 
HETATM   33  C   UNL     1      43.736 -18.695   4.674  1.00  0.00     0.102 A 
HETATM   34  C   UNL     1      43.652 -18.940   3.289  1.00  0.00     0.101 A 
HETATM   35  C   UNL     1      43.398 -17.879   2.416  1.00  0.00     0.040 A 
HETATM   36  C   UNL     1      43.223 -16.582   2.910  1.00  0.00     0.017 A 
BRANCH  33  37
HETATM   37  O   UNL     1      43.984 -19.790   5.464  1.00  0.00    -0.353 OA
HETATM   38  C   UNL     1      43.421 -19.803   6.769  1.00  0.00     0.210 C 
ENDBRANCH  33  37
BRANCH  34  39
HETATM   39  O   UNL     1      43.827 -20.243   2.895  1.00  0.00    -0.353 OA
HETATM   40  C   UNL     1      43.903 -20.513   1.504  1.00  0.00     0.210 C 
ENDBRANCH  34  39
ENDBRANCH  29  31
ENDBRANCH  19  25
ENDBRANCH  15  16
ENDBRANCH  13  15
ENDBRANCH  11  13
ENDBRANCH   9  11
ENDBRANCH   1   9
TORSDOF 9
ENDMDL
MODEL 5
REMARK VINA RESULT:      -8.3      5.935      9.222
REMARK  9 active torsions:
REMARK  status: ('A' for Active; 'I' for Inactive)
REMARK    1  A    between atoms: C_4  and  C_5 
REMARK    2  A    between atoms: C_7  and  O_8 
REMARK    3  A    between atoms: C_10  and  O_11 
REMARK    4  A    between atoms: C_16  and  C_17 
REMARK    5  A    between atoms: C_20  and  C_21 
REMARK    6  A    between atoms: C_21  and  N_22 
REMARK    7  A    between atoms: N_22  and  C_23 
REMARK    8  A    between atoms: C_23  and  N_24 
REMARK    9  A    between atoms: N_24  and  C_25 
ROOT
HETATM    1  C   UNL     1      42.663  -8.911  11.167  1.00  0.00     0.035 A 
HETATM    2  C   UNL     1      41.553  -9.680  11.521  1.00  0.00     0.052 A 
HETATM    3  C   UNL     1      41.143  -9.779  12.857  1.00  0.00     0.046 A 
HETATM    4  C   UNL     1      40.019 -10.610  13.171  1.00  0.00     0.099 C 
HETATM    5  N   UNL     1      39.124 -11.328  13.339  1.00  0.00    -0.191 NA
HETATM    6  C   UNL     1      41.830  -9.080  13.849  1.00  0.00     0.023 A 
HETATM    7  C   UNL     1      42.917  -8.278  13.498  1.00  0.00     0.004 A 
HETATM    8  C   UNL     1      43.326  -8.189  12.163  1.00  0.00     0.029 A 
ENDROOT
BRANCH   1   9
HETATM    9  N   UNL     1      43.107  -8.767   9.835  1.00  0.00    -0.333 N 
HETATM   10  H   UNL     1      42.973  -7.846   9.425  1.00  0.00     0.168 HD
BRANCH   9  11
HETATM   11  C   UNL     1      43.524  -9.711   8.935  1.00  0.00     0.172 C 
HETATM   12  S   UNL     1      45.126 -10.173   8.943  1.00  0.00    -0.041 SA
BRANCH  11  13
HETATM   13  N   UNL     1      42.553 -10.244   8.125  1.00  0.00    -0.365 N 
HETATM   14  H   UNL     1      41.774 -10.611   8.664  1.00  0.00     0.161 HD
BRANCH  13  15
HETATM   15  C   UNL     1      42.779 -10.780   6.784  1.00  0.00     0.155 C 
BRANCH  15  16
HETATM   16  C   UNL     1      41.508 -10.804   5.910  1.00  0.00     0.206 C 
HETATM   17  C   UNL     1      40.183 -10.775   6.688  1.00  0.00     0.040 C 
HETATM   18  C   UNL     1      39.149  -9.864   5.984  1.00  0.00     0.001 C 
HETATM   19  C   UNL     1      39.606  -8.382   6.027  1.00  0.00     0.067 C 
HETATM   20  C   UNL     1      39.113 -10.276   4.493  1.00  0.00     0.033 C 
HETATM   21  C   UNL     1      41.090  -8.318   5.599  1.00  0.00     0.246 C 
HETATM   22  N   UNL     1      41.467  -9.640   4.917  1.00  0.00    -0.065 N 
HETATM   23  C   UNL     1      40.457  -9.960   3.821  1.00  0.00     0.236 C 
HETATM   24  H   UNL     1      42.394  -9.531   4.483  1.00  0.00     0.280 HD
BRANCH  19  25
HETATM   25  C   UNL     1      39.351  -7.676   7.329  1.00  0.00     0.038 A 
HETATM   26  N   UNL     1      38.385  -6.704   7.484  1.00  0.00    -0.277 N 
HETATM   27  C   UNL     1      37.433  -6.226   6.505  1.00  0.00     0.179 C 
HETATM   28  N   UNL     1      38.345  -6.176   8.712  1.00  0.00    -0.172 NA
HETATM   29  C   UNL     1      39.249  -6.859   9.424  1.00  0.00     0.089 A 
HETATM   30  C   UNL     1      39.892  -7.817   8.595  1.00  0.00     0.061 A 
BRANCH  29  31
HETATM   31  C   UNL     1      39.469  -6.601  10.848  1.00  0.00    -0.003 A 
HETATM   32  C   UNL     1      40.547  -5.806  11.264  1.00  0.00     0.053 A 
HETATM   33  C   UNL     1      40.760  -5.532  12.621  1.00  0.00     0.102 A 
HETATM   34  C   UNL     1      39.891  -6.078  13.586  1.00  0.00     0.101 A 
HETATM   35  C   UNL     1      38.821  -6.878  13.175  1.00  0.00     0.040 A 
HETATM   36  C   UNL     1      38.609  -7.133  11.816  1.00  0.00     0.017 A 
BRANCH  33  37
HETATM   37  O   UNL     1      41.783  -4.754  13.105  1.00  0.00    -0.353 OA
HETATM   38  C   UNL     1      41.802  -3.383  12.733  1.00  0.00     0.210 C 
ENDBRANCH  33  37
BRANCH  34  39
HETATM   39  O   UNL     1      40.169  -5.767  14.894  1.00  0.00    -0.353 OA
HETATM   40  C   UNL     1      39.221  -6.140  15.882  1.00  0.00     0.210 C 
ENDBRANCH  34  39
ENDBRANCH  29  31
ENDBRANCH  19  25
ENDBRANCH  15  16
ENDBRANCH  13  15
ENDBRANCH  11  13
ENDBRANCH   9  11
ENDBRANCH   1   9
TORSDOF 9
ENDMDL
MODEL 6
REMARK VINA RESULT:      -8.2      5.058      8.191
REMARK  9 active torsions:
REMARK  status: ('A' for Active; 'I' for Inactive)
REMARK    1  A    between atoms: C_4  and  C_5 
REMARK    2  A    between atoms: C_7  and  O_8 
REMARK    3  A    between atoms: C_10  and  O_11 
REMARK    4  A    between atoms: C_16  and  C_17 
REMARK    5  A    between atoms: C_20  and  C_21 
REMARK    6  A    between atoms: C_21  and  N_22 
REMARK    7  A    between atoms: N_22  and  C_23 
REMARK    8  A    between atoms: C_23  and  N_24 
REMARK    9  A    between atoms: N_24  and  C_25 
ROOT
HETATM    1  C   UNL     1      43.633 -10.062   9.670  1.00  0.00     0.035 A 
HETATM    2  C   UNL     1      43.313  -8.731   9.399  1.00  0.00     0.052 A 
HETATM    3  C   UNL     1      43.030  -7.831  10.435  1.00  0.00     0.046 A 
HETATM    4  C   UNL     1      42.672  -6.486  10.099  1.00  0.00     0.099 C 
HETATM    5  N   UNL     1      42.360  -5.429   9.737  1.00  0.00    -0.191 NA
HETATM    6  C   UNL     1      43.097  -8.257  11.761  1.00  0.00     0.023 A 
HETATM    7  C   UNL     1      43.455  -9.576  12.044  1.00  0.00     0.004 A 
HETATM    8  C   UNL     1      43.729 -10.471  11.003  1.00  0.00     0.029 A 
ENDROOT
BRANCH   1   9
HETATM    9  N   UNL     1      43.940 -11.002   8.663  1.00  0.00    -0.333 N 
HETATM   10  H   UNL     1      43.434 -11.883   8.717  1.00  0.00     0.168 HD
BRANCH   9  11
HETATM   11  C   UNL     1      44.939 -11.001   7.728  1.00  0.00     0.172 C 
HETATM   12  S   UNL     1      46.195  -9.917   7.897  1.00  0.00    -0.041 SA
BRANCH  11  13
HETATM   13  N   UNL     1      44.845 -11.951   6.741  1.00  0.00    -0.365 N 
HETATM   14  H   UNL     1      45.120 -11.581   5.836  1.00  0.00     0.161 HD
BRANCH  13  15
HETATM   15  C   UNL     1      43.953 -13.108   6.773  1.00  0.00     0.155 C 
BRANCH  15  16
HETATM   16  C   UNL     1      43.035 -13.211   5.536  1.00  0.00     0.206 C 
HETATM   17  C   UNL     1      41.530 -13.247   5.844  1.00  0.00     0.040 C 
HETATM   18  C   UNL     1      40.736 -12.401   4.820  1.00  0.00     0.001 C 
HETATM   19  C   UNL     1      41.081 -10.896   4.969  1.00  0.00     0.067 C 
HETATM   20  C   UNL     1      41.204 -12.829   3.410  1.00  0.00     0.033 C 
HETATM   21  C   UNL     1      42.618 -10.755   5.041  1.00  0.00     0.246 C 
HETATM   22  N   UNL     1      43.260 -12.060   4.552  1.00  0.00    -0.065 N 
HETATM   23  C   UNL     1      42.676 -12.445   3.198  1.00  0.00     0.236 C 
HETATM   24  H   UNL     1      44.271 -11.903   4.437  1.00  0.00     0.280 HD
BRANCH  19  25
HETATM   25  C   UNL     1      40.383 -10.194   6.100  1.00  0.00     0.038 A 
HETATM   26  N   UNL     1      39.155  -9.581   5.965  1.00  0.00    -0.277 N 
HETATM   27  C   UNL     1      38.302  -9.537   4.798  1.00  0.00     0.179 C 
HETATM   28  N   UNL     1      38.727  -8.982   7.081  1.00  0.00    -0.172 NA
HETATM   29  C   UNL     1      39.648  -9.261   8.011  1.00  0.00     0.089 A 
HETATM   30  C   UNL     1      40.696 -10.029   7.438  1.00  0.00     0.061 A 
BRANCH  29  31
HETATM   31  C   UNL     1      39.508  -8.811   9.398  1.00  0.00    -0.003 A 
HETATM   32  C   UNL     1      39.118  -7.493   9.677  1.00  0.00     0.053 A 
HETATM   33  C   UNL     1      38.960  -7.052  10.997  1.00  0.00     0.102 A 
HETATM   34  C   UNL     1      39.215  -7.939  12.063  1.00  0.00     0.101 A 
HETATM   35  C   UNL     1      39.613  -9.250  11.787  1.00  0.00     0.040 A 
HETATM   36  C   UNL     1      39.754  -9.683  10.464  1.00  0.00     0.017 A 
BRANCH  33  37
HETATM   37  O   UNL     1      38.570  -5.784  11.351  1.00  0.00    -0.353 OA
HETATM   38  C   UNL     1      38.764  -4.746  10.400  1.00  0.00     0.210 C 
ENDBRANCH  33  37
BRANCH  34  39
HETATM   39  O   UNL     1      39.042  -7.430  13.325  1.00  0.00    -0.353 OA
HETATM   40  C   UNL     1      40.196  -7.245  14.131  1.00  0.00     0.210 C 
ENDBRANCH  34  39
ENDBRANCH  29  31
ENDBRANCH  19  25
ENDBRANCH  15  16
ENDBRANCH  13  15
ENDBRANCH  11  13
ENDBRANCH   9  11
ENDBRANCH   1   9
TORSDOF 9
ENDMDL
MODEL 7
REMARK VINA RESULT:      -8.2      1.740      2.046
REMARK  9 active torsions:
REMARK  status: ('A' for Active; 'I' for Inactive)
REMARK    1  A    between atoms: C_4  and  C_5 
REMARK    2  A    between atoms: C_7  and  O_8 
REMARK    3  A    between atoms: C_10  and  O_11 
REMARK    4  A    between atoms: C_16  and  C_17 
REMARK    5  A    between atoms: C_20  and  C_21 
REMARK    6  A    between atoms: C_21  and  N_22 
REMARK    7  A    between atoms: N_22  and  C_23 
REMARK    8  A    between atoms: C_23  and  N_24 
REMARK    9  A    between atoms: N_24  and  C_25 
ROOT
HETATM    1  C   UNL     1      40.913  -8.250  10.095  1.00  0.00     0.035 A 
HETATM    2  C   UNL     1      40.556  -9.353  10.872  1.00  0.00     0.052 A 
HETATM    3  C   UNL     1      39.884  -9.189  12.090  1.00  0.00     0.046 A 
HETATM    4  C   UNL     1      39.572 -10.352  12.866  1.00  0.00     0.099 C 
HETATM    5  N   UNL     1      39.390 -11.341  13.443  1.00  0.00    -0.191 NA
HETATM    6  C   UNL     1      39.537  -7.910  12.525  1.00  0.00     0.023 A 
HETATM    7  C   UNL     1      39.856  -6.804  11.735  1.00  0.00     0.004 A 
HETATM    8  C   UNL     1      40.534  -6.975  10.523  1.00  0.00     0.029 A 
ENDROOT
BRANCH   1   9
HETATM    9  N   UNL     1      41.578  -8.364   8.854  1.00  0.00    -0.333 N 
HETATM   10  H   UNL     1      41.901  -7.489   8.447  1.00  0.00     0.168 HD
BRANCH   9  11
HETATM   11  C   UNL     1      41.701  -9.437   8.013  1.00  0.00     0.172 C 
HETATM   12  S   UNL     1      43.228 -10.012   7.667  1.00  0.00    -0.041 SA
BRANCH  11  13
HETATM   13  N   UNL     1      40.528  -9.990   7.562  1.00  0.00    -0.365 N 
HETATM   14  H   UNL     1      39.850 -10.095   8.311  1.00  0.00     0.161 HD
BRANCH  13  15
HETATM   15  C   UNL     1      40.404 -10.855   6.391  1.00  0.00     0.155 C 
BRANCH  15  16
HETATM   16  C   UNL     1      40.627 -10.117   5.055  1.00  0.00     0.206 C 
HETATM   17  C   UNL     1      41.866 -10.565   4.263  1.00  0.00     0.040 C 
HETATM   18  C   UNL     1      41.559 -10.631   2.748  1.00  0.00     0.001 C 
HETATM   19  C   UNL     1      40.533 -11.755   2.446  1.00  0.00     0.067 C 
HETATM   20  C   UNL     1      40.885  -9.295   2.357  1.00  0.00     0.033 C 
HETATM   21  C   UNL     1      39.366 -11.631   3.452  1.00  0.00     0.246 C 
HETATM   22  N   UNL     1      39.427 -10.248   4.114  1.00  0.00    -0.065 N 
HETATM   23  C   UNL     1      39.518  -9.168   3.043  1.00  0.00     0.236 C 
HETATM   24  H   UNL     1      38.559 -10.104   4.649  1.00  0.00     0.280 HD
BRANCH  19  25
HETATM   25  C   UNL     1      41.107 -13.143   2.397  1.00  0.00     0.038 A 
HETATM   26  N   UNL     1      41.113 -13.917   1.256  1.00  0.00    -0.277 N 
HETATM   27  C   UNL     1      40.652 -13.561  -0.068  1.00  0.00     0.179 C 
HETATM   28  N   UNL     1      41.637 -15.134   1.434  1.00  0.00    -0.172 NA
HETATM   29  C   UNL     1      42.065 -15.156   2.702  1.00  0.00     0.089 A 
HETATM   30  C   UNL     1      41.762 -13.921   3.335  1.00  0.00     0.061 A 
BRANCH  29  31
HETATM   31  C   UNL     1      42.749 -16.321   3.268  1.00  0.00    -0.003 A 
HETATM   32  C   UNL     1      43.155 -17.374   2.435  1.00  0.00     0.053 A 
HETATM   33  C   UNL     1      43.828 -18.487   2.957  1.00  0.00     0.102 A 
HETATM   34  C   UNL     1      44.085 -18.560   4.340  1.00  0.00     0.101 A 
HETATM   35  C   UNL     1      43.673 -17.515   5.173  1.00  0.00     0.040 A 
HETATM   36  C   UNL     1      43.014 -16.403   4.639  1.00  0.00     0.017 A 
BRANCH  33  37
HETATM   37  O   UNL     1      44.268 -19.550   2.207  1.00  0.00    -0.353 OA
HETATM   38  C   UNL     1      43.303 -20.503   1.785  1.00  0.00     0.210 C 
ENDBRANCH  33  37
BRANCH  34  39
HETATM   39  O   UNL     1      44.745 -19.683   4.773  1.00  0.00    -0.353 OA
HETATM   40  C   UNL     1      43.978 -20.710   5.382  1.00  0.00     0.210 C 
ENDBRANCH  34  39
ENDBRANCH  29  31
ENDBRANCH  19  25
ENDBRANCH  15  16
ENDBRANCH  13  15
ENDBRANCH  11  13
ENDBRANCH   9  11
ENDBRANCH   1   9
TORSDOF 9
ENDMDL
MODEL 8
REMARK VINA RESULT:      -8.2      6.740     11.470
REMARK  9 active torsions:
REMARK  status: ('A' for Active; 'I' for Inactive)
REMARK    1  A    between atoms: C_4  and  C_5 
REMARK    2  A    between atoms: C_7  and  O_8 
REMARK    3  A    between atoms: C_10  and  O_11 
REMARK    4  A    between atoms: C_16  and  C_17 
REMARK    5  A    between atoms: C_20  and  C_21 
REMARK    6  A    between atoms: C_21  and  N_22 
REMARK    7  A    between atoms: N_22  and  C_23 
REMARK    8  A    between atoms: C_23  and  N_24 
REMARK    9  A    between atoms: N_24  and  C_25 
ROOT
HETATM    1  C   UNL     1      42.887  -7.047  13.623  1.00  0.00     0.035 A 
HETATM    2  C   UNL     1      43.266  -8.252  13.029  1.00  0.00     0.052 A 
HETATM    3  C   UNL     1      43.145  -8.444  11.647  1.00  0.00     0.046 A 
HETATM    4  C   UNL     1      43.514  -9.712  11.093  1.00  0.00     0.099 C 
HETATM    5  N   UNL     1      43.804 -10.777  10.736  1.00  0.00    -0.191 NA
HETATM    6  C   UNL     1      42.668  -7.410  10.841  1.00  0.00     0.023 A 
HETATM    7  C   UNL     1      42.324  -6.188  11.421  1.00  0.00     0.004 A 
HETATM    8  C   UNL     1      42.440  -6.006  12.804  1.00  0.00     0.029 A 
ENDROOT
BRANCH   1   9
HETATM    9  N   UNL     1      43.003  -6.799  15.007  1.00  0.00    -0.333 N 
HETATM   10  H   UNL     1      43.927  -6.954  15.405  1.00  0.00     0.168 HD
BRANCH   9  11
HETATM   11  C   UNL     1      42.036  -6.561  15.947  1.00  0.00     0.172 C 
HETATM   12  S   UNL     1      40.889  -7.737  16.232  1.00  0.00    -0.041 SA
BRANCH  11  13
HETATM   13  N   UNL     1      42.131  -5.371  16.624  1.00  0.00    -0.365 N 
HETATM   14  H   UNL     1      43.090  -5.038  16.666  1.00  0.00     0.161 HD
BRANCH  13  15
HETATM   15  C   UNL     1      41.194  -4.909  17.646  1.00  0.00     0.155 C 
BRANCH  15  16
HETATM   16  C   UNL     1      40.656  -3.486  17.388  1.00  0.00     0.206 C 
HETATM   17  C   UNL     1      40.760  -3.006  15.931  1.00  0.00     0.040 C 
HETATM   18  C   UNL     1      39.493  -2.220  15.517  1.00  0.00     0.001 C 
HETATM   19  C   UNL     1      38.255  -3.156  15.482  1.00  0.00     0.067 C 
HETATM   20  C   UNL     1      39.225  -1.167  16.617  1.00  0.00     0.033 C 
HETATM   21  C   UNL     1      38.240  -3.988  16.784  1.00  0.00     0.246 C 
HETATM   22  N   UNL     1      39.189  -3.340  17.800  1.00  0.00    -0.065 N 
HETATM   23  C   UNL     1      38.860  -1.858  17.938  1.00  0.00     0.236 C 
HETATM   24  H   UNL     1      39.046  -3.791  18.714  1.00  0.00     0.280 HD
BRANCH  19  25
HETATM   25  C   UNL     1      38.138  -4.007  14.250  1.00  0.00     0.038 A 
HETATM   26  N   UNL     1      37.177  -3.805  13.282  1.00  0.00    -0.277 N 
HETATM   27  C   UNL     1      36.179  -2.761  13.218  1.00  0.00     0.179 C 
HETATM   28  N   UNL     1      37.222  -4.696  12.286  1.00  0.00    -0.172 NA
HETATM   29  C   UNL     1      38.282  -5.470  12.546  1.00  0.00     0.089 A 
HETATM   30  C   UNL     1      38.890  -5.062  13.763  1.00  0.00     0.061 A 
BRANCH  29  31
HETATM   31  C   UNL     1      38.693  -6.548  11.644  1.00  0.00    -0.003 A 
HETATM   32  C   UNL     1      39.053  -7.802  12.161  1.00  0.00     0.053 A 
HETATM   33  C   UNL     1      39.429  -8.850  11.312  1.00  0.00     0.102 A 
HETATM   34  C   UNL     1      39.467  -8.640   9.919  1.00  0.00     0.101 A 
HETATM   35  C   UNL     1      39.117  -7.389   9.403  1.00  0.00     0.040 A 
HETATM   36  C   UNL     1      38.729  -6.353  10.259  1.00  0.00     0.017 A 
BRANCH  33  37
HETATM   37  O   UNL     1      39.783 -10.107  11.740  1.00  0.00    -0.353 OA
HETATM   38  C   UNL     1      40.129 -10.264  13.109  1.00  0.00     0.210 C 
ENDBRANCH  33  37
BRANCH  34  39
HETATM   39  O   UNL     1      39.850  -9.714   9.157  1.00  0.00    -0.353 OA
HETATM   40  C   UNL     1      40.691  -9.471   8.040  1.00  0.00     0.210 C 
ENDBRANCH  34  39
ENDBRANCH  29  31
ENDBRANCH  19  25
ENDBRANCH  15  16
ENDBRANCH  13  15
ENDBRANCH  11  13
ENDBRANCH   9  11
ENDBRANCH   1   9
TORSDOF 9
ENDMDL
MODEL 9
REMARK VINA RESULT:      -8.0      4.086      9.737
REMARK  9 active torsions:
REMARK  status: ('A' for Active; 'I' for Inactive)
REMARK    1  A    between atoms: C_4  and  C_5 
REMARK    2  A    between atoms: C_7  and  O_8 
REMARK    3  A    between atoms: C_10  and  O_11 
REMARK    4  A    between atoms: C_16  and  C_17 
REMARK    5  A    between atoms: C_20  and  C_21 
REMARK    6  A    between atoms: C_21  and  N_22 
REMARK    7  A    between atoms: N_22  and  C_23 
REMARK    8  A    between atoms: C_23  and  N_24 
REMARK    9  A    between atoms: N_24  and  C_25 
ROOT
HETATM    1  C   UNL     1      43.385 -16.475   3.623  1.00  0.00     0.035 A 
HETATM    2  C   UNL     1      43.350 -17.603   2.802  1.00  0.00     0.052 A 
HETATM    3  C   UNL     1      43.732 -18.860   3.288  1.00  0.00     0.046 A 
HETATM    4  C   UNL     1      43.713 -19.979   2.393  1.00  0.00     0.099 C 
HETATM    5  N   UNL     1      43.699 -20.819   1.594  1.00  0.00    -0.191 NA
HETATM    6  C   UNL     1      44.126 -19.000   4.618  1.00  0.00     0.023 A 
HETATM    7  C   UNL     1      44.125 -17.884   5.457  1.00  0.00     0.004 A 
HETATM    8  C   UNL     1      43.750 -16.630   4.963  1.00  0.00     0.029 A 
ENDROOT
BRANCH   1   9
HETATM    9  N   UNL     1      42.996 -15.191   3.185  1.00  0.00    -0.333 N 
HETATM   10  H   UNL     1      43.734 -14.627   2.769  1.00  0.00     0.168 HD
BRANCH   9  11
HETATM   11  C   UNL     1      41.831 -14.502   3.390  1.00  0.00     0.172 C 
HETATM   12  S   UNL     1      40.401 -15.165   2.847  1.00  0.00    -0.041 SA
BRANCH  11  13
HETATM   13  N   UNL     1      41.940 -13.325   4.090  1.00  0.00    -0.365 N 
HETATM   14  H   UNL     1      41.367 -13.332   4.929  1.00  0.00     0.161 HD
BRANCH  13  15
HETATM   15  C   UNL     1      42.298 -12.033   3.508  1.00  0.00     0.155 C 
BRANCH  15  16
HETATM   16  C   UNL     1      41.116 -11.321   2.817  1.00  0.00     0.206 C 
HETATM   17  C   UNL     1      39.808 -11.299   3.626  1.00  0.00     0.040 C 
HETATM   18  C   UNL     1      39.099  -9.931   3.490  1.00  0.00     0.001 C 
HETATM   19  C   UNL     1      39.937  -8.810   4.161  1.00  0.00     0.067 C 
HETATM   20  C   UNL     1      39.032  -9.596   1.982  1.00  0.00     0.033 C 
HETATM   21  C   UNL     1      41.403  -8.954   3.692  1.00  0.00     0.246 C 
HETATM   22  N   UNL     1      41.443  -9.869   2.462  1.00  0.00    -0.065 N 
HETATM   23  C   UNL     1      40.444  -9.377   1.422  1.00  0.00     0.236 C 
HETATM   24  H   UNL     1      42.387  -9.824   2.053  1.00  0.00     0.280 HD
BRANCH  19  25
HETATM   25  C   UNL     1      39.813  -8.733   5.656  1.00  0.00     0.038 A 
HETATM   26  N   UNL     1      38.817  -8.025   6.295  1.00  0.00    -0.277 N 
HETATM   27  C   UNL     1      37.715  -7.299   5.703  1.00  0.00     0.179 C 
HETATM   28  N   UNL     1      38.908  -8.053   7.629  1.00  0.00    -0.172 NA
HETATM   29  C   UNL     1      39.940  -8.861   7.899  1.00  0.00     0.089 A 
HETATM   30  C   UNL     1      40.526  -9.317   6.688  1.00  0.00     0.061 A 
BRANCH  29  31
HETATM   31  C   UNL     1      40.330  -9.185   9.273  1.00  0.00    -0.003 A 
HETATM   32  C   UNL     1      41.686  -9.229   9.630  1.00  0.00     0.053 A 
HETATM   33  C   UNL     1      42.077  -9.517  10.944  1.00  0.00     0.102 A 
HETATM   34  C   UNL     1      41.095  -9.788  11.919  1.00  0.00     0.101 A 
HETATM   35  C   UNL     1      39.744  -9.755  11.562  1.00  0.00     0.040 A 
HETATM   36  C   UNL     1      39.365  -9.451  10.250  1.00  0.00     0.017 A 
BRANCH  33  37
HETATM   37  O   UNL     1      43.380  -9.566  11.373  1.00  0.00    -0.353 OA
HETATM   38  C   UNL     1      44.399  -9.611  10.384  1.00  0.00     0.210 C 
ENDBRANCH  33  37
BRANCH  34  39
HETATM   39  O   UNL     1      41.559 -10.066  13.180  1.00  0.00    -0.353 OA
HETATM   40  C   UNL     1      41.591  -9.008  14.125  1.00  0.00     0.210 C 
ENDBRANCH  34  39
ENDBRANCH  29  31
ENDBRANCH  19  25
ENDBRANCH  15  16
ENDBRANCH  13  15
ENDBRANCH  11  13
ENDBRANCH   9  11
ENDBRANCH   1   9
TORSDOF 9
ENDMDL
MODEL 10
REMARK VINA RESULT:      -8.0     18.188     20.208
REMARK  9 active torsions:
REMARK  status: ('A' for Active; 'I' for Inactive)
REMARK    1  A    between atoms: C_4  and  C_5 
REMARK    2  A    between atoms: C_7  and  O_8 
REMARK    3  A    between atoms: C_10  and  O_11 
REMARK    4  A    between atoms: C_16  and  C_17 
REMARK    5  A    between atoms: C_20  and  C_21 
REMARK    6  A    between atoms: C_21  and  N_22 
REMARK    7  A    between atoms: N_22  and  C_23 
REMARK    8  A    between atoms: C_23  and  N_24 
REMARK    9  A    between atoms: N_24  and  C_25 
ROOT
HETATM    1  C   UNL     1      47.840 -31.519   4.585  1.00  0.00     0.035 A 
HETATM    2  C   UNL     1      47.415 -30.491   3.741  1.00  0.00     0.052 A 
HETATM    3  C   UNL     1      48.308 -29.506   3.299  1.00  0.00     0.046 A 
HETATM    4  C   UNL     1      47.811 -28.454   2.463  1.00  0.00     0.099 C 
HETATM    5  N   UNL     1      47.319 -27.624   1.820  1.00  0.00    -0.191 NA
HETATM    6  C   UNL     1      49.648 -29.563   3.678  1.00  0.00     0.023 A 
HETATM    7  C   UNL     1      50.090 -30.609   4.490  1.00  0.00     0.004 A 
HETATM    8  C   UNL     1      49.192 -31.585   4.934  1.00  0.00     0.029 A 
ENDROOT
BRANCH   1   9
HETATM    9  N   UNL     1      46.984 -32.542   5.046  1.00  0.00    -0.333 N 
HETATM   10  H   UNL     1      47.129 -33.458   4.626  1.00  0.00     0.168 HD
BRANCH   9  11
HETATM   11  C   UNL     1      45.865 -32.471   5.831  1.00  0.00     0.172 C 
HETATM   12  S   UNL     1      45.967 -32.972   7.418  1.00  0.00    -0.041 SA
BRANCH  11  13
HETATM   13  N   UNL     1      44.747 -31.931   5.244  1.00  0.00    -0.365 N 
HETATM   14  H   UNL     1      44.085 -31.594   5.937  1.00  0.00     0.161 HD
BRANCH  13  15
HETATM   15  C   UNL     1      44.243 -32.283   3.919  1.00  0.00     0.155 C 
BRANCH  15  16
HETATM   16  C   UNL     1      43.366 -31.184   3.283  1.00  0.00     0.206 C 
HETATM   17  C   UNL     1      44.115 -29.901   2.890  1.00  0.00     0.040 C 
HETATM   18  C   UNL     1      43.604 -29.357   1.534  1.00  0.00     0.001 C 
HETATM   19  C   UNL     1      43.964 -30.333   0.382  1.00  0.00     0.067 C 
HETATM   20  C   UNL     1      42.060 -29.309   1.611  1.00  0.00     0.033 C 
HETATM   21  C   UNL     1      43.578 -31.764   0.819  1.00  0.00     0.246 C 
HETATM   22  N   UNL     1      42.639 -31.677   2.029  1.00  0.00    -0.065 N 
HETATM   23  C   UNL     1      41.487 -30.729   1.720  1.00  0.00     0.236 C 
HETATM   24  H   UNL     1      42.250 -32.614   2.208  1.00  0.00     0.280 HD
BRANCH  19  25
HETATM   25  C   UNL     1      45.381 -30.240  -0.108  1.00  0.00     0.038 A 
HETATM   26  N   UNL     1      45.823 -29.249  -0.958  1.00  0.00    -0.277 N 
HETATM   27  C   UNL     1      45.081 -28.123  -1.480  1.00  0.00     0.179 C 
HETATM   28  N   UNL     1      47.110 -29.369  -1.303  1.00  0.00    -0.172 NA
HETATM   29  C   UNL     1      47.568 -30.420  -0.611  1.00  0.00     0.089 A 
HETATM   30  C   UNL     1      46.517 -30.985   0.159  1.00  0.00     0.061 A 
BRANCH  29  31
HETATM   31  C   UNL     1      48.967 -30.845  -0.687  1.00  0.00    -0.003 A 
HETATM   32  C   UNL     1      49.511 -31.661   0.316  1.00  0.00     0.053 A 
HETATM   33  C   UNL     1      50.842 -32.094   0.250  1.00  0.00     0.102 A 
HETATM   34  C   UNL     1      51.653 -31.689  -0.829  1.00  0.00     0.101 A 
HETATM   35  C   UNL     1      51.115 -30.868  -1.824  1.00  0.00     0.040 A 
HETATM   36  C   UNL     1      49.781 -30.453  -1.755  1.00  0.00     0.017 A 
BRANCH  33  37
HETATM   37  O   UNL     1      51.443 -32.902   1.183  1.00  0.00    -0.353 OA
HETATM   38  C   UNL     1      50.604 -33.563   2.121  1.00  0.00     0.210 C 
ENDBRANCH  33  37
BRANCH  34  39
HETATM   39  O   UNL     1      52.945 -32.151  -0.819  1.00  0.00    -0.353 OA
HETATM   40  C   UNL     1      53.522 -32.538  -2.057  1.00  0.00     0.210 C 
ENDBRANCH  34  39
ENDBRANCH  29  31
ENDBRANCH  19  25
ENDBRANCH  15  16
ENDBRANCH  13  15
ENDBRANCH  11  13
ENDBRANCH   9  11
ENDBRANCH   1   9
TORSDOF 9
ENDMDL
