MODEL 1
REMARK VINA RESULT:      -9.9      0.000      0.000
REMARK  7 active torsions:
REMARK  status: ('A' for Active; 'I' for Inactive)
REMARK    1  A    between atoms: C_3  and  C_4 
REMARK    2  A    between atoms: C_4  and  N_5 
REMARK    3  A    between atoms: C_9  and  C_10 
REMARK    4  A    between atoms: C_9  and  C_28 
REMARK    5  A    between atoms: N_13  and  C_15 
REMARK    6  A    between atoms: C_15  and  C_16 
REMARK    7  A    between atoms: C_28  and  C_29 
ROOT
HETATM    1  C   UNL     1      38.787 -10.198   4.472  1.00  0.00     0.112 C 
HETATM    2  C   UNL     1      39.580 -11.273   5.072  1.00  0.00    -0.109 C 
HETATM    3  C   UNL     1      40.330 -12.199   5.602  1.00  0.00    -0.087 C 
ENDROOT
BRANCH   3   4
HETATM    4  C   UNL     1      41.205 -13.278   6.219  1.00  0.00     0.230 C 
BRANCH   4   5
HETATM    5  N   UNL     1      41.301 -14.463   5.409  1.00  0.00    -0.257 N 
HETATM    6  C   UNL     1      40.731 -15.652   5.735  1.00  0.00     0.327 C 
HETATM    7  O   UNL     1      39.984 -15.894   6.662  1.00  0.00    -0.247 OA
HETATM    8  N   UNL     1      41.158 -16.595   4.830  1.00  0.00    -0.324 N 
HETATM    9  C   UNL     1      42.161 -16.093   3.906  1.00  0.00     0.123 C 
HETATM   10  H   UNL     1      40.919 -17.573   4.966  1.00  0.00     0.165 HD
HETATM   11  C   UNL     1      42.216 -14.639   4.418  1.00  0.00     0.257 C 
HETATM   12  O   UNL     1      42.972 -13.779   3.987  1.00  0.00    -0.270 OA
BRANCH   9  13
HETATM   13  C   UNL     1      41.654 -16.254   2.432  1.00  0.00     0.027 C 
HETATM   14  C   UNL     1      42.403 -15.462   1.348  1.00  0.00     0.035 C 
HETATM   15  C   UNL     1      42.016 -13.996   1.196  1.00  0.00     0.235 C 
HETATM   16  N   UNL     1      40.523 -13.780   1.198  1.00  0.00    -0.067 N 
HETATM   17  H   UNL     1      40.191 -14.045   0.262  1.00  0.00     0.280 HD
HETATM   18  C   UNL     1      39.729 -14.573   2.198  1.00  0.00     0.235 C 
HETATM   19  C   UNL     1      40.145 -16.030   2.212  1.00  0.00     0.035 C 
BRANCH  16  20
HETATM   20  C   UNL     1      40.180 -12.302   1.369  1.00  0.00     0.273 C 
BRANCH  20  21
HETATM   21  C   UNL     1      40.543 -11.445   0.192  1.00  0.00    -0.030 A 
HETATM   22  C   UNL     1      41.403 -10.349   0.347  1.00  0.00     0.048 A 
HETATM   23  C   UNL     1      41.723  -9.549  -0.749  1.00  0.00     0.102 A 
HETATM   24  C   UNL     1      41.167  -9.816  -2.002  1.00  0.00     0.102 A 
HETATM   25  O   UNL     1      42.588  -8.513  -0.517  1.00  0.00    -0.346 OA
HETATM   26  O   UNL     1      41.412  -9.054  -3.112  1.00  0.00    -0.346 OA
HETATM   27  C   UNL     1      40.323 -10.910  -2.170  1.00  0.00     0.040 A 
HETATM   28  C   UNL     1      42.022  -7.802  -2.771  1.00  0.00     0.202 C 
HETATM   29  C   UNL     1      43.127  -8.002  -1.744  1.00  0.00     0.202 C 
HETATM   30  C   UNL     1      40.011 -11.723  -1.079  1.00  0.00     0.012 A 
ENDBRANCH  20  21
ENDBRANCH  16  20
ENDBRANCH   9  13
BRANCH   9  31
HETATM   31  C   UNL     1      43.561 -16.699   4.203  1.00  0.00     0.080 C 
BRANCH  31  32
HETATM   32  C   UNL     1      43.682 -18.193   4.018  1.00  0.00    -0.052 A 
HETATM   33  C   UNL     1      43.540 -18.777   2.754  1.00  0.00     0.049 A 
HETATM   34  C   UNL     1      43.669 -20.155   2.603  1.00  0.00     0.116 A 
HETATM   35  F   UNL     1      43.523 -20.696   1.386  1.00  0.00    -0.206 F 
HETATM   36  C   UNL     1      43.945 -20.974   3.690  1.00  0.00     0.042 A 
HETATM   37  C   UNL     1      44.100 -20.404   4.951  1.00  0.00     0.003 A 
HETATM   38  C   UNL     1      43.968 -19.022   5.115  1.00  0.00     0.007 A 
ENDBRANCH  31  32
ENDBRANCH   9  31
ENDBRANCH   4   5
ENDBRANCH   3   4
TORSDOF 7
ENDMDL
MODEL 2
REMARK VINA RESULT:      -9.7      1.027      1.552
REMARK  7 active torsions:
REMARK  status: ('A' for Active; 'I' for Inactive)
REMARK    1  A    between atoms: C_3  and  C_4 
REMARK    2  A    between atoms: C_4  and  N_5 
REMARK    3  A    between atoms: C_9  and  C_10 
REMARK    4  A    between atoms: C_9  and  C_28 
REMARK    5  A    between atoms: N_13  and  C_15 
REMARK    6  A    between atoms: C_15  and  C_16 
REMARK    7  A    between atoms: C_28  and  C_29 
ROOT
HETATM    1  C   UNL     1      45.404 -11.589   7.025  1.00  0.00     0.112 C 
HETATM    2  C   UNL     1      44.075 -12.120   6.719  1.00  0.00    -0.109 C 
HETATM    3  C   UNL     1      42.873 -12.542   6.441  1.00  0.00    -0.087 C 
ENDROOT
BRANCH   3   4
HETATM    4  C   UNL     1      41.471 -13.034   6.119  1.00  0.00     0.230 C 
BRANCH   4   5
HETATM    5  N   UNL     1      41.460 -14.230   5.318  1.00  0.00    -0.257 N 
HETATM    6  C   UNL     1      40.983 -15.426   5.750  1.00  0.00     0.327 C 
HETATM    7  O   UNL     1      40.409 -15.670   6.793  1.00  0.00    -0.247 OA
HETATM    8  N   UNL     1      41.276 -16.374   4.798  1.00  0.00    -0.324 N 
HETATM    9  C   UNL     1      42.096 -15.865   3.712  1.00  0.00     0.123 C 
HETATM   10  H   UNL     1      41.087 -17.355   4.984  1.00  0.00     0.165 HD
HETATM   11  C   UNL     1      42.200 -14.401   4.189  1.00  0.00     0.257 C 
HETATM   12  O   UNL     1      42.850 -13.532   3.627  1.00  0.00    -0.270 OA
BRANCH   9  13
HETATM   13  C   UNL     1      41.353 -16.061   2.347  1.00  0.00     0.027 C 
HETATM   14  C   UNL     1      41.946 -15.346   1.123  1.00  0.00     0.035 C 
HETATM   15  C   UNL     1      41.593 -13.871   0.967  1.00  0.00     0.235 C 
HETATM   16  N   UNL     1      40.129 -13.590   1.197  1.00  0.00    -0.067 N 
HETATM   17  H   UNL     1      39.641 -13.878   0.339  1.00  0.00     0.280 HD
HETATM   18  C   UNL     1      39.478 -14.308   2.346  1.00  0.00     0.235 C 
HETATM   19  C   UNL     1      39.837 -15.781   2.360  1.00  0.00     0.035 C 
BRANCH  16  20
HETATM   20  C   UNL     1      39.872 -12.094   1.353  1.00  0.00     0.273 C 
BRANCH  20  21
HETATM   21  C   UNL     1      40.317 -11.268   0.181  1.00  0.00    -0.030 A 
HETATM   22  C   UNL     1      41.273 -10.255   0.346  1.00  0.00     0.048 A 
HETATM   23  C   UNL     1      41.669  -9.483  -0.744  1.00  0.00     0.102 A 
HETATM   24  C   UNL     1      41.096  -9.690  -2.001  1.00  0.00     0.102 A 
HETATM   25  O   UNL     1      42.625  -8.531  -0.503  1.00  0.00    -0.346 OA
HETATM   26  O   UNL     1      41.415  -8.948  -3.106  1.00  0.00    -0.346 OA
HETATM   27  C   UNL     1      40.156 -10.702  -2.178  1.00  0.00     0.040 A 
HETATM   28  C   UNL     1      42.136  -7.760  -2.755  1.00  0.00     0.202 C 
HETATM   29  C   UNL     1      43.213  -8.066  -1.726  1.00  0.00     0.202 C 
HETATM   30  C   UNL     1      39.767 -11.489  -1.092  1.00  0.00     0.012 A 
ENDBRANCH  20  21
ENDBRANCH  16  20
ENDBRANCH   9  13
BRANCH   9  31
HETATM   31  C   UNL     1      43.540 -16.433   3.777  1.00  0.00     0.080 C 
BRANCH  31  32
HETATM   32  C   UNL     1      43.655 -17.938   3.734  1.00  0.00    -0.052 A 
HETATM   33  C   UNL     1      43.495 -18.640   2.534  1.00  0.00     0.049 A 
HETATM   34  C   UNL     1      43.617 -20.027   2.514  1.00  0.00     0.116 A 
HETATM   35  F   UNL     1      43.453 -20.682   1.357  1.00  0.00    -0.206 F 
HETATM   36  C   UNL     1      43.907 -20.739   3.670  1.00  0.00     0.042 A 
HETATM   37  C   UNL     1      44.082 -20.052   4.869  1.00  0.00     0.003 A 
HETATM   38  C   UNL     1      43.956 -18.660   4.901  1.00  0.00     0.007 A 
ENDBRANCH  31  32
ENDBRANCH   9  31
ENDBRANCH   4   5
ENDBRANCH   3   4
TORSDOF 7
ENDMDL
MODEL 3
REMARK VINA RESULT:      -9.6      2.163      2.699
REMARK  7 active torsions:
REMARK  status: ('A' for Active; 'I' for Inactive)
REMARK    1  A    between atoms: C_3  and  C_4 
REMARK    2  A    between atoms: C_4  and  N_5 
REMARK    3  A    between atoms: C_9  and  C_10 
REMARK    4  A    between atoms: C_9  and  C_28 
REMARK    5  A    between atoms: N_13  and  C_15 
REMARK    6  A    between atoms: C_15  and  C_16 
REMARK    7  A    between atoms: C_28  and  C_29 
ROOT
HETATM    1  C   UNL     1      38.723 -10.257   4.996  1.00  0.00     0.112 C 
HETATM    2  C   UNL     1      39.571 -11.353   5.470  1.00  0.00    -0.109 C 
HETATM    3  C   UNL     1      40.362 -12.292   5.909  1.00  0.00    -0.087 C 
ENDROOT
BRANCH   3   4
HETATM    4  C   UNL     1      41.285 -13.386   6.420  1.00  0.00     0.230 C 
BRANCH   4   5
HETATM    5  N   UNL     1      41.337 -14.534   5.554  1.00  0.00    -0.257 N 
HETATM    6  C   UNL     1      40.816 -15.748   5.872  1.00  0.00     0.327 C 
HETATM    7  O   UNL     1      40.149 -16.044   6.844  1.00  0.00    -0.247 OA
HETATM    8  N   UNL     1      41.187 -16.643   4.897  1.00  0.00    -0.324 N 
HETATM    9  C   UNL     1      42.105 -16.083   3.920  1.00  0.00     0.123 C 
HETATM   10  H   UNL     1      40.976 -17.631   5.009  1.00  0.00     0.165 HD
HETATM   11  C   UNL     1      42.175 -14.650   4.488  1.00  0.00     0.257 C 
HETATM   12  O   UNL     1      42.879 -13.758   4.037  1.00  0.00    -0.270 OA
BRANCH   9  13
HETATM   13  C   UNL     1      41.486 -16.192   2.485  1.00  0.00     0.027 C 
HETATM   14  C   UNL     1      42.213 -15.446   1.355  1.00  0.00     0.035 C 
HETATM   15  C   UNL     1      41.923 -13.955   1.236  1.00  0.00     0.235 C 
HETATM   16  N   UNL     1      40.452 -13.632   1.344  1.00  0.00    -0.067 N 
HETATM   17  H   UNL     1      40.038 -13.864   0.433  1.00  0.00     0.280 HD
HETATM   18  C   UNL     1      39.676 -14.376   2.394  1.00  0.00     0.235 C 
HETATM   19  C   UNL     1      39.986 -15.860   2.372  1.00  0.00     0.035 C 
BRANCH  16  20
HETATM   20  C   UNL     1      40.230 -12.136   1.546  1.00  0.00     0.273 C 
BRANCH  20  21
HETATM   21  C   UNL     1      39.043 -11.585   0.811  1.00  0.00    -0.030 A 
HETATM   22  C   UNL     1      38.856 -11.865  -0.551  1.00  0.00     0.048 A 
HETATM   23  C   UNL     1      37.759 -11.337  -1.229  1.00  0.00     0.102 A 
HETATM   24  C   UNL     1      36.855 -10.502  -0.567  1.00  0.00     0.102 A 
HETATM   25  O   UNL     1      37.636 -11.677  -2.550  1.00  0.00    -0.346 OA
HETATM   26  O   UNL     1      35.776  -9.925  -1.180  1.00  0.00    -0.346 OA
HETATM   27  C   UNL     1      37.025 -10.230   0.788  1.00  0.00     0.040 A 
HETATM   28  C   UNL     1      35.869 -10.010  -2.608  1.00  0.00     0.202 C 
HETATM   29  C   UNL     1      36.316 -11.399  -3.037  1.00  0.00     0.202 C 
HETATM   30  C   UNL     1      38.113 -10.768   1.475  1.00  0.00     0.012 A 
ENDBRANCH  20  21
ENDBRANCH  16  20
ENDBRANCH   9  13
BRANCH   9  31
HETATM   31  C   UNL     1      43.534 -16.670   4.081  1.00  0.00     0.080 C 
BRANCH  31  32
HETATM   32  C   UNL     1      43.652 -18.165   3.905  1.00  0.00    -0.052 A 
HETATM   33  C   UNL     1      43.439 -18.764   2.657  1.00  0.00     0.049 A 
HETATM   34  C   UNL     1      43.565 -20.143   2.514  1.00  0.00     0.116 A 
HETATM   35  F   UNL     1      43.350 -20.698   1.314  1.00  0.00    -0.206 F 
HETATM   36  C   UNL     1      43.910 -20.949   3.591  1.00  0.00     0.042 A 
HETATM   37  C   UNL     1      44.136 -20.365   4.834  1.00  0.00     0.003 A 
HETATM   38  C   UNL     1      44.007 -18.982   4.991  1.00  0.00     0.007 A 
ENDBRANCH  31  32
ENDBRANCH   9  31
ENDBRANCH   4   5
ENDBRANCH   3   4
TORSDOF 7
ENDMDL
MODEL 4
REMARK VINA RESULT:      -9.4      1.945      2.661
REMARK  7 active torsions:
REMARK  status: ('A' for Active; 'I' for Inactive)
REMARK    1  A    between atoms: C_3  and  C_4 
REMARK    2  A    between atoms: C_4  and  N_5 
REMARK    3  A    between atoms: C_9  and  C_10 
REMARK    4  A    between atoms: C_9  and  C_28 
REMARK    5  A    between atoms: N_13  and  C_15 
REMARK    6  A    between atoms: C_15  and  C_16 
REMARK    7  A    between atoms: C_28  and  C_29 
ROOT
HETATM    1  C   UNL     1      40.673  -9.977   5.803  1.00  0.00     0.112 C 
HETATM    2  C   UNL     1      41.696 -10.952   6.183  1.00  0.00    -0.109 C 
HETATM    3  C   UNL     1      42.585 -11.856   6.487  1.00  0.00    -0.087 C 
ENDROOT
BRANCH   3   4
HETATM    4  C   UNL     1      43.621 -12.911   6.840  1.00  0.00     0.230 C 
BRANCH   4   5
HETATM    5  N   UNL     1      43.216 -14.246   6.488  1.00  0.00    -0.257 N 
HETATM    6  C   UNL     1      43.130 -15.271   7.376  1.00  0.00     0.327 C 
HETATM    7  O   UNL     1      43.265 -15.228   8.583  1.00  0.00    -0.247 OA
HETATM    8  N   UNL     1      42.875 -16.426   6.674  1.00  0.00    -0.324 N 
HETATM    9  C   UNL     1      42.906 -16.242   5.233  1.00  0.00     0.123 C 
HETATM   10  H   UNL     1      42.876 -17.321   7.155  1.00  0.00     0.165 HD
HETATM   11  C   UNL     1      43.189 -14.726   5.215  1.00  0.00     0.257 C 
HETATM   12  O   UNL     1      43.360 -14.063   4.202  1.00  0.00    -0.270 OA
BRANCH   9  13
HETATM   13  C   UNL     1      41.528 -16.661   4.615  1.00  0.00     0.027 C 
HETATM   14  C   UNL     1      41.343 -16.430   3.107  1.00  0.00     0.035 C 
HETATM   15  C   UNL     1      40.968 -15.015   2.683  1.00  0.00     0.235 C 
HETATM   16  N   UNL     1      39.879 -14.415   3.539  1.00  0.00    -0.067 N 
HETATM   17  H   UNL     1      38.996 -14.830   3.215  1.00  0.00     0.280 HD
HETATM   18  C   UNL     1      39.974 -14.659   5.019  1.00  0.00     0.235 C 
HETATM   19  C   UNL     1      40.276 -16.112   5.327  1.00  0.00     0.035 C 
BRANCH  16  20
HETATM   20  C   UNL     1      39.757 -12.912   3.302  1.00  0.00     0.273 C 
BRANCH  20  21
HETATM   21  C   UNL     1      40.131 -12.475   1.916  1.00  0.00    -0.030 A 
HETATM   22  C   UNL     1      39.544 -13.079   0.795  1.00  0.00     0.048 A 
HETATM   23  C   UNL     1      39.909 -12.677  -0.488  1.00  0.00     0.102 A 
HETATM   24  C   UNL     1      40.882 -11.692  -0.669  1.00  0.00     0.102 A 
HETATM   25  O   UNL     1      39.271 -13.301  -1.528  1.00  0.00    -0.346 OA
HETATM   26  O   UNL     1      41.310 -11.273  -1.899  1.00  0.00    -0.346 OA
HETATM   27  C   UNL     1      41.461 -11.076   0.438  1.00  0.00     0.040 A 
HETATM   28  C   UNL     1      40.894 -12.169  -2.938  1.00  0.00     0.202 C 
HETATM   29  C   UNL     1      39.439 -12.572  -2.752  1.00  0.00     0.202 C 
HETATM   30  C   UNL     1      41.088 -11.465   1.725  1.00  0.00     0.012 A 
ENDBRANCH  20  21
ENDBRANCH  16  20
ENDBRANCH   9  13
BRANCH   9  31
HETATM   31  C   UNL     1      44.156 -16.913   4.601  1.00  0.00     0.080 C 
BRANCH  31  32
HETATM   32  C   UNL     1      44.024 -18.385   4.291  1.00  0.00    -0.052 A 
HETATM   33  C   UNL     1      43.927 -18.838   2.970  1.00  0.00     0.049 A 
HETATM   34  C   UNL     1      43.820 -20.201   2.705  1.00  0.00     0.116 A 
HETATM   35  F   UNL     1      43.720 -20.614   1.435  1.00  0.00    -0.206 F 
HETATM   36  C   UNL     1      43.814 -21.134   3.734  1.00  0.00     0.042 A 
HETATM   37  C   UNL     1      43.922 -20.697   5.051  1.00  0.00     0.003 A 
HETATM   38  C   UNL     1      44.026 -19.331   5.329  1.00  0.00     0.007 A 
ENDBRANCH  31  32
ENDBRANCH   9  31
ENDBRANCH   4   5
ENDBRANCH   3   4
TORSDOF 7
ENDMDL
MODEL 5
REMARK VINA RESULT:      -9.1      4.001      8.118
REMARK  7 active torsions:
REMARK  status: ('A' for Active; 'I' for Inactive)
REMARK    1  A    between atoms: C_3  and  C_4 
REMARK    2  A    between atoms: C_4  and  N_5 
REMARK    3  A    between atoms: C_9  and  C_10 
REMARK    4  A    between atoms: C_9  and  C_28 
REMARK    5  A    between atoms: N_13  and  C_15 
REMARK    6  A    between atoms: C_15  and  C_16 
REMARK    7  A    between atoms: C_28  and  C_29 
ROOT
HETATM    1  C   UNL     1      44.235 -16.834   5.880  1.00  0.00     0.112 C 
HETATM    2  C   UNL     1      43.645 -16.641   4.554  1.00  0.00    -0.109 C 
HETATM    3  C   UNL     1      43.117 -16.524   3.367  1.00  0.00    -0.087 C 
ENDROOT
BRANCH   3   4
HETATM    4  C   UNL     1      42.502 -16.387   1.984  1.00  0.00     0.230 C 
BRANCH   4   5
HETATM    5  N   UNL     1      41.545 -15.317   1.892  1.00  0.00    -0.257 N 
HETATM    6  C   UNL     1      40.229 -15.500   1.607  1.00  0.00     0.327 C 
HETATM    7  O   UNL     1      39.627 -16.550   1.492  1.00  0.00    -0.247 OA
HETATM    8  N   UNL     1      39.651 -14.263   1.439  1.00  0.00    -0.324 N 
HETATM    9  C   UNL     1      40.607 -13.170   1.480  1.00  0.00     0.123 C 
HETATM   10  H   UNL     1      38.689 -14.194   1.120  1.00  0.00     0.165 HD
HETATM   11  C   UNL     1      41.876 -14.005   1.751  1.00  0.00     0.257 C 
HETATM   12  O   UNL     1      43.006 -13.545   1.829  1.00  0.00    -0.270 OA
BRANCH   9  13
HETATM   13  C   UNL     1      40.221 -12.169   2.622  1.00  0.00     0.027 C 
HETATM   14  C   UNL     1      40.893 -10.787   2.592  1.00  0.00     0.035 C 
HETATM   15  C   UNL     1      42.303 -10.711   3.165  1.00  0.00     0.235 C 
HETATM   16  N   UNL     1      42.443 -11.438   4.480  1.00  0.00    -0.067 N 
HETATM   17  H   UNL     1      42.036 -10.822   5.195  1.00  0.00     0.280 HD
HETATM   18  C   UNL     1      41.756 -12.770   4.588  1.00  0.00     0.235 C 
HETATM   19  C   UNL     1      40.337 -12.712   4.059  1.00  0.00     0.035 C 
BRANCH  16  20
HETATM   20  C   UNL     1      43.911 -11.617   4.857  1.00  0.00     0.273 C 
BRANCH  20  21
HETATM   21  C   UNL     1      44.249 -11.170   6.249  1.00  0.00    -0.030 A 
HETATM   22  C   UNL     1      43.252 -10.663   7.095  1.00  0.00     0.048 A 
HETATM   23  C   UNL     1      43.577 -10.235   8.381  1.00  0.00     0.102 A 
HETATM   24  C   UNL     1      44.900 -10.281   8.826  1.00  0.00     0.102 A 
HETATM   25  O   UNL     1      42.542  -9.776   9.152  1.00  0.00    -0.346 OA
HETATM   26  O   UNL     1      45.294  -9.849  10.064  1.00  0.00    -0.346 OA
HETATM   27  C   UNL     1      45.895 -10.796   7.999  1.00  0.00     0.040 A 
HETATM   28  C   UNL     1      44.275  -9.066  10.699  1.00  0.00     0.202 C 
HETATM   29  C   UNL     1      42.912  -9.719  10.536  1.00  0.00     0.202 C 
HETATM   30  C   UNL     1      45.572 -11.239   6.715  1.00  0.00     0.012 A 
ENDBRANCH  20  21
ENDBRANCH  16  20
ENDBRANCH   9  13
BRANCH   9  31
HETATM   31  C   UNL     1      40.809 -12.539   0.075  1.00  0.00     0.080 C 
BRANCH  31  32
HETATM   32  C   UNL     1      39.827 -12.973  -0.987  1.00  0.00    -0.052 A 
HETATM   33  C   UNL     1      38.637 -12.268  -1.200  1.00  0.00     0.049 A 
HETATM   34  C   UNL     1      37.750 -12.677  -2.193  1.00  0.00     0.116 A 
HETATM   35  F   UNL     1      36.614 -11.993  -2.377  1.00  0.00    -0.206 F 
HETATM   36  C   UNL     1      38.026 -13.779  -2.992  1.00  0.00     0.042 A 
HETATM   37  C   UNL     1      39.212 -14.482  -2.798  1.00  0.00     0.003 A 
HETATM   38  C   UNL     1      40.107 -14.083  -1.801  1.00  0.00     0.007 A 
ENDBRANCH  31  32
ENDBRANCH   9  31
ENDBRANCH   4   5
ENDBRANCH   3   4
TORSDOF 7
ENDMDL
MODEL 6
REMARK VINA RESULT:      -9.1      3.213      7.908
REMARK  7 active torsions:
REMARK  status: ('A' for Active; 'I' for Inactive)
REMARK    1  A    between atoms: C_3  and  C_4 
REMARK    2  A    between atoms: C_4  and  N_5 
REMARK    3  A    between atoms: C_9  and  C_10 
REMARK    4  A    between atoms: C_9  and  C_28 
REMARK    5  A    between atoms: N_13  and  C_15 
REMARK    6  A    between atoms: C_15  and  C_16 
REMARK    7  A    between atoms: C_28  and  C_29 
ROOT
HETATM    1  C   UNL     1      43.245 -20.044   1.887  1.00  0.00     0.112 C 
HETATM    2  C   UNL     1      43.112 -18.695   2.440  1.00  0.00    -0.109 C 
HETATM    3  C   UNL     1      43.002 -17.474   2.882  1.00  0.00    -0.087 C 
ENDROOT
BRANCH   3   4
HETATM    4  C   UNL     1      42.874 -16.050   3.398  1.00  0.00     0.230 C 
BRANCH   4   5
HETATM    5  N   UNL     1      41.725 -15.358   2.876  1.00  0.00    -0.257 N 
HETATM    6  C   UNL     1      40.445 -15.632   3.238  1.00  0.00     0.327 C 
HETATM    7  O   UNL     1      40.060 -16.394   4.104  1.00  0.00    -0.247 OA
HETATM    8  N   UNL     1      39.605 -14.903   2.431  1.00  0.00    -0.324 N 
HETATM    9  C   UNL     1      40.300 -14.183   1.378  1.00  0.00     0.123 C 
HETATM   10  H   UNL     1      38.601 -15.049   2.482  1.00  0.00     0.165 HD
HETATM   11  C   UNL     1      41.739 -14.598   1.747  1.00  0.00     0.257 C 
HETATM   12  O   UNL     1      42.737 -14.282   1.114  1.00  0.00    -0.270 OA
BRANCH   9  13
HETATM   13  C   UNL     1      40.006 -12.649   1.499  1.00  0.00     0.027 C 
HETATM   14  C   UNL     1      41.164 -11.753   1.967  1.00  0.00     0.035 C 
HETATM   15  C   UNL     1      41.414 -11.703   3.469  1.00  0.00     0.235 C 
HETATM   16  N   UNL     1      40.145 -11.541   4.270  1.00  0.00    -0.067 N 
HETATM   17  H   UNL     1      39.886 -10.548   4.202  1.00  0.00     0.280 HD
HETATM   18  C   UNL     1      38.959 -12.348   3.823  1.00  0.00     0.235 C 
HETATM   19  C   UNL     1      38.761 -12.265   2.322  1.00  0.00     0.035 C 
BRANCH  16  20
HETATM   20  C   UNL     1      40.389 -11.817   5.751  1.00  0.00     0.273 C 
BRANCH  20  21
HETATM   21  C   UNL     1      41.470 -12.823   6.020  1.00  0.00    -0.030 A 
HETATM   22  C   UNL     1      41.145 -14.142   6.370  1.00  0.00     0.048 A 
HETATM   23  C   UNL     1      42.155 -15.065   6.633  1.00  0.00     0.102 A 
HETATM   24  C   UNL     1      43.496 -14.678   6.579  1.00  0.00     0.102 A 
HETATM   25  O   UNL     1      41.753 -16.337   6.943  1.00  0.00    -0.346 OA
HETATM   26  O   UNL     1      44.535 -15.524   6.856  1.00  0.00    -0.346 OA
HETATM   27  C   UNL     1      43.830 -13.374   6.220  1.00  0.00     0.040 A 
HETATM   28  C   UNL     1      44.086 -16.719   7.506  1.00  0.00     0.202 C 
HETATM   29  C   UNL     1      42.840 -17.267   6.828  1.00  0.00     0.202 C 
HETATM   30  C   UNL     1      42.822 -12.450   5.941  1.00  0.00     0.012 A 
ENDBRANCH  20  21
ENDBRANCH  16  20
ENDBRANCH   9  13
BRANCH   9  31
HETATM   31  C   UNL     1      40.024 -14.810  -0.017  1.00  0.00     0.080 C 
BRANCH  31  32
HETATM   32  C   UNL     1      39.766 -13.831  -1.137  1.00  0.00    -0.052 A 
HETATM   33  C   UNL     1      38.462 -13.529  -1.545  1.00  0.00     0.049 A 
HETATM   34  C   UNL     1      38.245 -12.614  -2.572  1.00  0.00     0.116 A 
HETATM   35  F   UNL     1      36.990 -12.344  -2.954  1.00  0.00    -0.206 F 
HETATM   36  C   UNL     1      39.306 -11.978  -3.203  1.00  0.00     0.042 A 
HETATM   37  C   UNL     1      40.608 -12.260  -2.798  1.00  0.00     0.003 A 
HETATM   38  C   UNL     1      40.838 -13.181  -1.772  1.00  0.00     0.007 A 
ENDBRANCH  31  32
ENDBRANCH   9  31
ENDBRANCH   4   5
ENDBRANCH   3   4
TORSDOF 7
ENDMDL
MODEL 7
REMARK VINA RESULT:      -8.6      3.981      7.196
REMARK  7 active torsions:
REMARK  status: ('A' for Active; 'I' for Inactive)
REMARK    1  A    between atoms: C_3  and  C_4 
REMARK    2  A    between atoms: C_4  and  N_5 
REMARK    3  A    between atoms: C_9  and  C_10 
REMARK    4  A    between atoms: C_9  and  C_28 
REMARK    5  A    between atoms: N_13  and  C_15 
REMARK    6  A    between atoms: C_15  and  C_16 
REMARK    7  A    between atoms: C_28  and  C_29 
ROOT
HETATM    1  C   UNL     1      39.492  -8.106   5.845  1.00  0.00     0.112 C 
HETATM    2  C   UNL     1      39.262  -9.302   5.030  1.00  0.00    -0.109 C 
HETATM    3  C   UNL     1      39.006 -10.351   4.301  1.00  0.00    -0.087 C 
ENDROOT
BRANCH   3   4
HETATM    4  C   UNL     1      38.707 -11.575   3.451  1.00  0.00     0.230 C 
BRANCH   4   5
HETATM    5  N   UNL     1      39.852 -12.425   3.256  1.00  0.00    -0.257 N 
HETATM    6  C   UNL     1      40.289 -12.842   2.040  1.00  0.00     0.327 C 
HETATM    7  O   UNL     1      39.884 -12.505   0.944  1.00  0.00    -0.247 OA
HETATM    8  N   UNL     1      41.292 -13.762   2.236  1.00  0.00    -0.324 N 
HETATM    9  C   UNL     1      41.492 -14.106   3.633  1.00  0.00     0.123 C 
HETATM   10  H   UNL     1      41.679 -14.265   1.443  1.00  0.00     0.165 HD
HETATM   11  C   UNL     1      40.427 -13.168   4.240  1.00  0.00     0.257 C 
HETATM   12  O   UNL     1      40.152 -13.108   5.430  1.00  0.00    -0.270 OA
BRANCH   9  13
HETATM   13  C   UNL     1      42.967 -13.786   4.053  1.00  0.00     0.027 C 
HETATM   14  C   UNL     1      43.277 -13.787   5.559  1.00  0.00     0.035 C 
HETATM   15  C   UNL     1      42.911 -12.521   6.323  1.00  0.00     0.235 C 
HETATM   16  N   UNL     1      43.330 -11.261   5.607  1.00  0.00    -0.067 N 
HETATM   17  H   UNL     1      44.340 -11.159   5.768  1.00  0.00     0.280 HD
HETATM   18  C   UNL     1      43.105 -11.224   4.122  1.00  0.00     0.235 C 
HETATM   19  C   UNL     1      43.574 -12.502   3.455  1.00  0.00     0.035 C 
BRANCH  16  20
HETATM   20  C   UNL     1      42.673 -10.030   6.227  1.00  0.00     0.273 C 
BRANCH  20  21
HETATM   21  C   UNL     1      43.068  -9.773   7.652  1.00  0.00    -0.030 A 
HETATM   22  C   UNL     1      42.091  -9.577   8.638  1.00  0.00     0.048 A 
HETATM   23  C   UNL     1      42.467  -9.323   9.955  1.00  0.00     0.102 A 
HETATM   24  C   UNL     1      43.818  -9.233  10.298  1.00  0.00     0.102 A 
HETATM   25  O   UNL     1      41.452  -9.168  10.862  1.00  0.00    -0.346 OA
HETATM   26  O   UNL     1      44.257  -8.955  11.564  1.00  0.00    -0.346 OA
HETATM   27  C   UNL     1      44.797  -9.439   9.329  1.00  0.00     0.040 A 
HETATM   28  C   UNL     1      43.199  -8.459  12.394  1.00  0.00     0.202 C 
HETATM   29  C   UNL     1      41.935  -9.284  12.207  1.00  0.00     0.202 C 
HETATM   30  C   UNL     1      44.425  -9.708   8.011  1.00  0.00     0.012 A 
ENDBRANCH  20  21
ENDBRANCH  16  20
ENDBRANCH   9  13
BRANCH   9  31
HETATM   31  C   UNL     1      41.006 -15.549   3.937  1.00  0.00     0.080 C 
BRANCH  31  32
HETATM   32  C   UNL     1      42.027 -16.643   3.730  1.00  0.00    -0.052 A 
HETATM   33  C   UNL     1      42.729 -17.188   4.811  1.00  0.00     0.049 A 
HETATM   34  C   UNL     1      43.657 -18.205   4.600  1.00  0.00     0.116 A 
HETATM   35  F   UNL     1      44.324 -18.709   5.646  1.00  0.00    -0.206 F 
HETATM   36  C   UNL     1      43.900 -18.702   3.327  1.00  0.00     0.042 A 
HETATM   37  C   UNL     1      43.200 -18.176   2.244  1.00  0.00     0.003 A 
HETATM   38  C   UNL     1      42.269 -17.152   2.444  1.00  0.00     0.007 A 
ENDBRANCH  31  32
ENDBRANCH   9  31
ENDBRANCH   4   5
ENDBRANCH   3   4
TORSDOF 7
ENDMDL
MODEL 8
REMARK VINA RESULT:      -8.5      3.523      6.707
REMARK  7 active torsions:
REMARK  status: ('A' for Active; 'I' for Inactive)
REMARK    1  A    between atoms: C_3  and  C_4 
REMARK    2  A    between atoms: C_4  and  N_5 
REMARK    3  A    between atoms: C_9  and  C_10 
REMARK    4  A    between atoms: C_9  and  C_28 
REMARK    5  A    between atoms: N_13  and  C_15 
REMARK    6  A    between atoms: C_15  and  C_16 
REMARK    7  A    between atoms: C_28  and  C_29 
ROOT
HETATM    1  C   UNL     1      38.531  -8.662   4.753  1.00  0.00     0.112 C 
HETATM    2  C   UNL     1      38.633  -9.860   3.917  1.00  0.00    -0.109 C 
HETATM    3  C   UNL     1      38.674 -10.916   3.153  1.00  0.00    -0.087 C 
ENDROOT
BRANCH   3   4
HETATM    4  C   UNL     1      38.722 -12.147   2.263  1.00  0.00     0.230 C 
BRANCH   4   5
HETATM    5  N   UNL     1      39.937 -12.904   2.406  1.00  0.00    -0.257 N 
HETATM    6  C   UNL     1      40.591 -13.491   1.371  1.00  0.00     0.327 C 
HETATM    7  O   UNL     1      40.348 -13.399   0.183  1.00  0.00    -0.247 OA
HETATM    8  N   UNL     1      41.608 -14.260   1.886  1.00  0.00    -0.324 N 
HETATM    9  C   UNL     1      41.602 -14.325   3.338  1.00  0.00     0.123 C 
HETATM   10  H   UNL     1      42.151 -14.859   1.271  1.00  0.00     0.165 HD
HETATM   11  C   UNL     1      40.394 -13.399   3.589  1.00  0.00     0.257 C 
HETATM   12  O   UNL     1      39.927 -13.151   4.691  1.00  0.00    -0.270 OA
BRANCH   9  13
HETATM   13  C   UNL     1      42.965 -13.795   3.899  1.00  0.00     0.027 C 
HETATM   14  C   UNL     1      43.057 -13.583   5.419  1.00  0.00     0.035 C 
HETATM   15  C   UNL     1      42.468 -12.285   5.955  1.00  0.00     0.235 C 
HETATM   16  N   UNL     1      42.863 -11.079   5.138  1.00  0.00    -0.067 N 
HETATM   17  H   UNL     1      43.826 -10.846   5.414  1.00  0.00     0.280 HD
HETATM   18  C   UNL     1      42.850 -11.244   3.645  1.00  0.00     0.235 C 
HETATM   19  C   UNL     1      43.527 -12.531   3.219  1.00  0.00     0.035 C 
BRANCH  16  20
HETATM   20  C   UNL     1      42.011  -9.865   5.500  1.00  0.00     0.273 C 
BRANCH  20  21
HETATM   21  C   UNL     1      41.959  -9.565   6.969  1.00  0.00    -0.030 A 
HETATM   22  C   UNL     1      40.734  -9.564   7.653  1.00  0.00     0.048 A 
HETATM   23  C   UNL     1      40.693  -9.269   9.014  1.00  0.00     0.102 A 
HETATM   24  C   UNL     1      41.865  -8.943   9.701  1.00  0.00     0.102 A 
HETATM   25  O   UNL     1      39.461  -9.313   9.612  1.00  0.00    -0.346 OA
HETATM   26  O   UNL     1      41.892  -8.613  11.029  1.00  0.00    -0.346 OA
HETATM   27  C   UNL     1      43.087  -8.954   9.034  1.00  0.00     0.040 A 
HETATM   28  C   UNL     1      40.580  -8.329  11.531  1.00  0.00     0.202 C 
HETATM   29  C   UNL     1      39.579  -9.363  11.040  1.00  0.00     0.202 C 
HETATM   30  C   UNL     1      43.136  -9.264   7.674  1.00  0.00     0.012 A 
ENDBRANCH  20  21
ENDBRANCH  16  20
ENDBRANCH   9  13
BRANCH   9  31
HETATM   31  C   UNL     1      41.170 -15.729   3.842  1.00  0.00     0.080 C 
BRANCH  31  32
HETATM   32  C   UNL     1      42.220 -16.810   3.753  1.00  0.00    -0.052 A 
HETATM   33  C   UNL     1      42.357 -17.591   2.599  1.00  0.00     0.049 A 
HETATM   34  C   UNL     1      43.341 -18.574   2.533  1.00  0.00     0.116 A 
HETATM   35  F   UNL     1      43.451 -19.315   1.423  1.00  0.00    -0.206 F 
HETATM   36  C   UNL     1      44.206 -18.796   3.596  1.00  0.00     0.042 A 
HETATM   37  C   UNL     1      44.089 -18.018   4.745  1.00  0.00     0.003 A 
HETATM   38  C   UNL     1      43.102 -17.032   4.824  1.00  0.00     0.007 A 
ENDBRANCH  31  32
ENDBRANCH   9  31
ENDBRANCH   4   5
ENDBRANCH   3   4
TORSDOF 7
ENDMDL
MODEL 9
REMARK VINA RESULT:      -8.5      4.286      7.826
REMARK  7 active torsions:
REMARK  status: ('A' for Active; 'I' for Inactive)
REMARK    1  A    between atoms: C_3  and  C_4 
REMARK    2  A    between atoms: C_4  and  N_5 
REMARK    3  A    between atoms: C_9  and  C_10 
REMARK    4  A    between atoms: C_9  and  C_28 
REMARK    5  A    between atoms: N_13  and  C_15 
REMARK    6  A    between atoms: C_15  and  C_16 
REMARK    7  A    between atoms: C_28  and  C_29 
ROOT
HETATM    1  C   UNL     1      39.931 -12.743  -2.930  1.00  0.00     0.112 C 
HETATM    2  C   UNL     1      40.098 -13.507  -1.692  1.00  0.00    -0.109 C 
HETATM    3  C   UNL     1      40.194 -14.199  -0.591  1.00  0.00    -0.087 C 
ENDROOT
BRANCH   3   4
HETATM    4  C   UNL     1      40.306 -15.006   0.692  1.00  0.00     0.230 C 
BRANCH   4   5
HETATM    5  N   UNL     1      41.126 -14.372   1.691  1.00  0.00    -0.257 N 
HETATM    6  C   UNL     1      42.449 -14.628   1.858  1.00  0.00     0.327 C 
HETATM    7  O   UNL     1      43.172 -15.316   1.165  1.00  0.00    -0.247 OA
HETATM    8  N   UNL     1      42.871 -13.978   2.995  1.00  0.00    -0.324 N 
HETATM    9  C   UNL     1      41.791 -13.344   3.730  1.00  0.00     0.123 C 
HETATM   10  H   UNL     1      43.813 -14.129   3.344  1.00  0.00     0.165 HD
HETATM   11  C   UNL     1      40.636 -13.712   2.775  1.00  0.00     0.257 C 
HETATM   12  O   UNL     1      39.460 -13.441   2.972  1.00  0.00    -0.270 OA
BRANCH   9  13
HETATM   13  C   UNL     1      42.069 -11.808   3.865  1.00  0.00     0.027 C 
HETATM   14  C   UNL     1      43.534 -11.355   3.759  1.00  0.00     0.035 C 
HETATM   15  C   UNL     1      44.377 -11.497   5.020  1.00  0.00     0.235 C 
HETATM   16  N   UNL     1      43.667 -11.008   6.259  1.00  0.00    -0.067 N 
HETATM   17  H   UNL     1      43.728  -9.982   6.241  1.00  0.00     0.280 HD
HETATM   18  C   UNL     1      42.214 -11.370   6.389  1.00  0.00     0.235 C 
HETATM   19  C   UNL     1      41.458 -11.118   5.100  1.00  0.00     0.035 C 
BRANCH  16  20
HETATM   20  C   UNL     1      44.393 -11.456   7.524  1.00  0.00     0.273 C 
BRANCH  20  21
HETATM   21  C   UNL     1      44.141 -10.585   8.720  1.00  0.00    -0.030 A 
HETATM   22  C   UNL     1      42.892  -9.975   8.906  1.00  0.00     0.048 A 
HETATM   23  C   UNL     1      42.672  -9.155  10.011  1.00  0.00     0.102 A 
HETATM   24  C   UNL     1      43.699  -8.913  10.926  1.00  0.00     0.102 A 
HETATM   25  O   UNL     1      41.418  -8.617  10.132  1.00  0.00    -0.346 OA
HETATM   26  O   UNL     1      43.561  -8.095  12.015  1.00  0.00    -0.346 OA
HETATM   27  C   UNL     1      44.938  -9.525  10.758  1.00  0.00     0.040 A 
HETATM   28  C   UNL     1      42.381  -7.286  11.923  1.00  0.00     0.202 C 
HETATM   29  C   UNL     1      41.194  -8.115  11.457  1.00  0.00     0.202 C 
HETATM   30  C   UNL     1      45.160 -10.358   9.660  1.00  0.00     0.012 A 
ENDBRANCH  20  21
ENDBRANCH  16  20
ENDBRANCH   9  13
BRANCH   9  31
HETATM   31  C   UNL     1      41.493 -14.090   5.059  1.00  0.00     0.080 C 
BRANCH  31  32
HETATM   32  C   UNL     1      42.485 -15.162   5.446  1.00  0.00    -0.052 A 
HETATM   33  C   UNL     1      42.407 -16.448   4.900  1.00  0.00     0.049 A 
HETATM   34  C   UNL     1      43.339 -17.418   5.261  1.00  0.00     0.116 A 
HETATM   35  F   UNL     1      43.243 -18.645   4.733  1.00  0.00    -0.206 F 
HETATM   36  C   UNL     1      44.362 -17.133   6.154  1.00  0.00     0.042 A 
HETATM   37  C   UNL     1      44.459 -15.854   6.696  1.00  0.00     0.003 A 
HETATM   38  C   UNL     1      43.526 -14.874   6.345  1.00  0.00     0.007 A 
ENDBRANCH  31  32
ENDBRANCH   9  31
ENDBRANCH   4   5
ENDBRANCH   3   4
TORSDOF 7
ENDMDL
MODEL 10
REMARK VINA RESULT:      -8.3      5.635      9.483
REMARK  7 active torsions:
REMARK  status: ('A' for Active; 'I' for Inactive)
REMARK    1  A    between atoms: C_3  and  C_4 
REMARK    2  A    between atoms: C_4  and  N_5 
REMARK    3  A    between atoms: C_9  and  C_10 
REMARK    4  A    between atoms: C_9  and  C_28 
REMARK    5  A    between atoms: N_13  and  C_15 
REMARK    6  A    between atoms: C_15  and  C_16 
REMARK    7  A    between atoms: C_28  and  C_29 
ROOT
HETATM    1  C   UNL     1      40.868  -4.353   4.949  1.00  0.00     0.112 C 
HETATM    2  C   UNL     1      41.046  -5.133   6.176  1.00  0.00    -0.109 C 
HETATM    3  C   UNL     1      41.155  -5.809   7.285  1.00  0.00    -0.087 C 
ENDROOT
BRANCH   3   4
HETATM    4  C   UNL     1      41.283  -6.598   8.578  1.00  0.00     0.230 C 
BRANCH   4   5
HETATM    5  N   UNL     1      41.829  -7.916   8.388  1.00  0.00    -0.257 N 
HETATM    6  C   UNL     1      41.102  -9.059   8.487  1.00  0.00     0.327 C 
HETATM    7  O   UNL     1      39.901  -9.172   8.638  1.00  0.00    -0.247 OA
HETATM    8  N   UNL     1      41.967 -10.126   8.409  1.00  0.00    -0.324 N 
HETATM    9  C   UNL     1      43.365  -9.732   8.380  1.00  0.00     0.123 C 
HETATM   10  H   UNL     1      41.623 -11.069   8.565  1.00  0.00     0.165 HD
HETATM   11  C   UNL     1      43.159  -8.203   8.413  1.00  0.00     0.257 C 
HETATM   12  O   UNL     1      44.063  -7.381   8.454  1.00  0.00    -0.270 OA
BRANCH   9  13
HETATM   13  C   UNL     1      44.043 -10.275   7.077  1.00  0.00     0.027 C 
HETATM   14  C   UNL     1      43.160 -10.378   5.823  1.00  0.00     0.035 C 
HETATM   15  C   UNL     1      42.265 -11.608   5.728  1.00  0.00     0.235 C 
HETATM   16  N   UNL     1      42.984 -12.886   6.084  1.00  0.00    -0.067 N 
HETATM   17  H   UNL     1      43.549 -13.138   5.262  1.00  0.00     0.280 HD
HETATM   18  C   UNL     1      43.910 -12.831   7.267  1.00  0.00     0.235 C 
HETATM   19  C   UNL     1      44.804 -11.608   7.220  1.00  0.00     0.035 C 
BRANCH  16  20
HETATM   20  C   UNL     1      41.999 -14.033   6.292  1.00  0.00     0.273 C 
BRANCH  20  21
HETATM   21  C   UNL     1      42.160 -15.167   5.321  1.00  0.00    -0.030 A 
HETATM   22  C   UNL     1      43.179 -16.114   5.494  1.00  0.00     0.048 A 
HETATM   23  C   UNL     1      43.331 -17.154   4.580  1.00  0.00     0.102 A 
HETATM   24  C   UNL     1      42.489 -17.245   3.469  1.00  0.00     0.102 A 
HETATM   25  O   UNL     1      44.335 -18.050   4.835  1.00  0.00    -0.346 OA
HETATM   26  O   UNL     1      42.601 -18.221   2.516  1.00  0.00    -0.346 OA
HETATM   27  C   UNL     1      41.465 -16.317   3.295  1.00  0.00     0.040 A 
HETATM   28  C   UNL     1      43.850 -18.917   2.617  1.00  0.00     0.202 C 
HETATM   29  C   UNL     1      44.167 -19.250   4.066  1.00  0.00     0.202 C 
HETATM   30  C   UNL     1      41.300 -15.282   4.216  1.00  0.00     0.012 A 
ENDBRANCH  20  21
ENDBRANCH  16  20
ENDBRANCH   9  13
BRANCH   9  31
HETATM   31  C   UNL     1      44.084 -10.090   9.710  1.00  0.00     0.080 C 
BRANCH  31  32
HETATM   32  C   UNL     1      43.403  -9.617  10.972  1.00  0.00    -0.052 A 
HETATM   33  C   UNL     1      42.280 -10.282  11.478  1.00  0.00     0.049 A 
HETATM   34  C   UNL     1      41.675  -9.837  12.650  1.00  0.00     0.116 A 
HETATM   35  F   UNL     1      40.597 -10.483  13.115  1.00  0.00    -0.206 F 
HETATM   36  C   UNL     1      42.170  -8.740  13.343  1.00  0.00     0.042 A 
HETATM   37  C   UNL     1      43.293  -8.077  12.857  1.00  0.00     0.003 A 
HETATM   38  C   UNL     1      43.906  -8.512  11.678  1.00  0.00     0.007 A 
ENDBRANCH  31  32
ENDBRANCH   9  31
ENDBRANCH   4   5
ENDBRANCH   3   4
TORSDOF 7
ENDMDL
