MODEL 1
REMARK VINA RESULT:      -9.5      0.000      0.000
REMARK  3 active torsions:
REMARK  status: ('A' for Active; 'I' for Inactive)
REMARK    1  A    between atoms: C_2  and  N_3 
REMARK       I    between atoms: N_6  and  C_7 
REMARK    2  A    between atoms: C_7  and  C_8 
REMARK    3  A    between atoms: C_24  and  O_25 
ROOT
HETATM    1  N   UNL     1      42.959 -15.987   4.103  1.00  0.00    -0.280 NA
HETATM    2  C   UNL     1      43.160 -15.032   2.980  1.00  0.00     0.115 C 
HETATM    3  C   UNL     1      42.651 -13.625   3.346  1.00  0.00     0.141 C 
HETATM    4  N   UNL     1      43.192 -13.155   4.625  1.00  0.00    -0.346 N 
HETATM    5  C   UNL     1      43.285 -11.777   4.816  1.00  0.00     0.256 C 
HETATM    6  O   UNL     1      42.859 -10.959   4.005  1.00  0.00    -0.267 OA
HETATM    7  C   UNL     1      42.989 -14.109   5.728  1.00  0.00     0.141 C 
HETATM    8  C   UNL     1      43.534 -15.505   5.377  1.00  0.00     0.115 C 
ENDROOT
BRANCH   5   9
HETATM    9  C   UNL     1      43.978 -11.264   6.016  1.00  0.00     0.064 A 
HETATM   10  C   UNL     1      43.282 -10.604   7.009  1.00  0.00     0.077 A 
HETATM   11  C   UNL     1      43.927 -10.087   8.136  1.00  0.00     0.065 A 
HETATM   12  N   UNL     1      41.922 -10.305   7.128  1.00  0.00    -0.330 N 
HETATM   13  N   UNL     1      42.968  -9.482   8.945  1.00  0.00    -0.331 N 
HETATM   14  C   UNL     1      45.285 -10.187   8.319  1.00  0.00     0.074 A 
HETATM   15  C   UNL     1      41.722  -9.598   8.316  1.00  0.00     0.176 A 
HETATM   16  H   UNL     1      43.127  -8.999   9.817  1.00  0.00     0.168 HD
HETATM   17  S   UNL     1      40.292  -8.999   8.874  1.00  0.00    -0.041 SA
HETATM   18  C   UNL     1      45.999 -10.822   7.303  1.00  0.00     0.119 A 
HETATM   19  F   UNL     1      47.329 -10.934   7.416  1.00  0.00    -0.206 F 
HETATM   20  C   UNL     1      45.371 -11.346   6.159  1.00  0.00     0.061 A 
HETATM   21  H   UNL     1      41.223 -10.498   6.420  1.00  0.00     0.168 HD
ENDBRANCH   5   9
BRANCH   1  22
HETATM   22  C   UNL     1      43.221 -17.322   3.739  1.00  0.00     0.010 A 
HETATM   23  C   UNL     1      42.875 -17.870   2.494  1.00  0.00     0.026 A 
HETATM   24  C   UNL     1      43.154 -19.206   2.181  1.00  0.00     0.038 A 
HETATM   25  C   UNL     1      43.795 -20.013   3.108  1.00  0.00     0.065 A 
HETATM   26  C   UNL     1      44.170 -19.502   4.343  1.00  0.00     0.038 A 
HETATM   27  C   UNL     1      43.885 -18.166   4.647  1.00  0.00     0.026 A 
BRANCH  25  28
HETATM   28  O   UNL     1      44.044 -21.307   2.764  1.00  0.00    -0.361 OA
HETATM   29  H   UNL     1      44.337 -21.786   3.556  1.00  0.00     0.217 HD
ENDBRANCH  25  28
ENDBRANCH   1  22
TORSDOF 3
ENDMDL
MODEL 2
REMARK VINA RESULT:      -9.1      5.665      7.202
REMARK  3 active torsions:
REMARK  status: ('A' for Active; 'I' for Inactive)
REMARK    1  A    between atoms: C_2  and  N_3 
REMARK       I    between atoms: N_6  and  C_7 
REMARK    2  A    between atoms: C_7  and  C_8 
REMARK    3  A    between atoms: C_24  and  O_25 
ROOT
HETATM    1  N   UNL     1      42.666 -16.516   3.248  1.00  0.00    -0.280 NA
HETATM    2  C   UNL     1      41.316 -16.188   3.780  1.00  0.00     0.115 C 
HETATM    3  C   UNL     1      40.892 -14.761   3.385  1.00  0.00     0.141 C 
HETATM    4  N   UNL     1      41.034 -14.518   1.946  1.00  0.00    -0.346 N 
HETATM    5  C   UNL     1      40.215 -13.546   1.375  1.00  0.00     0.256 C 
HETATM    6  O   UNL     1      39.456 -12.838   2.033  1.00  0.00    -0.267 OA
HETATM    7  C   UNL     1      42.372 -14.848   1.431  1.00  0.00     0.141 C 
HETATM    8  C   UNL     1      42.780 -16.288   1.791  1.00  0.00     0.115 C 
ENDROOT
BRANCH   5   9
HETATM    9  C   UNL     1      40.205 -13.389  -0.094  1.00  0.00     0.064 A 
HETATM   10  C   UNL     1      40.658 -12.227  -0.686  1.00  0.00     0.077 A 
HETATM   11  C   UNL     1      40.629 -12.051  -2.073  1.00  0.00     0.065 A 
HETATM   12  N   UNL     1      41.186 -11.061  -0.126  1.00  0.00    -0.330 N 
HETATM   13  N   UNL     1      41.144 -10.789  -2.361  1.00  0.00    -0.331 N 
HETATM   14  C   UNL     1      40.137 -13.008  -2.927  1.00  0.00     0.074 A 
HETATM   15  C   UNL     1      41.476 -10.161  -1.153  1.00  0.00     0.176 A 
HETATM   16  H   UNL     1      41.231 -10.363  -3.272  1.00  0.00     0.168 HD
HETATM   17  S   UNL     1      42.083  -8.639  -0.986  1.00  0.00    -0.041 SA
HETATM   18  C   UNL     1      39.646 -14.170  -2.334  1.00  0.00     0.119 A 
HETATM   19  F   UNL     1      39.136 -15.133  -3.113  1.00  0.00    -0.206 F 
HETATM   20  C   UNL     1      39.662 -14.366  -0.941  1.00  0.00     0.061 A 
HETATM   21  H   UNL     1      41.260 -10.879   0.869  1.00  0.00     0.168 HD
ENDBRANCH   5   9
BRANCH   1  22
HETATM   22  C   UNL     1      43.174 -17.727   3.756  1.00  0.00     0.010 A 
HETATM   23  C   UNL     1      43.382 -17.971   5.122  1.00  0.00     0.026 A 
HETATM   24  C   UNL     1      43.894 -19.193   5.576  1.00  0.00     0.038 A 
HETATM   25  C   UNL     1      44.196 -20.195   4.668  1.00  0.00     0.065 A 
HETATM   26  C   UNL     1      43.987 -19.999   3.310  1.00  0.00     0.038 A 
HETATM   27  C   UNL     1      43.477 -18.774   2.866  1.00  0.00     0.026 A 
BRANCH  25  28
HETATM   28  O   UNL     1      44.695 -21.366   5.152  1.00  0.00    -0.361 OA
HETATM   29  H   UNL     1      44.713 -21.317   6.122  1.00  0.00     0.217 HD
ENDBRANCH  25  28
ENDBRANCH   1  22
TORSDOF 3
ENDMDL
MODEL 3
REMARK VINA RESULT:      -8.9      5.223      6.655
REMARK  3 active torsions:
REMARK  status: ('A' for Active; 'I' for Inactive)
REMARK    1  A    between atoms: C_2  and  N_3 
REMARK       I    between atoms: N_6  and  C_7 
REMARK    2  A    between atoms: C_7  and  C_8 
REMARK    3  A    between atoms: C_24  and  O_25 
ROOT
HETATM    1  N   UNL     1      42.660 -16.301   3.178  1.00  0.00    -0.280 NA
HETATM    2  C   UNL     1      41.252 -16.116   3.622  1.00  0.00     0.115 C 
HETATM    3  C   UNL     1      40.900 -14.622   3.750  1.00  0.00     0.141 C 
HETATM    4  N   UNL     1      41.242 -13.865   2.540  1.00  0.00    -0.346 N 
HETATM    5  C   UNL     1      40.519 -12.702   2.285  1.00  0.00     0.256 C 
HETATM    6  O   UNL     1      39.682 -12.248   3.062  1.00  0.00    -0.267 OA
HETATM    7  C   UNL     1      42.636 -14.059   2.110  1.00  0.00     0.141 C 
HETATM    8  C   UNL     1      42.976 -15.551   1.943  1.00  0.00     0.115 C 
ENDROOT
BRANCH   5   9
HETATM    9  C   UNL     1      40.714 -12.004   0.997  1.00  0.00     0.064 A 
HETATM   10  C   UNL     1      40.269 -12.560  -0.185  1.00  0.00     0.077 A 
HETATM   11  C   UNL     1      40.471 -11.927  -1.415  1.00  0.00     0.065 A 
HETATM   12  N   UNL     1      39.595 -13.759  -0.434  1.00  0.00    -0.330 N 
HETATM   13  N   UNL     1      39.917 -12.728  -2.411  1.00  0.00    -0.331 N 
HETATM   14  C   UNL     1      41.134 -10.730  -1.527  1.00  0.00     0.074 A 
HETATM   15  C   UNL     1      39.386 -13.878  -1.810  1.00  0.00     0.176 A 
HETATM   16  H   UNL     1      39.924 -12.552  -3.405  1.00  0.00     0.168 HD
HETATM   17  S   UNL     1      38.663 -15.135  -2.590  1.00  0.00    -0.041 SA
HETATM   18  C   UNL     1      41.617 -10.179  -0.341  1.00  0.00     0.119 A 
HETATM   19  F   UNL     1      42.289  -9.021  -0.388  1.00  0.00    -0.206 F 
HETATM   20  C   UNL     1      41.429 -10.801   0.906  1.00  0.00     0.061 A 
HETATM   21  H   UNL     1      39.378 -14.458   0.267  1.00  0.00     0.168 HD
ENDBRANCH   5   9
BRANCH   1  22
HETATM   22  C   UNL     1      43.082 -17.643   3.245  1.00  0.00     0.010 A 
HETATM   23  C   UNL     1      43.730 -18.199   4.360  1.00  0.00     0.026 A 
HETATM   24  C   UNL     1      44.134 -19.539   4.376  1.00  0.00     0.038 A 
HETATM   25  C   UNL     1      43.885 -20.349   3.279  1.00  0.00     0.065 A 
HETATM   26  C   UNL     1      43.230 -19.842   2.166  1.00  0.00     0.038 A 
HETATM   27  C   UNL     1      42.831 -18.500   2.159  1.00  0.00     0.026 A 
BRANCH  25  28
HETATM   28  O   UNL     1      44.298 -21.646   3.336  1.00  0.00    -0.361 OA
HETATM   29  H   UNL     1      43.975 -22.037   4.164  1.00  0.00     0.217 HD
ENDBRANCH  25  28
ENDBRANCH   1  22
TORSDOF 3
ENDMDL
MODEL 4
REMARK VINA RESULT:      -8.4      2.633      3.313
REMARK  3 active torsions:
REMARK  status: ('A' for Active; 'I' for Inactive)
REMARK    1  A    between atoms: C_2  and  N_3 
REMARK       I    between atoms: N_6  and  C_7 
REMARK    2  A    between atoms: C_7  and  C_8 
REMARK    3  A    between atoms: C_24  and  O_25 
ROOT
HETATM    1  N   UNL     1      42.523 -16.443   2.918  1.00  0.00    -0.280 NA
HETATM    2  C   UNL     1      43.566 -15.542   2.357  1.00  0.00     0.115 C 
HETATM    3  C   UNL     1      42.981 -14.161   2.008  1.00  0.00     0.141 C 
HETATM    4  N   UNL     1      42.235 -13.575   3.127  1.00  0.00    -0.346 N 
HETATM    5  C   UNL     1      42.135 -12.186   3.175  1.00  0.00     0.256 C 
HETATM    6  O   UNL     1      42.566 -11.452   2.288  1.00  0.00    -0.267 OA
HETATM    7  C   UNL     1      41.208 -14.476   3.675  1.00  0.00     0.141 C 
HETATM    8  C   UNL     1      41.800 -15.842   4.062  1.00  0.00     0.115 C 
ENDROOT
BRANCH   5   9
HETATM    9  C   UNL     1      41.541 -11.550   4.369  1.00  0.00     0.064 A 
HETATM   10  C   UNL     1      42.320 -11.224   5.461  1.00  0.00     0.077 A 
HETATM   11  C   UNL     1      41.769 -10.649   6.609  1.00  0.00     0.065 A 
HETATM   12  N   UNL     1      43.692 -11.377   5.683  1.00  0.00    -0.330 N 
HETATM   13  N   UNL     1      42.797 -10.443   7.527  1.00  0.00    -0.331 N 
HETATM   14  C   UNL     1      40.426 -10.388   6.731  1.00  0.00     0.074 A 
HETATM   15  C   UNL     1      43.993 -10.910   6.964  1.00  0.00     0.176 A 
HETATM   16  H   UNL     1      42.711 -10.064   8.459  1.00  0.00     0.168 HD
HETATM   17  S   UNL     1      45.471 -10.914   7.690  1.00  0.00    -0.041 SA
HETATM   18  C   UNL     1      39.627 -10.746   5.646  1.00  0.00     0.119 A 
HETATM   19  F   UNL     1      38.307 -10.533   5.712  1.00  0.00    -0.206 F 
HETATM   20  C   UNL     1      40.161 -11.329   4.482  1.00  0.00     0.061 A 
HETATM   21  H   UNL     1      44.334 -11.834   5.046  1.00  0.00     0.168 HD
ENDBRANCH   5   9
BRANCH   1  22
HETATM   22  C   UNL     1      42.966 -17.772   3.059  1.00  0.00     0.010 A 
HETATM   23  C   UNL     1      42.816 -18.751   2.065  1.00  0.00     0.026 A 
HETATM   24  C   UNL     1      43.271 -20.061   2.255  1.00  0.00     0.038 A 
HETATM   25  C   UNL     1      43.895 -20.410   3.442  1.00  0.00     0.065 A 
HETATM   26  C   UNL     1      44.079 -19.465   4.442  1.00  0.00     0.038 A 
HETATM   27  C   UNL     1      43.619 -18.159   4.243  1.00  0.00     0.026 A 
BRANCH  25  28
HETATM   28  O   UNL     1      44.319 -21.696   3.587  1.00  0.00    -0.361 OA
HETATM   29  H   UNL     1      44.318 -22.121   2.714  1.00  0.00     0.217 HD
ENDBRANCH  25  28
ENDBRANCH   1  22
TORSDOF 3
ENDMDL
MODEL 5
REMARK VINA RESULT:      -7.7     17.073     18.814
REMARK  3 active torsions:
REMARK  status: ('A' for Active; 'I' for Inactive)
REMARK    1  A    between atoms: C_2  and  N_3 
REMARK       I    between atoms: N_6  and  C_7 
REMARK    2  A    between atoms: C_7  and  C_8 
REMARK    3  A    between atoms: C_24  and  O_25 
ROOT
HETATM    1  N   UNL     1      47.649 -29.624   2.540  1.00  0.00    -0.280 NA
HETATM    2  C   UNL     1      46.326 -30.203   2.897  1.00  0.00     0.115 C 
HETATM    3  C   UNL     1      45.179 -29.443   2.203  1.00  0.00     0.141 C 
HETATM    4  N   UNL     1      45.395 -29.312   0.759  1.00  0.00    -0.346 N 
HETATM    5  C   UNL     1      44.269 -29.169  -0.049  1.00  0.00     0.256 C 
HETATM    6  O   UNL     1      43.130 -29.064   0.401  1.00  0.00    -0.267 OA
HETATM    7  C   UNL     1      46.709 -28.741   0.418  1.00  0.00     0.141 C 
HETATM    8  C   UNL     1      47.857 -29.524   1.079  1.00  0.00     0.115 C 
ENDROOT
BRANCH   5   9
HETATM    9  C   UNL     1      44.430 -29.203  -1.517  1.00  0.00     0.064 A 
HETATM   10  C   UNL     1      44.287 -30.384  -2.219  1.00  0.00     0.077 A 
HETATM   11  C   UNL     1      44.465 -30.439  -3.604  1.00  0.00     0.065 A 
HETATM   12  N   UNL     1      43.980 -31.675  -1.782  1.00  0.00    -0.330 N 
HETATM   13  N   UNL     1      44.259 -31.754  -4.016  1.00  0.00    -0.331 N 
HETATM   14  C   UNL     1      44.805 -29.336  -4.349  1.00  0.00     0.074 A 
HETATM   15  C   UNL     1      43.975 -32.532  -2.885  1.00  0.00     0.176 A 
HETATM   16  H   UNL     1      44.339 -32.115  -4.955  1.00  0.00     0.168 HD
HETATM   17  S   UNL     1      43.699 -34.156  -2.868  1.00  0.00    -0.041 SA
HETATM   18  C   UNL     1      44.984 -28.147  -3.642  1.00  0.00     0.119 A 
HETATM   19  F   UNL     1      45.335 -27.041  -4.310  1.00  0.00    -0.206 F 
HETATM   20  C   UNL     1      44.815 -28.070  -2.248  1.00  0.00     0.061 A 
HETATM   21  H   UNL     1      43.869 -31.947  -0.812  1.00  0.00     0.168 HD
ENDBRANCH   5   9
BRANCH   1  22
HETATM   22  C   UNL     1      48.703 -30.156   3.309  1.00  0.00     0.010 A 
HETATM   23  C   UNL     1      48.510 -30.969   4.437  1.00  0.00     0.026 A 
HETATM   24  C   UNL     1      49.592 -31.469   5.170  1.00  0.00     0.038 A 
HETATM   25  C   UNL     1      50.888 -31.173   4.779  1.00  0.00     0.065 A 
HETATM   26  C   UNL     1      51.120 -30.387   3.658  1.00  0.00     0.038 A 
HETATM   27  C   UNL     1      50.032 -29.890   2.932  1.00  0.00     0.026 A 
BRANCH  25  28
HETATM   28  O   UNL     1      51.911 -31.677   5.523  1.00  0.00    -0.361 OA
HETATM   29  H   UNL     1      52.313 -30.951   6.027  1.00  0.00     0.217 HD
ENDBRANCH  25  28
ENDBRANCH   1  22
TORSDOF 3
ENDMDL
MODEL 6
REMARK VINA RESULT:      -7.6      3.170      3.947
REMARK  3 active torsions:
REMARK  status: ('A' for Active; 'I' for Inactive)
REMARK    1  A    between atoms: C_2  and  N_3 
REMARK       I    between atoms: N_6  and  C_7 
REMARK    2  A    between atoms: C_7  and  C_8 
REMARK    3  A    between atoms: C_24  and  O_25 
ROOT
HETATM    1  N   UNL     1      42.454 -16.095   4.508  1.00  0.00    -0.280 NA
HETATM    2  C   UNL     1      41.100 -16.193   5.116  1.00  0.00     0.115 C 
HETATM    3  C   UNL     1      40.759 -14.928   5.926  1.00  0.00     0.141 C 
HETATM    4  N   UNL     1      40.971 -13.700   5.153  1.00  0.00    -0.346 N 
HETATM    5  C   UNL     1      40.223 -12.579   5.510  1.00  0.00     0.256 C 
HETATM    6  O   UNL     1      39.472 -12.557   6.481  1.00  0.00    -0.267 OA
HETATM    7  C   UNL     1      42.313 -13.615   4.555  1.00  0.00     0.141 C 
HETATM    8  C   UNL     1      42.638 -14.861   3.712  1.00  0.00     0.115 C 
ENDROOT
BRANCH   5   9
HETATM    9  C   UNL     1      40.281 -11.376   4.654  1.00  0.00     0.064 A 
HETATM   10  C   UNL     1      40.790 -10.187   5.136  1.00  0.00     0.077 A 
HETATM   11  C   UNL     1      40.825  -9.033   4.348  1.00  0.00     0.065 A 
HETATM   12  N   UNL     1      41.325  -9.861   6.385  1.00  0.00    -0.330 N 
HETATM   13  N   UNL     1      41.386  -8.007   5.107  1.00  0.00    -0.331 N 
HETATM   14  C   UNL     1      40.345  -9.002   3.061  1.00  0.00     0.074 A 
HETATM   15  C   UNL     1      41.682  -8.511   6.381  1.00  0.00     0.176 A 
HETATM   16  H   UNL     1      41.524  -7.048   4.823  1.00  0.00     0.168 HD
HETATM   17  S   UNL     1      42.323  -7.659   7.637  1.00  0.00    -0.041 SA
HETATM   18  C   UNL     1      39.798 -10.191   2.580  1.00  0.00     0.119 A 
HETATM   19  F   UNL     1      39.297 -10.220   1.338  1.00  0.00    -0.206 F 
HETATM   20  C   UNL     1      39.749 -11.363   3.356  1.00  0.00     0.061 A 
HETATM   21  H   UNL     1      41.360 -10.488   7.181  1.00  0.00     0.168 HD
ENDBRANCH   5   9
BRANCH   1  22
HETATM   22  C   UNL     1      42.884 -17.307   3.932  1.00  0.00     0.010 A 
HETATM   23  C   UNL     1      42.552 -17.709   2.629  1.00  0.00     0.026 A 
HETATM   24  C   UNL     1      43.002 -18.926   2.104  1.00  0.00     0.038 A 
HETATM   25  C   UNL     1      43.802 -19.757   2.873  1.00  0.00     0.065 A 
HETATM   26  C   UNL     1      44.167 -19.385   4.160  1.00  0.00     0.038 A 
HETATM   27  C   UNL     1      43.710 -18.167   4.676  1.00  0.00     0.026 A 
BRANCH  25  28
HETATM   28  O   UNL     1      44.214 -20.933   2.325  1.00  0.00    -0.361 OA
HETATM   29  H   UNL     1      44.378 -21.567   3.042  1.00  0.00     0.217 HD
ENDBRANCH  25  28
ENDBRANCH   1  22
TORSDOF 3
ENDMDL
MODEL 7
REMARK VINA RESULT:      -7.5      3.372      4.592
REMARK  3 active torsions:
REMARK  status: ('A' for Active; 'I' for Inactive)
REMARK    1  A    between atoms: C_2  and  N_3 
REMARK       I    between atoms: N_6  and  C_7 
REMARK    2  A    between atoms: C_7  and  C_8 
REMARK    3  A    between atoms: C_24  and  O_25 
ROOT
HETATM    1  N   UNL     1      42.301 -12.789   2.630  1.00  0.00    -0.280 NA
HETATM    2  C   UNL     1      41.778 -13.674   3.706  1.00  0.00     0.115 C 
HETATM    3  C   UNL     1      42.827 -13.885   4.814  1.00  0.00     0.141 C 
HETATM    4  N   UNL     1      43.376 -12.618   5.307  1.00  0.00    -0.346 N 
HETATM    5  C   UNL     1      43.875 -12.597   6.608  1.00  0.00     0.256 C 
HETATM    6  O   UNL     1      43.950 -13.600   7.313  1.00  0.00    -0.267 OA
HETATM    7  C   UNL     1      43.888 -11.750   4.234  1.00  0.00     0.141 C 
HETATM    8  C   UNL     1      42.826 -11.506   3.147  1.00  0.00     0.115 C 
ENDROOT
BRANCH   5   9
HETATM    9  C   UNL     1      44.280 -11.305   7.200  1.00  0.00     0.064 A 
HETATM   10  C   UNL     1      43.336 -10.394   7.627  1.00  0.00     0.077 A 
HETATM   11  C   UNL     1      43.702  -9.156   8.163  1.00  0.00     0.065 A 
HETATM   12  N   UNL     1      41.940 -10.455   7.624  1.00  0.00    -0.330 N 
HETATM   13  N   UNL     1      42.538  -8.465   8.495  1.00  0.00    -0.331 N 
HETATM   14  C   UNL     1      45.013  -8.763   8.284  1.00  0.00     0.074 A 
HETATM   15  C   UNL     1      41.438  -9.260   8.146  1.00  0.00     0.176 A 
HETATM   16  H   UNL     1      42.473  -7.535   8.880  1.00  0.00     0.168 HD
HETATM   17  S   UNL     1      39.851  -8.849   8.312  1.00  0.00    -0.041 SA
HETATM   18  C   UNL     1      45.971  -9.664   7.823  1.00  0.00     0.119 A 
HETATM   19  F   UNL     1      47.266  -9.331   7.896  1.00  0.00    -0.206 F 
HETATM   20  C   UNL     1      45.625 -10.913   7.277  1.00  0.00     0.061 A 
HETATM   21  H   UNL     1      41.394 -11.210   7.226  1.00  0.00     0.168 HD
ENDBRANCH   5   9
BRANCH   1  22
HETATM   22  C   UNL     1      41.454 -12.736   1.506  1.00  0.00     0.010 A 
HETATM   23  C   UNL     1      41.110 -11.545   0.848  1.00  0.00     0.026 A 
HETATM   24  C   UNL     1      40.260 -11.545  -0.264  1.00  0.00     0.038 A 
HETATM   25  C   UNL     1      39.750 -12.741  -0.744  1.00  0.00     0.065 A 
HETATM   26  C   UNL     1      40.082 -13.941  -0.133  1.00  0.00     0.038 A 
HETATM   27  C   UNL     1      40.931 -13.931   0.980  1.00  0.00     0.026 A 
BRANCH  25  28
HETATM   28  O   UNL     1      38.924 -12.695  -1.826  1.00  0.00    -0.361 OA
HETATM   29  H   UNL     1      38.039 -12.985  -1.552  1.00  0.00     0.217 HD
ENDBRANCH  25  28
ENDBRANCH   1  22
TORSDOF 3
ENDMDL
MODEL 8
REMARK VINA RESULT:      -7.5      3.632      4.530
REMARK  3 active torsions:
REMARK  status: ('A' for Active; 'I' for Inactive)
REMARK    1  A    between atoms: C_2  and  N_3 
REMARK       I    between atoms: N_6  and  C_7 
REMARK    2  A    between atoms: C_7  and  C_8 
REMARK    3  A    between atoms: C_24  and  O_25 
ROOT
HETATM    1  N   UNL     1      42.532 -16.210   4.543  1.00  0.00    -0.280 NA
HETATM    2  C   UNL     1      41.134 -16.270   5.049  1.00  0.00     0.115 C 
HETATM    3  C   UNL     1      40.794 -15.029   5.896  1.00  0.00     0.141 C 
HETATM    4  N   UNL     1      41.118 -13.778   5.203  1.00  0.00    -0.346 N 
HETATM    5  C   UNL     1      40.398 -12.640   5.562  1.00  0.00     0.256 C 
HETATM    6  O   UNL     1      39.579 -12.626   6.478  1.00  0.00    -0.267 OA
HETATM    7  C   UNL     1      42.502 -13.732   4.706  1.00  0.00     0.141 C 
HETATM    8  C   UNL     1      42.830 -14.951   3.826  1.00  0.00     0.115 C 
ENDROOT
BRANCH   5   9
HETATM    9  C   UNL     1      40.574 -11.402   4.774  1.00  0.00     0.064 A 
HETATM   10  C   UNL     1      40.309 -11.380   3.420  1.00  0.00     0.077 A 
HETATM   11  C   UNL     1      40.497 -10.225   2.655  1.00  0.00     0.065 A 
HETATM   12  N   UNL     1      39.852 -12.383   2.561  1.00  0.00    -0.330 N 
HETATM   13  N   UNL     1      40.150 -10.516   1.337  1.00  0.00    -0.331 N 
HETATM   14  C   UNL     1      40.969  -9.053   3.194  1.00  0.00     0.074 A 
HETATM   15  C   UNL     1      39.765 -11.862   1.269  1.00  0.00     0.176 A 
HETATM   16  H   UNL     1      40.201  -9.893   0.545  1.00  0.00     0.168 HD
HETATM   17  S   UNL     1      39.308 -12.672  -0.090  1.00  0.00    -0.041 SA
HETATM   18  C   UNL     1      41.272  -9.078   4.554  1.00  0.00     0.119 A 
HETATM   19  F   UNL     1      41.754  -7.970   5.133  1.00  0.00    -0.206 F 
HETATM   20  C   UNL     1      41.094 -10.229   5.342  1.00  0.00     0.061 A 
HETATM   21  H   UNL     1      39.698 -13.349   2.829  1.00  0.00     0.168 HD
ENDBRANCH   5   9
BRANCH   1  22
HETATM   22  C   UNL     1      42.946 -17.413   3.939  1.00  0.00     0.010 A 
HETATM   23  C   UNL     1      42.621 -17.774   2.623  1.00  0.00     0.026 A 
HETATM   24  C   UNL     1      43.054 -18.985   2.069  1.00  0.00     0.038 A 
HETATM   25  C   UNL     1      43.832 -19.850   2.823  1.00  0.00     0.065 A 
HETATM   26  C   UNL     1      44.190 -19.520   4.122  1.00  0.00     0.038 A 
HETATM   27  C   UNL     1      43.750 -18.308   4.667  1.00  0.00     0.026 A 
BRANCH  25  28
HETATM   28  O   UNL     1      44.229 -21.018   2.246  1.00  0.00    -0.361 OA
HETATM   29  H   UNL     1      44.375 -21.674   2.947  1.00  0.00     0.217 HD
ENDBRANCH  25  28
ENDBRANCH   1  22
TORSDOF 3
ENDMDL
MODEL 9
REMARK VINA RESULT:      -7.4      5.763      7.923
REMARK  3 active torsions:
REMARK  status: ('A' for Active; 'I' for Inactive)
REMARK    1  A    between atoms: C_2  and  N_3 
REMARK       I    between atoms: N_6  and  C_7 
REMARK    2  A    between atoms: C_7  and  C_8 
REMARK    3  A    between atoms: C_24  and  O_25 
ROOT
HETATM    1  N   UNL     1      41.763 -14.195   4.064  1.00  0.00    -0.280 NA
HETATM    2  C   UNL     1      40.354 -13.772   4.283  1.00  0.00     0.115 C 
HETATM    3  C   UNL     1      39.968 -12.613   3.345  1.00  0.00     0.141 C 
HETATM    4  N   UNL     1      40.285 -12.904   1.943  1.00  0.00    -0.346 N 
HETATM    5  C   UNL     1      39.535 -12.254   0.966  1.00  0.00     0.256 C 
HETATM    6  O   UNL     1      38.692 -11.399   1.227  1.00  0.00    -0.267 OA
HETATM    7  C   UNL     1      41.681 -13.324   1.740  1.00  0.00     0.141 C 
HETATM    8  C   UNL     1      42.056 -14.508   2.648  1.00  0.00     0.115 C 
ENDROOT
BRANCH   5   9
HETATM    9  C   UNL     1      39.707 -12.644  -0.449  1.00  0.00     0.064 A 
HETATM   10  C   UNL     1      40.186 -11.744  -1.379  1.00  0.00     0.077 A 
HETATM   11  C   UNL     1      40.327 -12.088  -2.727  1.00  0.00     0.065 A 
HETATM   12  N   UNL     1      40.592 -10.414  -1.240  1.00  0.00    -0.330 N 
HETATM   13  N   UNL     1      40.825 -10.979  -3.408  1.00  0.00    -0.331 N 
HETATM   14  C   UNL     1      39.986 -13.328  -3.211  1.00  0.00     0.074 A 
HETATM   15  C   UNL     1      40.975  -9.929  -2.493  1.00  0.00     0.176 A 
HETATM   16  H   UNL     1      41.011 -10.909  -4.397  1.00  0.00     0.168 HD
HETATM   17  S   UNL     1      41.496  -8.406  -2.840  1.00  0.00    -0.041 SA
HETATM   18  C   UNL     1      39.469 -14.231  -2.283  1.00  0.00     0.119 A 
HETATM   19  F   UNL     1      39.101 -15.450  -2.698  1.00  0.00    -0.206 F 
HETATM   20  C   UNL     1      39.315 -13.904  -0.924  1.00  0.00     0.061 A 
HETATM   21  H   UNL     1      40.531  -9.877  -0.383  1.00  0.00     0.168 HD
ENDBRANCH   5   9
BRANCH   1  22
HETATM   22  C   UNL     1      42.217 -15.108   5.036  1.00  0.00     0.010 A 
HETATM   23  C   UNL     1      41.679 -15.198   6.330  1.00  0.00     0.026 A 
HETATM   24  C   UNL     1      42.169 -16.121   7.261  1.00  0.00     0.038 A 
HETATM   25  C   UNL     1      43.199 -16.978   6.909  1.00  0.00     0.065 A 
HETATM   26  C   UNL     1      43.744 -16.933   5.633  1.00  0.00     0.038 A 
HETATM   27  C   UNL     1      43.249 -16.006   4.709  1.00  0.00     0.026 A 
BRANCH  25  28
HETATM   28  O   UNL     1      43.647 -17.858   7.847  1.00  0.00    -0.361 OA
HETATM   29  H   UNL     1      42.939 -18.005   8.495  1.00  0.00     0.217 HD
ENDBRANCH  25  28
ENDBRANCH   1  22
TORSDOF 3
ENDMDL
MODEL 10
REMARK VINA RESULT:      -7.3      9.356     12.909
REMARK  3 active torsions:
REMARK  status: ('A' for Active; 'I' for Inactive)
REMARK    1  A    between atoms: C_2  and  N_3 
REMARK       I    between atoms: N_6  and  C_7 
REMARK    2  A    between atoms: C_7  and  C_8 
REMARK    3  A    between atoms: C_24  and  O_25 
ROOT
HETATM    1  N   UNL     1      42.222  -8.138  13.261  1.00  0.00    -0.280 NA
HETATM    2  C   UNL     1      42.871  -6.830  13.546  1.00  0.00     0.115 C 
HETATM    3  C   UNL     1      41.992  -5.961  14.465  1.00  0.00     0.141 C 
HETATM    4  N   UNL     1      41.563  -6.682  15.668  1.00  0.00    -0.346 N 
HETATM    5  C   UNL     1      41.263  -5.924  16.799  1.00  0.00     0.256 C 
HETATM    6  O   UNL     1      41.262  -4.696  16.801  1.00  0.00    -0.267 OA
HETATM    7  C   UNL     1      40.925  -7.975  15.372  1.00  0.00     0.141 C 
HETATM    8  C   UNL     1      41.821  -8.860  14.488  1.00  0.00     0.115 C 
ENDROOT
BRANCH   5   9
HETATM    9  C   UNL     1      40.992  -6.617  18.075  1.00  0.00     0.064 A 
HETATM   10  C   UNL     1      41.865  -6.510  19.139  1.00  0.00     0.077 A 
HETATM   11  C   UNL     1      41.637  -7.182  20.344  1.00  0.00     0.065 A 
HETATM   12  N   UNL     1      43.062  -5.801  19.272  1.00  0.00    -0.330 N 
HETATM   13  N   UNL     1      42.684  -6.881  21.213  1.00  0.00    -0.331 N 
HETATM   14  C   UNL     1      40.550  -7.998  20.539  1.00  0.00     0.074 A 
HETATM   15  C   UNL     1      43.583  -6.037  20.546  1.00  0.00     0.176 A 
HETATM   16  H   UNL     1      42.815  -7.233  22.149  1.00  0.00     0.168 HD
HETATM   17  S   UNL     1      44.994  -5.446  21.156  1.00  0.00    -0.041 SA
HETATM   18  C   UNL     1      39.682  -8.139  19.456  1.00  0.00     0.119 A 
HETATM   19  F   UNL     1      38.613  -8.936  19.579  1.00  0.00    -0.206 F 
HETATM   20  C   UNL     1      39.894  -7.475  18.235  1.00  0.00     0.061 A 
HETATM   21  H   UNL     1      43.510  -5.278  18.529  1.00  0.00     0.168 HD
ENDBRANCH   5   9
BRANCH   1  22
HETATM   22  C   UNL     1      42.894  -8.875  12.266  1.00  0.00     0.010 A 
HETATM   23  C   UNL     1      43.071 -10.267  12.317  1.00  0.00     0.026 A 
HETATM   24  C   UNL     1      43.751 -10.954  11.304  1.00  0.00     0.038 A 
HETATM   25  C   UNL     1      44.254 -10.259  10.216  1.00  0.00     0.065 A 
HETATM   26  C   UNL     1      44.082  -8.885  10.120  1.00  0.00     0.038 A 
HETATM   27  C   UNL     1      43.404  -8.207  11.139  1.00  0.00     0.026 A 
BRANCH  25  28
HETATM   28  O   UNL     1      44.911 -10.966   9.255  1.00  0.00    -0.361 OA
HETATM   29  H   UNL     1      44.748 -10.545   8.396  1.00  0.00     0.217 HD
ENDBRANCH  25  28
ENDBRANCH   1  22
TORSDOF 3
ENDMDL
