MODEL 1
REMARK VINA RESULT:     -10.1      0.000      0.000
REMARK  2 active torsions:
REMARK  status: ('A' for Active; 'I' for Inactive)
REMARK    1  A    between atoms: C_4  and  C_5 
REMARK       I    between atoms: N_12  and  C_13 
REMARK    2  A    between atoms: C_13  and  C_14 
ROOT
HETATM    1  C   UNL     1      43.819 -17.194   5.196  1.00  0.00     0.097 A 
HETATM    2  N   UNL     1      44.259 -17.394   6.455  1.00  0.00    -0.173 NA
HETATM    3  N   UNL     1      44.145 -16.202   7.060  1.00  0.00    -0.281 N 
HETATM    4  H   UNL     1      44.410 -16.132   8.037  1.00  0.00     0.189 HD
HETATM    5  C   UNL     1      43.639 -15.247   6.244  1.00  0.00     0.039 A 
HETATM    6  C   UNL     1      43.438 -15.832   5.016  1.00  0.00     0.015 A 
HETATM    7  C   UNL     1      42.872 -15.105   3.847  1.00  0.00     0.169 C 
HETATM    8  N   UNL     1      42.319 -13.794   4.262  1.00  0.00    -0.343 N 
HETATM    9  C   UNL     1      41.537 -13.012   3.404  1.00  0.00     0.254 C 
HETATM   10  O   UNL     1      41.303 -11.821   3.597  1.00  0.00    -0.267 OA
HETATM   11  C   UNL     1      43.060 -13.054   5.310  1.00  0.00     0.132 C 
HETATM   12  C   UNL     1      43.285 -13.860   6.604  1.00  0.00     0.079 C 
ENDROOT
BRANCH   9  13
HETATM   13  C   UNL     1      40.994 -13.602   2.163  1.00  0.00     0.035 A 
HETATM   14  C   UNL     1      41.059 -12.835   0.995  1.00  0.00     0.056 A 
HETATM   15  C   UNL     1      40.546 -13.346  -0.193  1.00  0.00     0.103 A 
HETATM   16  C   UNL     1      39.936 -14.606  -0.209  1.00  0.00     0.102 A 
HETATM   17  O   UNL     1      40.663 -12.552  -1.304  1.00  0.00    -0.346 OA
HETATM   18  O   UNL     1      39.387 -15.156  -1.339  1.00  0.00    -0.346 OA
HETATM   19  C   UNL     1      39.862 -15.366   0.959  1.00  0.00     0.040 A 
HETATM   20  C   UNL     1      39.170 -14.162  -2.347  1.00  0.00     0.202 C 
HETATM   21  C   UNL     1      40.397 -13.281  -2.507  1.00  0.00     0.202 C 
HETATM   22  C   UNL     1      40.376 -14.858   2.155  1.00  0.00     0.020 A 
ENDBRANCH   9  13
BRANCH   1  23
HETATM   23  C   UNL     1      43.736 -18.310   4.250  1.00  0.00    -0.005 A 
HETATM   24  C   UNL     1      44.075 -19.605   4.674  1.00  0.00     0.014 A 
HETATM   25  C   UNL     1      43.969 -20.693   3.805  1.00  0.00     0.001 A 
HETATM   26  C   UNL     1      43.528 -20.499   2.499  1.00  0.00     0.000 A 
HETATM   27  C   UNL     1      43.201 -19.217   2.060  1.00  0.00     0.001 A 
HETATM   28  C   UNL     1      43.309 -18.126   2.929  1.00  0.00     0.014 A 
ENDBRANCH   1  23
TORSDOF 2
ENDMDL
MODEL 2
REMARK VINA RESULT:      -9.3      3.543      6.953
REMARK  2 active torsions:
REMARK  status: ('A' for Active; 'I' for Inactive)
REMARK    1  A    between atoms: C_4  and  C_5 
REMARK       I    between atoms: N_12  and  C_13 
REMARK    2  A    between atoms: C_13  and  C_14 
ROOT
HETATM    1  C   UNL     1      40.899 -15.503   3.538  1.00  0.00     0.097 A 
HETATM    2  N   UNL     1      40.222 -16.008   2.488  1.00  0.00    -0.173 NA
HETATM    3  N   UNL     1      39.531 -14.975   1.985  1.00  0.00    -0.281 N 
HETATM    4  H   UNL     1      38.957 -15.135   1.163  1.00  0.00     0.189 HD
HETATM    5  C   UNL     1      39.745 -13.823   2.662  1.00  0.00     0.039 A 
HETATM    6  C   UNL     1      40.603 -14.117   3.696  1.00  0.00     0.015 A 
HETATM    7  C   UNL     1      41.095 -13.100   4.665  1.00  0.00     0.169 C 
HETATM    8  N   UNL     1      40.763 -11.731   4.203  1.00  0.00    -0.343 N 
HETATM    9  C   UNL     1      41.299 -10.591   4.812  1.00  0.00     0.254 C 
HETATM   10  O   UNL     1      40.842  -9.460   4.656  1.00  0.00    -0.267 OA
HETATM   11  C   UNL     1      39.455 -11.548   3.532  1.00  0.00     0.132 C 
HETATM   12  C   UNL     1      39.234 -12.479   2.325  1.00  0.00     0.079 C 
ENDROOT
BRANCH   9  13
HETATM   13  C   UNL     1      42.439 -10.723   5.744  1.00  0.00     0.035 A 
HETATM   14  C   UNL     1      42.273 -10.243   7.047  1.00  0.00     0.056 A 
HETATM   15  C   UNL     1      43.327 -10.333   7.952  1.00  0.00     0.103 A 
HETATM   16  C   UNL     1      44.555 -10.868   7.547  1.00  0.00     0.102 A 
HETATM   17  O   UNL     1      43.089  -9.866   9.218  1.00  0.00    -0.346 OA
HETATM   18  O   UNL     1      45.640 -10.960   8.381  1.00  0.00    -0.346 OA
HETATM   19  C   UNL     1      44.723 -11.336   6.243  1.00  0.00     0.040 A 
HETATM   20  C   UNL     1      45.487 -10.118   9.528  1.00  0.00     0.202 C 
HETATM   21  C   UNL     1      44.105 -10.284  10.136  1.00  0.00     0.202 C 
HETATM   22  C   UNL     1      43.669 -11.248   5.330  1.00  0.00     0.020 A 
ENDBRANCH   9  13
BRANCH   1  23
HETATM   23  C   UNL     1      41.826 -16.342   4.301  1.00  0.00    -0.005 A 
HETATM   24  C   UNL     1      42.832 -17.054   3.627  1.00  0.00     0.014 A 
HETATM   25  C   UNL     1      43.752 -17.833   4.332  1.00  0.00     0.001 A 
HETATM   26  C   UNL     1      43.676 -17.913   5.720  1.00  0.00     0.000 A 
HETATM   27  C   UNL     1      42.674 -17.223   6.401  1.00  0.00     0.001 A 
HETATM   28  C   UNL     1      41.750 -16.445   5.695  1.00  0.00     0.014 A 
ENDBRANCH   1  23
TORSDOF 2
ENDMDL
MODEL 3
REMARK VINA RESULT:      -9.2      1.122      1.693
REMARK  2 active torsions:
REMARK  status: ('A' for Active; 'I' for Inactive)
REMARK    1  A    between atoms: C_4  and  C_5 
REMARK       I    between atoms: N_12  and  C_13 
REMARK    2  A    between atoms: C_13  and  C_14 
ROOT
HETATM    1  C   UNL     1      43.388 -15.698   5.254  1.00  0.00     0.097 A 
HETATM    2  N   UNL     1      43.662 -15.799   6.570  1.00  0.00    -0.173 NA
HETATM    3  N   UNL     1      43.436 -14.575   7.071  1.00  0.00    -0.281 N 
HETATM    4  H   UNL     1      43.567 -14.432   8.067  1.00  0.00     0.189 HD
HETATM    5  C   UNL     1      43.016 -13.695   6.132  1.00  0.00     0.039 A 
HETATM    6  C   UNL     1      42.995 -14.365   4.932  1.00  0.00     0.015 A 
HETATM    7  C   UNL     1      42.569 -13.736   3.651  1.00  0.00     0.169 C 
HETATM    8  N   UNL     1      41.930 -12.422   3.900  1.00  0.00    -0.343 N 
HETATM    9  C   UNL     1      41.246 -11.728   2.895  1.00  0.00     0.254 C 
HETATM   10  O   UNL     1      40.956 -10.535   2.973  1.00  0.00    -0.267 OA
HETATM   11  C   UNL     1      42.504 -11.589   4.982  1.00  0.00     0.132 C 
HETATM   12  C   UNL     1      42.578 -12.300   6.346  1.00  0.00     0.079 C 
ENDROOT
BRANCH   9  13
HETATM   13  C   UNL     1      40.889 -12.416   1.637  1.00  0.00     0.035 A 
HETATM   14  C   UNL     1      41.146 -11.750   0.435  1.00  0.00     0.056 A 
HETATM   15  C   UNL     1      40.812 -12.357  -0.772  1.00  0.00     0.103 A 
HETATM   16  C   UNL     1      40.188 -13.610  -0.779  1.00  0.00     0.102 A 
HETATM   17  O   UNL     1      41.112 -11.659  -1.913  1.00  0.00    -0.346 OA
HETATM   18  O   UNL     1      39.809 -14.249  -1.931  1.00  0.00    -0.346 OA
HETATM   19  C   UNL     1      39.923 -14.269   0.423  1.00  0.00     0.040 A 
HETATM   20  C   UNL     1      39.767 -13.342  -3.038  1.00  0.00     0.202 C 
HETATM   21  C   UNL     1      41.020 -12.485  -3.079  1.00  0.00     0.202 C 
HETATM   22  C   UNL     1      40.256 -13.665   1.637  1.00  0.00     0.020 A 
ENDBRANCH   9  13
BRANCH   1  23
HETATM   23  C   UNL     1      43.461 -16.875   4.385  1.00  0.00    -0.005 A 
HETATM   24  C   UNL     1      42.767 -16.880   3.165  1.00  0.00     0.014 A 
HETATM   25  C   UNL     1      42.849 -17.973   2.300  1.00  0.00     0.001 A 
HETATM   26  C   UNL     1      43.623 -19.077   2.646  1.00  0.00     0.000 A 
HETATM   27  C   UNL     1      44.307 -19.092   3.860  1.00  0.00     0.001 A 
HETATM   28  C   UNL     1      44.224 -17.998   4.729  1.00  0.00     0.014 A 
ENDBRANCH   1  23
TORSDOF 2
ENDMDL
MODEL 4
REMARK VINA RESULT:      -9.1      2.731      6.784
REMARK  2 active torsions:
REMARK  status: ('A' for Active; 'I' for Inactive)
REMARK    1  A    between atoms: C_4  and  C_5 
REMARK       I    between atoms: N_12  and  C_13 
REMARK    2  A    between atoms: C_13  and  C_14 
ROOT
HETATM    1  C   UNL     1      41.189 -11.634   0.716  1.00  0.00     0.097 A 
HETATM    2  N   UNL     1      41.290 -10.296   0.582  1.00  0.00    -0.173 NA
HETATM    3  N   UNL     1      41.785  -9.862   1.750  1.00  0.00    -0.281 N 
HETATM    4  H   UNL     1      41.959  -8.868   1.858  1.00  0.00     0.189 HD
HETATM    5  C   UNL     1      42.018 -10.867   2.626  1.00  0.00     0.039 A 
HETATM    6  C   UNL     1      41.622 -12.034   2.015  1.00  0.00     0.015 A 
HETATM    7  C   UNL     1      41.735 -13.372   2.656  1.00  0.00     0.169 C 
HETATM    8  N   UNL     1      42.563 -13.297   3.884  1.00  0.00    -0.343 N 
HETATM    9  C   UNL     1      43.007 -14.444   4.551  1.00  0.00     0.254 C 
HETATM   10  O   UNL     1      43.440 -14.434   5.702  1.00  0.00    -0.267 OA
HETATM   11  C   UNL     1      42.416 -12.082   4.719  1.00  0.00     0.132 C 
HETATM   12  C   UNL     1      42.652 -10.765   3.956  1.00  0.00     0.079 C 
ENDROOT
BRANCH   9  13
HETATM   13  C   UNL     1      42.912 -15.762   3.890  1.00  0.00     0.035 A 
HETATM   14  C   UNL     1      43.663 -16.814   4.425  1.00  0.00     0.056 A 
HETATM   15  C   UNL     1      43.614 -18.069   3.824  1.00  0.00     0.103 A 
HETATM   16  C   UNL     1      42.847 -18.264   2.669  1.00  0.00     0.102 A 
HETATM   17  O   UNL     1      44.355 -19.060   4.412  1.00  0.00    -0.346 OA
HETATM   18  O   UNL     1      42.778 -19.466   2.013  1.00  0.00    -0.346 OA
HETATM   19  C   UNL     1      42.107 -17.210   2.130  1.00  0.00     0.040 A 
HETATM   20  C   UNL     1      43.847 -20.334   2.405  1.00  0.00     0.202 C 
HETATM   21  C   UNL     1      43.997 -20.354   3.917  1.00  0.00     0.202 C 
HETATM   22  C   UNL     1      42.152 -15.949   2.730  1.00  0.00     0.020 A 
ENDBRANCH   9  13
BRANCH   1  23
HETATM   23  C   UNL     1      40.740 -12.464  -0.404  1.00  0.00    -0.005 A 
HETATM   24  C   UNL     1      41.082 -12.102  -1.717  1.00  0.00     0.014 A 
HETATM   25  C   UNL     1      40.699 -12.894  -2.801  1.00  0.00     0.001 A 
HETATM   26  C   UNL     1      39.965 -14.057  -2.587  1.00  0.00     0.000 A 
HETATM   27  C   UNL     1      39.605 -14.422  -1.290  1.00  0.00     0.001 A 
HETATM   28  C   UNL     1      39.987 -13.628  -0.203  1.00  0.00     0.014 A 
ENDBRANCH   1  23
TORSDOF 2
ENDMDL
MODEL 5
REMARK VINA RESULT:      -8.7      3.153      7.141
REMARK  2 active torsions:
REMARK  status: ('A' for Active; 'I' for Inactive)
REMARK    1  A    between atoms: C_4  and  C_5 
REMARK       I    between atoms: N_12  and  C_13 
REMARK    2  A    between atoms: C_13  and  C_14 
ROOT
HETATM    1  C   UNL     1      42.022 -10.562   4.939  1.00  0.00     0.097 A 
HETATM    2  N   UNL     1      41.420  -9.361   4.837  1.00  0.00    -0.173 NA
HETATM    3  N   UNL     1      40.407  -9.546   3.977  1.00  0.00    -0.281 N 
HETATM    4  H   UNL     1      39.803  -8.758   3.768  1.00  0.00     0.189 HD
HETATM    5  C   UNL     1      40.327 -10.822   3.531  1.00  0.00     0.039 A 
HETATM    6  C   UNL     1      41.369 -11.515   4.102  1.00  0.00     0.015 A 
HETATM    7  C   UNL     1      41.613 -12.965   3.868  1.00  0.00     0.169 C 
HETATM    8  N   UNL     1      40.455 -13.587   3.184  1.00  0.00    -0.343 N 
HETATM    9  C   UNL     1      40.333 -14.975   3.044  1.00  0.00     0.254 C 
HETATM   10  O   UNL     1      39.559 -15.511   2.254  1.00  0.00    -0.267 OA
HETATM   11  C   UNL     1      39.765 -12.774   2.155  1.00  0.00     0.132 C 
HETATM   12  C   UNL     1      39.283 -11.402   2.663  1.00  0.00     0.079 C 
ENDROOT
BRANCH   9  13
HETATM   13  C   UNL     1      41.206 -15.872   3.830  1.00  0.00     0.035 A 
HETATM   14  C   UNL     1      42.067 -16.721   3.128  1.00  0.00     0.056 A 
HETATM   15  C   UNL     1      42.895 -17.593   3.830  1.00  0.00     0.103 A 
HETATM   16  C   UNL     1      42.837 -17.644   5.227  1.00  0.00     0.102 A 
HETATM   17  O   UNL     1      43.731 -18.380   3.081  1.00  0.00    -0.346 OA
HETATM   18  O   UNL     1      43.605 -18.498   5.976  1.00  0.00    -0.346 OA
HETATM   19  C   UNL     1      41.969 -16.803   5.926  1.00  0.00     0.040 A 
HETATM   20  C   UNL     1      44.145 -19.552   5.170  1.00  0.00     0.202 C 
HETATM   21  C   UNL     1      44.740 -18.997   3.887  1.00  0.00     0.202 C 
HETATM   22  C   UNL     1      41.136 -15.926   5.228  1.00  0.00     0.020 A 
ENDBRANCH   9  13
BRANCH   1  23
HETATM   23  C   UNL     1      43.147 -10.757   5.857  1.00  0.00    -0.005 A 
HETATM   24  C   UNL     1      43.027 -10.351   7.196  1.00  0.00     0.014 A 
HETATM   25  C   UNL     1      44.069 -10.557   8.103  1.00  0.00     0.001 A 
HETATM   26  C   UNL     1      45.246 -11.169   7.681  1.00  0.00     0.000 A 
HETATM   27  C   UNL     1      45.385 -11.565   6.351  1.00  0.00     0.001 A 
HETATM   28  C   UNL     1      44.342 -11.356   5.442  1.00  0.00     0.014 A 
ENDBRANCH   1  23
TORSDOF 2
ENDMDL
MODEL 6
REMARK VINA RESULT:      -8.7      2.501      3.758
REMARK  2 active torsions:
REMARK  status: ('A' for Active; 'I' for Inactive)
REMARK    1  A    between atoms: C_4  and  C_5 
REMARK       I    between atoms: N_12  and  C_13 
REMARK    2  A    between atoms: C_13  and  C_14 
ROOT
HETATM    1  C   UNL     1      42.363 -13.545   4.236  1.00  0.00     0.097 A 
HETATM    2  N   UNL     1      42.448 -13.481   5.580  1.00  0.00    -0.173 NA
HETATM    3  N   UNL     1      42.035 -12.246   5.900  1.00  0.00    -0.281 N 
HETATM    4  H   UNL     1      42.003 -11.988   6.881  1.00  0.00     0.189 HD
HETATM    5  C   UNL     1      41.675 -11.518   4.817  1.00  0.00     0.039 A 
HETATM    6  C   UNL     1      41.896 -12.305   3.711  1.00  0.00     0.015 A 
HETATM    7  C   UNL     1      41.605 -11.861   2.320  1.00  0.00     0.169 C 
HETATM    8  N   UNL     1      40.813 -10.608   2.325  1.00  0.00    -0.343 N 
HETATM    9  C   UNL     1      40.221 -10.099   1.163  1.00  0.00     0.254 C 
HETATM   10  O   UNL     1      39.809  -8.945   1.061  1.00  0.00    -0.267 OA
HETATM   11  C   UNL     1      41.139  -9.610   3.370  1.00  0.00     0.132 C 
HETATM   12  C   UNL     1      41.079 -10.166   4.806  1.00  0.00     0.079 C 
ENDROOT
BRANCH   9  13
HETATM   13  C   UNL     1      40.121 -10.947  -0.043  1.00  0.00     0.035 A 
HETATM   14  C   UNL     1      38.918 -11.626  -0.264  1.00  0.00     0.056 A 
HETATM   15  C   UNL     1      38.787 -12.448  -1.380  1.00  0.00     0.103 A 
HETATM   16  C   UNL     1      39.867 -12.621  -2.254  1.00  0.00     0.102 A 
HETATM   17  O   UNL     1      37.575 -13.065  -1.548  1.00  0.00    -0.346 OA
HETATM   18  O   UNL     1      39.813 -13.437  -3.354  1.00  0.00    -0.346 OA
HETATM   19  C   UNL     1      41.070 -11.952  -2.026  1.00  0.00     0.040 A 
HETATM   20  C   UNL     1      38.711 -14.348  -3.272  1.00  0.00     0.202 C 
HETATM   21  C   UNL     1      37.442 -13.621  -2.860  1.00  0.00     0.202 C 
HETATM   22  C   UNL     1      41.207 -11.125  -0.908  1.00  0.00     0.020 A 
ENDBRANCH   9  13
BRANCH   1  23
HETATM   23  C   UNL     1      42.676 -14.789   3.528  1.00  0.00    -0.005 A 
HETATM   24  C   UNL     1      42.423 -16.023   4.149  1.00  0.00     0.014 A 
HETATM   25  C   UNL     1      42.677 -17.224   3.483  1.00  0.00     0.001 A 
HETATM   26  C   UNL     1      43.192 -17.207   2.190  1.00  0.00     0.000 A 
HETATM   27  C   UNL     1      43.461 -15.989   1.566  1.00  0.00     0.001 A 
HETATM   28  C   UNL     1      43.209 -14.785   2.233  1.00  0.00     0.014 A 
ENDBRANCH   1  23
TORSDOF 2
ENDMDL
MODEL 7
REMARK VINA RESULT:      -8.5     14.346     16.232
REMARK  2 active torsions:
REMARK  status: ('A' for Active; 'I' for Inactive)
REMARK    1  A    between atoms: C_4  and  C_5 
REMARK       I    between atoms: N_12  and  C_13 
REMARK    2  A    between atoms: C_13  and  C_14 
ROOT
HETATM    1  C   UNL     1      49.185 -30.478   1.347  1.00  0.00     0.097 A 
HETATM    2  N   UNL     1      49.659 -30.813   2.564  1.00  0.00    -0.173 NA
HETATM    3  N   UNL     1      48.634 -30.619   3.407  1.00  0.00    -0.281 N 
HETATM    4  H   UNL     1      48.771 -30.831   4.389  1.00  0.00     0.189 HD
HETATM    5  C   UNL     1      47.516 -30.183   2.778  1.00  0.00     0.039 A 
HETATM    6  C   UNL     1      47.829 -30.049   1.446  1.00  0.00     0.015 A 
HETATM    7  C   UNL     1      46.850 -29.603   0.417  1.00  0.00     0.169 C 
HETATM    8  N   UNL     1      45.475 -29.599   0.969  1.00  0.00    -0.343 N 
HETATM    9  C   UNL     1      44.348 -29.435   0.154  1.00  0.00     0.254 C 
HETATM   10  O   UNL     1      43.235 -29.142   0.587  1.00  0.00    -0.267 OA
HETATM   11  C   UNL     1      45.318 -29.170   2.378  1.00  0.00     0.132 C 
HETATM   12  C   UNL     1      46.182 -29.967   3.374  1.00  0.00     0.079 C 
ENDROOT
BRANCH   9  13
HETATM   13  C   UNL     1      44.478 -29.554  -1.313  1.00  0.00     0.035 A 
HETATM   14  C   UNL     1      44.338 -30.827  -1.877  1.00  0.00     0.056 A 
HETATM   15  C   UNL     1      44.469 -30.986  -3.254  1.00  0.00     0.103 A 
HETATM   16  C   UNL     1      44.775 -29.885  -4.062  1.00  0.00     0.102 A 
HETATM   17  O   UNL     1      44.296 -32.255  -3.743  1.00  0.00    -0.346 OA
HETATM   18  O   UNL     1      44.944 -29.979  -5.419  1.00  0.00    -0.346 OA
HETATM   19  C   UNL     1      44.926 -28.618  -3.496  1.00  0.00     0.040 A 
HETATM   20  C   UNL     1      45.154 -31.337  -5.824  1.00  0.00     0.202 C 
HETATM   21  C   UNL     1      44.141 -32.257  -5.166  1.00  0.00     0.202 C 
HETATM   22  C   UNL     1      44.795 -28.452  -2.115  1.00  0.00     0.020 A 
ENDBRANCH   9  13
BRANCH   1  23
HETATM   23  C   UNL     1      50.022 -30.632   0.154  1.00  0.00    -0.005 A 
HETATM   24  C   UNL     1      51.146 -31.471   0.199  1.00  0.00     0.014 A 
HETATM   25  C   UNL     1      51.940 -31.665  -0.934  1.00  0.00     0.001 A 
HETATM   26  C   UNL     1      51.622 -31.018  -2.125  1.00  0.00     0.000 A 
HETATM   27  C   UNL     1      50.516 -30.170  -2.180  1.00  0.00     0.001 A 
HETATM   28  C   UNL     1      49.722 -29.974  -1.045  1.00  0.00     0.014 A 
ENDBRANCH   1  23
TORSDOF 2
ENDMDL
MODEL 8
REMARK VINA RESULT:      -8.2      3.055      7.139
REMARK  2 active torsions:
REMARK  status: ('A' for Active; 'I' for Inactive)
REMARK    1  A    between atoms: C_4  and  C_5 
REMARK       I    between atoms: N_12  and  C_13 
REMARK    2  A    between atoms: C_13  and  C_14 
ROOT
HETATM    1  C   UNL     1      38.748 -11.645   0.842  1.00  0.00     0.097 A 
HETATM    2  N   UNL     1      38.352 -10.359   0.762  1.00  0.00    -0.173 NA
HETATM    3  N   UNL     1      38.403  -9.896   2.020  1.00  0.00    -0.281 N 
HETATM    4  H   UNL     1      38.158  -8.926   2.186  1.00  0.00     0.189 HD
HETATM    5  C   UNL     1      38.828 -10.830   2.904  1.00  0.00     0.039 A 
HETATM    6  C   UNL     1      39.038 -11.990   2.195  1.00  0.00     0.015 A 
HETATM    7  C   UNL     1      39.528 -13.251   2.817  1.00  0.00     0.169 C 
HETATM    8  N   UNL     1      40.005 -13.003   4.198  1.00  0.00    -0.343 N 
HETATM    9  C   UNL     1      40.715 -13.967   4.923  1.00  0.00     0.254 C 
HETATM   10  O   UNL     1      40.876 -13.918   6.140  1.00  0.00    -0.267 OA
HETATM   11  C   UNL     1      39.243 -12.023   5.007  1.00  0.00     0.132 C 
HETATM   12  C   UNL     1      39.100 -10.640   4.343  1.00  0.00     0.079 C 
ENDROOT
BRANCH   9  13
HETATM   13  C   UNL     1      41.265 -15.151   4.228  1.00  0.00     0.035 A 
HETATM   14  C   UNL     1      42.287 -15.862   4.865  1.00  0.00     0.056 A 
HETATM   15  C   UNL     1      42.844 -16.974   4.239  1.00  0.00     0.103 A 
HETATM   16  C   UNL     1      42.407 -17.353   2.964  1.00  0.00     0.102 A 
HETATM   17  O   UNL     1      43.825 -17.639   4.927  1.00  0.00    -0.346 OA
HETATM   18  O   UNL     1      42.932 -18.421   2.282  1.00  0.00    -0.346 OA
HETATM   19  C   UNL     1      41.394 -16.635   2.326  1.00  0.00     0.040 A 
HETATM   20  C   UNL     1      44.188 -18.825   2.837  1.00  0.00     0.202 C 
HETATM   21  C   UNL     1      44.102 -18.919   4.351  1.00  0.00     0.202 C 
HETATM   22  C   UNL     1      40.831 -15.519   2.949  1.00  0.00     0.020 A 
ENDBRANCH   9  13
BRANCH   1  23
HETATM   23  C   UNL     1      38.881 -12.461  -0.368  1.00  0.00    -0.005 A 
HETATM   24  C   UNL     1      37.853 -12.455  -1.324  1.00  0.00     0.014 A 
HETATM   25  C   UNL     1      37.969 -13.194  -2.504  1.00  0.00     0.001 A 
HETATM   26  C   UNL     1      39.112 -13.952  -2.740  1.00  0.00     0.000 A 
HETATM   27  C   UNL     1      40.135 -13.979  -1.792  1.00  0.00     0.001 A 
HETATM   28  C   UNL     1      40.018 -13.241  -0.609  1.00  0.00     0.014 A 
ENDBRANCH   1  23
TORSDOF 2
ENDMDL
MODEL 9
REMARK VINA RESULT:      -8.2     14.717     17.442
REMARK  2 active torsions:
REMARK  status: ('A' for Active; 'I' for Inactive)
REMARK    1  A    between atoms: C_4  and  C_5 
REMARK       I    between atoms: N_12  and  C_13 
REMARK    2  A    between atoms: C_13  and  C_14 
ROOT
HETATM    1  C   UNL     1      44.307 -29.762  -0.534  1.00  0.00     0.097 A 
HETATM    2  N   UNL     1      43.208 -29.187  -0.008  1.00  0.00    -0.173 NA
HETATM    3  N   UNL     1      43.538 -28.889   1.258  1.00  0.00    -0.281 N 
HETATM    4  H   UNL     1      42.847 -28.425   1.839  1.00  0.00     0.189 HD
HETATM    5  C   UNL     1      44.810 -29.239   1.563  1.00  0.00     0.039 A 
HETATM    6  C   UNL     1      45.343 -29.835   0.443  1.00  0.00     0.015 A 
HETATM    7  C   UNL     1      46.740 -30.345   0.376  1.00  0.00     0.169 C 
HETATM    8  N   UNL     1      47.525 -29.882   1.545  1.00  0.00    -0.343 N 
HETATM    9  C   UNL     1      48.914 -30.034   1.614  1.00  0.00     0.254 C 
HETATM   10  O   UNL     1      49.557 -29.932   2.657  1.00  0.00    -0.267 OA
HETATM   11  C   UNL     1      46.819 -29.819   2.846  1.00  0.00     0.132 C 
HETATM   12  C   UNL     1      45.535 -28.968   2.820  1.00  0.00     0.079 C 
ENDROOT
BRANCH   9  13
HETATM   13  C   UNL     1      49.675 -30.395   0.400  1.00  0.00     0.035 A 
HETATM   14  C   UNL     1      50.659 -31.383   0.517  1.00  0.00     0.056 A 
HETATM   15  C   UNL     1      51.409 -31.742  -0.599  1.00  0.00     0.103 A 
HETATM   16  C   UNL     1      51.204 -31.091  -1.821  1.00  0.00     0.102 A 
HETATM   17  O   UNL     1      52.340 -32.732  -0.419  1.00  0.00    -0.346 OA
HETATM   18  O   UNL     1      51.928 -31.378  -2.950  1.00  0.00    -0.346 OA
HETATM   19  C   UNL     1      50.230 -30.098  -1.934  1.00  0.00     0.040 A 
HETATM   20  C   UNL     1      53.123 -32.100  -2.631  1.00  0.00     0.202 C 
HETATM   21  C   UNL     1      52.825 -33.235  -1.668  1.00  0.00     0.202 C 
HETATM   22  C   UNL     1      49.474 -29.734  -0.818  1.00  0.00     0.020 A 
ENDBRANCH   9  13
BRANCH   1  23
HETATM   23  C   UNL     1      44.337 -30.164  -1.943  1.00  0.00    -0.005 A 
HETATM   24  C   UNL     1      44.325 -31.528  -2.275  1.00  0.00     0.014 A 
HETATM   25  C   UNL     1      44.315 -31.939  -3.610  1.00  0.00     0.001 A 
HETATM   26  C   UNL     1      44.321 -30.991  -4.629  1.00  0.00     0.000 A 
HETATM   27  C   UNL     1      44.347 -29.632  -4.314  1.00  0.00     0.001 A 
HETATM   28  C   UNL     1      44.359 -29.220  -2.977  1.00  0.00     0.014 A 
ENDBRANCH   1  23
TORSDOF 2
ENDMDL
MODEL 10
REMARK VINA RESULT:      -8.2     14.521     16.359
REMARK  2 active torsions:
REMARK  status: ('A' for Active; 'I' for Inactive)
REMARK    1  A    between atoms: C_4  and  C_5 
REMARK       I    between atoms: N_12  and  C_13 
REMARK    2  A    between atoms: C_13  and  C_14 
ROOT
HETATM    1  C   UNL     1      48.014 -29.615  -1.589  1.00  0.00     0.097 A 
HETATM    2  N   UNL     1      49.278 -29.770  -2.033  1.00  0.00    -0.173 NA
HETATM    3  N   UNL     1      50.016 -29.966  -0.930  1.00  0.00    -0.281 N 
HETATM    4  H   UNL     1      51.012 -30.125  -1.040  1.00  0.00     0.189 HD
HETATM    5  C   UNL     1      49.276 -29.954   0.204  1.00  0.00     0.039 A 
HETATM    6  C   UNL     1      47.976 -29.702  -0.166  1.00  0.00     0.015 A 
HETATM    7  C   UNL     1      46.849 -29.628   0.804  1.00  0.00     0.169 C 
HETATM    8  N   UNL     1      47.271 -30.123   2.136  1.00  0.00    -0.343 N 
HETATM    9  C   UNL     1      46.352 -30.367   3.163  1.00  0.00     0.254 C 
HETATM   10  O   UNL     1      46.672 -30.498   4.343  1.00  0.00    -0.267 OA
HETATM   11  C   UNL     1      48.649 -29.795   2.570  1.00  0.00     0.132 C 
HETATM   12  C   UNL     1      49.740 -30.238   1.577  1.00  0.00     0.079 C 
ENDROOT
BRANCH   9  13
HETATM   13  C   UNL     1      44.906 -30.416   2.859  1.00  0.00     0.035 A 
HETATM   14  C   UNL     1      44.306 -31.675   2.755  1.00  0.00     0.056 A 
HETATM   15  C   UNL     1      42.950 -31.767   2.455  1.00  0.00     0.103 A 
HETATM   16  C   UNL     1      42.202 -30.606   2.223  1.00  0.00     0.102 A 
HETATM   17  O   UNL     1      42.420 -33.030   2.391  1.00  0.00    -0.346 OA
HETATM   18  O   UNL     1      40.871 -30.629   1.897  1.00  0.00    -0.346 OA
HETATM   19  C   UNL     1      42.806 -29.352   2.317  1.00  0.00     0.040 A 
HETATM   20  C   UNL     1      40.467 -31.929   1.453  1.00  0.00     0.202 C 
HETATM   21  C   UNL     1      40.989 -33.004   2.390  1.00  0.00     0.202 C 
HETATM   22  C   UNL     1      44.166 -29.253   2.618  1.00  0.00     0.020 A 
ENDBRANCH   9  13
BRANCH   1  23
HETATM   23  C   UNL     1      46.908 -29.445  -2.534  1.00  0.00    -0.005 A 
HETATM   24  C   UNL     1      46.507 -30.527  -3.334  1.00  0.00     0.014 A 
HETATM   25  C   UNL     1      45.431 -30.405  -4.217  1.00  0.00     0.001 A 
HETATM   26  C   UNL     1      44.747 -29.197  -4.314  1.00  0.00     0.000 A 
HETATM   27  C   UNL     1      45.143 -28.109  -3.537  1.00  0.00     0.001 A 
HETATM   28  C   UNL     1      46.221 -28.231  -2.654  1.00  0.00     0.014 A 
ENDBRANCH   1  23
TORSDOF 2
ENDMDL
