MODEL 1
REMARK VINA RESULT:      -9.4      0.000      0.000
REMARK  2 active torsions:
REMARK  status: ('A' for Active; 'I' for Inactive)
REMARK    1  A    between atoms: C_9  and  C_10 
REMARK       I    between atoms: C_10  and  N_11 
REMARK    2  A    between atoms: N_11  and  C_12 
ROOT
HETATM    1  C   UNL     1      41.323 -16.011   4.202  1.00  0.00     0.267 C 
HETATM    2  N   UNL     1      40.264 -15.681   3.408  1.00  0.00    -0.156 N 
HETATM    3  O   UNL     1      41.043 -16.542   5.281  1.00  0.00    -0.270 OA
HETATM    4  H   UNL     1      39.368 -15.924   3.820  1.00  0.00     0.187 HD
ENDROOT
BRANCH   1   5
HETATM    5  C   UNL     1      42.802 -15.809   3.776  1.00  0.00     0.282 C 
HETATM    6  N   UNL     1      43.841 -15.979   4.860  1.00  0.00    -0.058 N 
HETATM    7  C   UNL     1      43.837 -17.318   5.489  1.00  0.00     0.272 C 
HETATM    8  H   UNL     1      44.772 -15.771   4.487  1.00  0.00     0.278 HD
HETATM    9  H   UNL     1      43.651 -15.256   5.580  1.00  0.00     0.278 HD
HETATM   10  C   UNL     1      43.790 -18.428   4.481  1.00  0.00    -0.026 A 
HETATM   11  C   UNL     1      43.454 -18.182   3.134  1.00  0.00    -0.048 A 
HETATM   12  C   UNL     1      44.026 -19.744   4.907  1.00  0.00     0.009 A 
HETATM   13  C   UNL     1      43.390 -19.254   2.233  1.00  0.00     0.008 A 
HETATM   14  C   UNL     1      43.194 -16.773   2.637  1.00  0.00     0.082 C 
HETATM   15  C   UNL     1      43.629 -20.557   2.670  1.00  0.00     0.001 A 
HETATM   16  C   UNL     1      43.946 -20.803   4.003  1.00  0.00     0.001 A 
ENDBRANCH   1   5
BRANCH   2  17
HETATM   17  C   UNL     1      40.286 -15.057   2.194  1.00  0.00     0.708 A 
HETATM   18  N   UNL     1      40.672 -13.829   1.924  1.00  0.00    -0.062 NA
HETATM   19  C   UNL     1      40.413 -13.650   0.579  1.00  0.00     0.103 A 
HETATM   20  C   UNL     1      39.846 -14.793   0.032  1.00  0.00     0.078 A 
HETATM   21  C   UNL     1      40.609 -12.523  -0.231  1.00  0.00     0.034 A 
HETATM   22  N   UNL     1      39.813 -15.688   1.070  1.00  0.00    -0.188 N 
HETATM   23  C   UNL     1      39.438 -14.887  -1.299  1.00  0.00     0.032 A 
HETATM   24  H   UNL     1      39.460 -16.633   1.016  1.00  0.00     0.184 HD
HETATM   25  C   UNL     1      39.628 -13.750  -2.091  1.00  0.00     0.002 A 
HETATM   26  C   UNL     1      40.207 -12.590  -1.571  1.00  0.00     0.002 A 
ENDBRANCH   2  17
TORSDOF 2
ENDMDL
MODEL 2
REMARK VINA RESULT:      -8.7      1.792      7.243
REMARK  2 active torsions:
REMARK  status: ('A' for Active; 'I' for Inactive)
REMARK    1  A    between atoms: C_9  and  C_10 
REMARK       I    between atoms: C_10  and  N_11 
REMARK    2  A    between atoms: N_11  and  C_12 
ROOT
HETATM    1  C   UNL     1      39.737 -13.518   2.424  1.00  0.00     0.267 C 
HETATM    2  N   UNL     1      39.887 -14.622   3.212  1.00  0.00    -0.156 N 
HETATM    3  O   UNL     1      38.699 -12.871   2.596  1.00  0.00    -0.270 OA
HETATM    4  H   UNL     1      39.108 -14.764   3.849  1.00  0.00     0.187 HD
ENDROOT
BRANCH   1   5
HETATM    5  C   UNL     1      40.815 -13.040   1.415  1.00  0.00     0.282 C 
HETATM    6  N   UNL     1      41.281 -14.057   0.400  1.00  0.00    -0.058 N 
HETATM    7  C   UNL     1      40.199 -14.580  -0.464  1.00  0.00     0.272 C 
HETATM    8  H   UNL     1      42.026 -13.658  -0.177  1.00  0.00     0.278 HD
HETATM    9  H   UNL     1      41.713 -14.840   0.929  1.00  0.00     0.278 HD
HETATM   10  C   UNL     1      39.326 -13.494  -1.016  1.00  0.00    -0.026 A 
HETATM   11  C   UNL     1      39.358 -12.186  -0.487  1.00  0.00    -0.048 A 
HETATM   12  C   UNL     1      38.416 -13.804  -2.038  1.00  0.00     0.009 A 
HETATM   13  C   UNL     1      38.502 -11.209  -1.012  1.00  0.00     0.008 A 
HETATM   14  C   UNL     1      40.330 -11.813   0.616  1.00  0.00     0.082 C 
HETATM   15  C   UNL     1      37.604 -11.533  -2.029  1.00  0.00     0.001 A 
HETATM   16  C   UNL     1      37.559 -12.826  -2.541  1.00  0.00     0.001 A 
ENDBRANCH   1   5
BRANCH   2  17
HETATM   17  C   UNL     1      40.909 -15.527   3.205  1.00  0.00     0.708 A 
HETATM   18  N   UNL     1      41.156 -16.458   2.310  1.00  0.00    -0.062 NA
HETATM   19  C   UNL     1      42.235 -17.165   2.805  1.00  0.00     0.103 A 
HETATM   20  C   UNL     1      42.637 -16.653   4.031  1.00  0.00     0.078 A 
HETATM   21  C   UNL     1      42.903 -18.276   2.271  1.00  0.00     0.034 A 
HETATM   22  N   UNL     1      41.804 -15.586   4.245  1.00  0.00    -0.188 N 
HETATM   23  C   UNL     1      43.676 -17.195   4.787  1.00  0.00     0.032 A 
HETATM   24  H   UNL     1      41.825 -14.980   5.053  1.00  0.00     0.184 HD
HETATM   25  C   UNL     1      44.324 -18.311   4.247  1.00  0.00     0.002 A 
HETATM   26  C   UNL     1      43.949 -18.842   3.010  1.00  0.00     0.002 A 
ENDBRANCH   2  17
TORSDOF 2
ENDMDL
MODEL 3
REMARK VINA RESULT:      -8.7      1.765      3.087
REMARK  2 active torsions:
REMARK  status: ('A' for Active; 'I' for Inactive)
REMARK    1  A    between atoms: C_9  and  C_10 
REMARK       I    between atoms: C_10  and  N_11 
REMARK    2  A    between atoms: N_11  and  C_12 
ROOT
HETATM    1  C   UNL     1      41.605 -13.800   2.783  1.00  0.00     0.267 C 
HETATM    2  N   UNL     1      41.485 -13.127   1.602  1.00  0.00    -0.156 N 
HETATM    3  O   UNL     1      42.529 -13.437   3.517  1.00  0.00    -0.270 OA
HETATM    4  H   UNL     1      42.185 -12.401   1.486  1.00  0.00     0.187 HD
ENDROOT
BRANCH   1   5
HETATM    5  C   UNL     1      40.619 -14.910   3.234  1.00  0.00     0.282 C 
HETATM    6  N   UNL     1      40.451 -16.080   2.292  1.00  0.00    -0.058 N 
HETATM    7  C   UNL     1      41.706 -16.815   2.020  1.00  0.00     0.272 C 
HETATM    8  H   UNL     1      39.742 -16.723   2.657  1.00  0.00     0.278 HD
HETATM    9  H   UNL     1      40.068 -15.704   1.403  1.00  0.00     0.278 HD
HETATM   10  C   UNL     1      42.480 -17.117   3.268  1.00  0.00    -0.026 A 
HETATM   11  C   UNL     1      42.185 -16.474   4.489  1.00  0.00    -0.048 A 
HETATM   12  C   UNL     1      43.557 -18.013   3.202  1.00  0.00     0.009 A 
HETATM   13  C   UNL     1      42.954 -16.762   5.623  1.00  0.00     0.008 A 
HETATM   14  C   UNL     1      41.026 -15.501   4.599  1.00  0.00     0.082 C 
HETATM   15  C   UNL     1      44.021 -17.657   5.542  1.00  0.00     0.001 A 
HETATM   16  C   UNL     1      44.324 -18.281   4.335  1.00  0.00     0.001 A 
ENDBRANCH   1   5
BRANCH   2  17
HETATM   17  C   UNL     1      40.585 -13.345   0.599  1.00  0.00     0.708 A 
HETATM   18  N   UNL     1      40.576 -14.325  -0.279  1.00  0.00    -0.062 NA
HETATM   19  C   UNL     1      39.527 -14.043  -1.133  1.00  0.00     0.103 A 
HETATM   20  C   UNL     1      38.900 -12.860  -0.766  1.00  0.00     0.078 A 
HETATM   21  C   UNL     1      39.074 -14.742  -2.260  1.00  0.00     0.034 A 
HETATM   22  N   UNL     1      39.566 -12.456   0.362  1.00  0.00    -0.188 N 
HETATM   23  C   UNL     1      37.834 -12.304  -1.474  1.00  0.00     0.032 A 
HETATM   24  H   UNL     1      39.361 -11.622   0.894  1.00  0.00     0.184 HD
HETATM   25  C   UNL     1      37.402 -13.006  -2.604  1.00  0.00     0.002 A 
HETATM   26  C   UNL     1      38.007 -14.205  -2.991  1.00  0.00     0.002 A 
ENDBRANCH   2  17
TORSDOF 2
ENDMDL
MODEL 4
REMARK VINA RESULT:      -8.5      2.864      6.990
REMARK  2 active torsions:
REMARK  status: ('A' for Active; 'I' for Inactive)
REMARK    1  A    between atoms: C_9  and  C_10 
REMARK       I    between atoms: C_10  and  N_11 
REMARK    2  A    between atoms: N_11  and  C_12 
ROOT
HETATM    1  C   UNL     1      42.035 -14.124   2.503  1.00  0.00     0.267 C 
HETATM    2  N   UNL     1      43.160 -14.894   2.541  1.00  0.00    -0.156 N 
HETATM    3  O   UNL     1      42.191 -12.960   2.121  1.00  0.00    -0.270 OA
HETATM    4  H   UNL     1      43.993 -14.396   2.241  1.00  0.00     0.187 HD
ENDROOT
BRANCH   1   5
HETATM    5  C   UNL     1      40.621 -14.665   2.846  1.00  0.00     0.282 C 
HETATM    6  N   UNL     1      40.433 -15.209   4.243  1.00  0.00    -0.058 N 
HETATM    7  C   UNL     1      40.699 -14.221   5.312  1.00  0.00     0.272 C 
HETATM    8  H   UNL     1      39.487 -15.588   4.346  1.00  0.00     0.278 HD
HETATM    9  H   UNL     1      41.079 -16.015   4.346  1.00  0.00     0.278 HD
HETATM   10  C   UNL     1      40.035 -12.901   5.055  1.00  0.00    -0.026 A 
HETATM   11  C   UNL     1      39.513 -12.577   3.785  1.00  0.00    -0.048 A 
HETATM   12  C   UNL     1      39.991 -11.949   6.085  1.00  0.00     0.009 A 
HETATM   13  C   UNL     1      38.930 -11.319   3.581  1.00  0.00     0.008 A 
HETATM   14  C   UNL     1      39.542 -13.581   2.649  1.00  0.00     0.082 C 
HETATM   15  C   UNL     1      38.891 -10.384   4.615  1.00  0.00     0.001 A 
HETATM   16  C   UNL     1      39.420 -10.696   5.864  1.00  0.00     0.001 A 
ENDBRANCH   1   5
BRANCH   2  17
HETATM   17  C   UNL     1      43.278 -16.190   2.954  1.00  0.00     0.708 A 
HETATM   18  N   UNL     1      43.584 -16.630   4.155  1.00  0.00    -0.062 NA
HETATM   19  C   UNL     1      43.670 -18.003   4.032  1.00  0.00     0.103 A 
HETATM   20  C   UNL     1      43.422 -18.395   2.724  1.00  0.00     0.078 A 
HETATM   21  C   UNL     1      43.986 -18.973   4.993  1.00  0.00     0.034 A 
HETATM   22  N   UNL     1      43.135 -17.228   2.066  1.00  0.00    -0.188 N 
HETATM   23  C   UNL     1      43.483 -19.721   2.294  1.00  0.00     0.032 A 
HETATM   24  H   UNL     1      42.903 -17.151   1.085  1.00  0.00     0.184 HD
HETATM   25  C   UNL     1      43.813 -20.676   3.262  1.00  0.00     0.002 A 
HETATM   26  C   UNL     1      44.056 -20.312   4.589  1.00  0.00     0.002 A 
ENDBRANCH   2  17
TORSDOF 2
ENDMDL
MODEL 5
REMARK VINA RESULT:      -8.5      1.646      7.038
REMARK  2 active torsions:
REMARK  status: ('A' for Active; 'I' for Inactive)
REMARK    1  A    between atoms: C_9  and  C_10 
REMARK       I    between atoms: C_10  and  N_11 
REMARK    2  A    between atoms: N_11  and  C_12 
ROOT
HETATM    1  C   UNL     1      42.194 -14.376   2.768  1.00  0.00     0.267 C 
HETATM    2  N   UNL     1      43.369 -15.067   2.828  1.00  0.00    -0.156 N 
HETATM    3  O   UNL     1      42.294 -13.155   2.616  1.00  0.00    -0.270 OA
HETATM    4  H   UNL     1      44.186 -14.470   2.736  1.00  0.00     0.187 HD
ENDROOT
BRANCH   1   5
HETATM    5  C   UNL     1      40.801 -15.061   2.815  1.00  0.00     0.282 C 
HETATM    6  N   UNL     1      39.668 -14.235   3.378  1.00  0.00    -0.058 N 
HETATM    7  C   UNL     1      39.416 -12.979   2.638  1.00  0.00     0.272 C 
HETATM    8  H   UNL     1      38.812 -14.796   3.414  1.00  0.00     0.278 HD
HETATM    9  H   UNL     1      39.911 -14.016   4.364  1.00  0.00     0.278 HD
HETATM   10  C   UNL     1      39.370 -13.184   1.153  1.00  0.00    -0.026 A 
HETATM   11  C   UNL     1      39.843 -14.373   0.561  1.00  0.00    -0.048 A 
HETATM   12  C   UNL     1      38.901 -12.143   0.337  1.00  0.00     0.009 A 
HETATM   13  C   UNL     1      39.811 -14.509  -0.833  1.00  0.00     0.008 A 
HETATM   14  C   UNL     1      40.355 -15.520   1.412  1.00  0.00     0.082 C 
HETATM   15  C   UNL     1      39.340 -13.467  -1.631  1.00  0.00     0.001 A 
HETATM   16  C   UNL     1      38.887 -12.286  -1.050  1.00  0.00     0.001 A 
ENDBRANCH   1   5
BRANCH   2  17
HETATM   17  C   UNL     1      43.548 -16.405   3.025  1.00  0.00     0.708 A 
HETATM   18  N   UNL     1      43.439 -17.374   2.141  1.00  0.00    -0.062 NA
HETATM   19  C   UNL     1      43.619 -18.543   2.854  1.00  0.00     0.103 A 
HETATM   20  C   UNL     1      43.830 -18.271   4.199  1.00  0.00     0.078 A 
HETATM   21  C   UNL     1      43.585 -19.875   2.418  1.00  0.00     0.034 A 
HETATM   22  N   UNL     1      43.821 -16.903   4.276  1.00  0.00    -0.188 N 
HETATM   23  C   UNL     1      44.000 -19.262   5.166  1.00  0.00     0.032 A 
HETATM   24  H   UNL     1      43.950 -16.364   5.120  1.00  0.00     0.184 HD
HETATM   25  C   UNL     1      43.950 -20.586   4.718  1.00  0.00     0.002 A 
HETATM   26  C   UNL     1      43.751 -20.890   3.369  1.00  0.00     0.002 A 
ENDBRANCH   2  17
TORSDOF 2
ENDMDL
MODEL 6
REMARK VINA RESULT:      -8.2      3.223      4.267
REMARK  2 active torsions:
REMARK  status: ('A' for Active; 'I' for Inactive)
REMARK    1  A    between atoms: C_9  and  C_10 
REMARK       I    between atoms: C_10  and  N_11 
REMARK    2  A    between atoms: N_11  and  C_12 
ROOT
HETATM    1  C   UNL     1      40.322 -15.067   2.059  1.00  0.00     0.267 C 
HETATM    2  N   UNL     1      39.318 -14.354   2.646  1.00  0.00    -0.156 N 
HETATM    3  O   UNL     1      39.999 -16.159   1.580  1.00  0.00    -0.270 OA
HETATM    4  H   UNL     1      38.420 -14.827   2.607  1.00  0.00     0.187 HD
ENDROOT
BRANCH   1   5
HETATM    5  C   UNL     1      41.775 -14.538   1.923  1.00  0.00     0.282 C 
HETATM    6  N   UNL     1      42.383 -13.927   3.164  1.00  0.00    -0.058 N 
HETATM    7  C   UNL     1      42.454 -14.853   4.316  1.00  0.00     0.272 C 
HETATM    8  H   UNL     1      43.317 -13.562   2.952  1.00  0.00     0.278 HD
HETATM    9  H   UNL     1      41.803 -13.103   3.415  1.00  0.00     0.278 HD
HETATM   10  C   UNL     1      43.002 -16.198   3.941  1.00  0.00    -0.026 A 
HETATM   11  C   UNL     1      43.109 -16.597   2.593  1.00  0.00    -0.048 A 
HETATM   12  C   UNL     1      43.356 -17.096   4.959  1.00  0.00     0.009 A 
HETATM   13  C   UNL     1      43.597 -17.875   2.289  1.00  0.00     0.008 A 
HETATM   14  C   UNL     1      42.738 -15.652   1.466  1.00  0.00     0.082 C 
HETATM   15  C   UNL     1      43.947 -18.757   3.312  1.00  0.00     0.001 A 
HETATM   16  C   UNL     1      43.827 -18.370   4.644  1.00  0.00     0.001 A 
ENDBRANCH   1   5
BRANCH   2  17
HETATM   17  C   UNL     1      39.402 -13.148   3.278  1.00  0.00     0.708 A 
HETATM   18  N   UNL     1      39.654 -11.972   2.745  1.00  0.00    -0.062 NA
HETATM   19  C   UNL     1      39.727 -11.094   3.808  1.00  0.00     0.103 A 
HETATM   20  C   UNL     1      39.527 -11.761   5.009  1.00  0.00     0.078 A 
HETATM   21  C   UNL     1      39.992  -9.717   3.821  1.00  0.00     0.034 A 
HETATM   22  N   UNL     1      39.283 -13.058   4.643  1.00  0.00    -0.188 N 
HETATM   23  C   UNL     1      39.589 -11.135   6.255  1.00  0.00     0.032 A 
HETATM   24  H   UNL     1      39.091 -13.819   5.280  1.00  0.00     0.184 HD
HETATM   25  C   UNL     1      39.867  -9.764   6.252  1.00  0.00     0.002 A 
HETATM   26  C   UNL     1      40.061  -9.065   5.058  1.00  0.00     0.002 A 
ENDBRANCH   2  17
TORSDOF 2
ENDMDL
MODEL 7
REMARK VINA RESULT:      -8.1      4.832      6.964
REMARK  2 active torsions:
REMARK  status: ('A' for Active; 'I' for Inactive)
REMARK    1  A    between atoms: C_9  and  C_10 
REMARK       I    between atoms: C_10  and  N_11 
REMARK    2  A    between atoms: N_11  and  C_12 
ROOT
HETATM    1  C   UNL     1      43.074 -12.926   3.948  1.00  0.00     0.267 C 
HETATM    2  N   UNL     1      43.869 -11.898   4.363  1.00  0.00    -0.156 N 
HETATM    3  O   UNL     1      43.148 -13.213   2.749  1.00  0.00    -0.270 OA
HETATM    4  H   UNL     1      44.428 -11.500   3.613  1.00  0.00     0.187 HD
ENDROOT
BRANCH   1   5
HETATM    5  C   UNL     1      42.174 -13.747   4.910  1.00  0.00     0.282 C 
HETATM    6  N   UNL     1      40.861 -14.236   4.345  1.00  0.00    -0.058 N 
HETATM    7  C   UNL     1      41.006 -15.115   3.164  1.00  0.00     0.272 C 
HETATM    8  H   UNL     1      40.324 -14.716   5.073  1.00  0.00     0.278 HD
HETATM    9  H   UNL     1      40.308 -13.395   4.086  1.00  0.00     0.278 HD
HETATM   10  C   UNL     1      42.042 -16.181   3.363  1.00  0.00    -0.026 A 
HETATM   11  C   UNL     1      42.971 -16.113   4.422  1.00  0.00    -0.048 A 
HETATM   12  C   UNL     1      42.123 -17.233   2.438  1.00  0.00     0.009 A 
HETATM   13  C   UNL     1      43.943 -17.114   4.551  1.00  0.00     0.008 A 
HETATM   14  C   UNL     1      42.912 -14.992   5.442  1.00  0.00     0.082 C 
HETATM   15  C   UNL     1      44.010 -18.155   3.625  1.00  0.00     0.001 A 
HETATM   16  C   UNL     1      43.104 -18.215   2.570  1.00  0.00     0.001 A 
ENDBRANCH   1   5
BRANCH   2  17
HETATM   17  C   UNL     1      43.957 -11.355   5.612  1.00  0.00     0.708 A 
HETATM   18  N   UNL     1      43.070 -10.608   6.233  1.00  0.00    -0.062 NA
HETATM   19  C   UNL     1      43.669 -10.236   7.421  1.00  0.00     0.103 A 
HETATM   20  C   UNL     1      44.950 -10.763   7.509  1.00  0.00     0.078 A 
HETATM   21  C   UNL     1      43.185  -9.425   8.456  1.00  0.00     0.034 A 
HETATM   22  N   UNL     1      45.096 -11.504   6.366  1.00  0.00    -0.188 N 
HETATM   23  C   UNL     1      45.809 -10.517   8.581  1.00  0.00     0.032 A 
HETATM   24  H   UNL     1      45.920 -12.030   6.111  1.00  0.00     0.184 HD
HETATM   25  C   UNL     1      45.317  -9.695   9.600  1.00  0.00     0.002 A 
HETATM   26  C   UNL     1      44.027  -9.160   9.543  1.00  0.00     0.002 A 
ENDBRANCH   2  17
TORSDOF 2
ENDMDL
MODEL 8
REMARK VINA RESULT:      -7.8     13.528     15.004
REMARK  2 active torsions:
REMARK  status: ('A' for Active; 'I' for Inactive)
REMARK    1  A    between atoms: C_9  and  C_10 
REMARK       I    between atoms: C_10  and  N_11 
REMARK    2  A    between atoms: N_11  and  C_12 
ROOT
HETATM    1  C   UNL     1      46.585 -28.526   1.120  1.00  0.00     0.267 C 
HETATM    2  N   UNL     1      46.272 -27.993  -0.097  1.00  0.00    -0.156 N 
HETATM    3  O   UNL     1      46.942 -27.720   1.985  1.00  0.00    -0.270 OA
HETATM    4  H   UNL     1      46.377 -26.984  -0.127  1.00  0.00     0.187 HD
ENDROOT
BRANCH   1   5
HETATM    5  C   UNL     1      46.443 -30.036   1.450  1.00  0.00     0.282 C 
HETATM    6  N   UNL     1      47.208 -30.990   0.562  1.00  0.00    -0.058 N 
HETATM    7  C   UNL     1      48.671 -30.766   0.563  1.00  0.00     0.272 C 
HETATM    8  H   UNL     1      47.003 -31.956   0.831  1.00  0.00     0.278 HD
HETATM    9  H   UNL     1      46.839 -30.873  -0.401  1.00  0.00     0.278 HD
HETATM   10  C   UNL     1      49.230 -30.606   1.945  1.00  0.00    -0.026 A 
HETATM   11  C   UNL     1      48.390 -30.369   3.053  1.00  0.00    -0.048 A 
HETATM   12  C   UNL     1      50.621 -30.631   2.124  1.00  0.00     0.009 A 
HETATM   13  C   UNL     1      48.957 -30.193   4.322  1.00  0.00     0.008 A 
HETATM   14  C   UNL     1      46.881 -30.337   2.898  1.00  0.00     0.082 C 
HETATM   15  C   UNL     1      50.342 -30.223   4.485  1.00  0.00     0.001 A 
HETATM   16  C   UNL     1      51.173 -30.441   3.390  1.00  0.00     0.001 A 
ENDBRANCH   1   5
BRANCH   2  17
HETATM   17  C   UNL     1      45.888 -28.653  -1.228  1.00  0.00     0.708 A 
HETATM   18  N   UNL     1      46.623 -29.414  -2.009  1.00  0.00    -0.062 NA
HETATM   19  C   UNL     1      45.801 -29.763  -3.063  1.00  0.00     0.103 A 
HETATM   20  C   UNL     1      44.547 -29.187  -2.917  1.00  0.00     0.078 A 
HETATM   21  C   UNL     1      46.073 -30.545  -4.194  1.00  0.00     0.034 A 
HETATM   22  N   UNL     1      44.614 -28.518  -1.723  1.00  0.00    -0.188 N 
HETATM   23  C   UNL     1      43.523 -29.329  -3.854  1.00  0.00     0.032 A 
HETATM   24  H   UNL     1      43.862 -27.986  -1.308  1.00  0.00     0.184 HD
HETATM   25  C   UNL     1      43.814 -30.101  -4.984  1.00  0.00     0.002 A 
HETATM   26  C   UNL     1      45.064 -30.703  -5.151  1.00  0.00     0.002 A 
ENDBRANCH   2  17
TORSDOF 2
ENDMDL
MODEL 9
REMARK VINA RESULT:      -7.8      4.888      7.749
REMARK  2 active torsions:
REMARK  status: ('A' for Active; 'I' for Inactive)
REMARK    1  A    between atoms: C_9  and  C_10 
REMARK       I    between atoms: C_10  and  N_11 
REMARK    2  A    between atoms: N_11  and  C_12 
ROOT
HETATM    1  C   UNL     1      43.643 -13.597   7.126  1.00  0.00     0.267 C 
HETATM    2  N   UNL     1      43.434 -14.942   7.036  1.00  0.00    -0.156 N 
HETATM    3  O   UNL     1      43.564 -13.115   8.260  1.00  0.00    -0.270 OA
HETATM    4  H   UNL     1      43.240 -15.375   7.934  1.00  0.00     0.187 HD
ENDROOT
BRANCH   1   5
HETATM    5  C   UNL     1      44.025 -12.712   5.910  1.00  0.00     0.282 C 
HETATM    6  N   UNL     1      42.959 -11.764   5.410  1.00  0.00    -0.058 N 
HETATM    7  C   UNL     1      42.502 -10.788   6.424  1.00  0.00     0.272 C 
HETATM    8  H   UNL     1      43.293 -11.271   4.577  1.00  0.00     0.278 HD
HETATM    9  H   UNL     1      42.156 -12.345   5.098  1.00  0.00     0.278 HD
HETATM   10  C   UNL     1      43.639 -10.132   7.147  1.00  0.00    -0.026 A 
HETATM   11  C   UNL     1      44.950 -10.650   7.078  1.00  0.00    -0.048 A 
HETATM   12  C   UNL     1      43.378  -9.017   7.958  1.00  0.00     0.009 A 
HETATM   13  C   UNL     1      45.977 -10.024   7.796  1.00  0.00     0.008 A 
HETATM   14  C   UNL     1      45.269 -11.853   6.210  1.00  0.00     0.082 C 
HETATM   15  C   UNL     1      45.702  -8.915   8.596  1.00  0.00     0.001 A 
HETATM   16  C   UNL     1      44.407  -8.412   8.679  1.00  0.00     0.001 A 
ENDBRANCH   1   5
BRANCH   2  17
HETATM   17  C   UNL     1      43.425 -15.718   5.913  1.00  0.00     0.708 A 
HETATM   18  N   UNL     1      42.635 -15.615   4.866  1.00  0.00    -0.062 NA
HETATM   19  C   UNL     1      42.960 -16.684   4.054  1.00  0.00     0.103 A 
HETATM   20  C   UNL     1      43.960 -17.453   4.632  1.00  0.00     0.078 A 
HETATM   21  C   UNL     1      42.417 -17.073   2.821  1.00  0.00     0.034 A 
HETATM   22  N   UNL     1      44.268 -16.796   5.795  1.00  0.00    -0.188 N 
HETATM   23  C   UNL     1      44.459 -18.622   4.057  1.00  0.00     0.032 A 
HETATM   24  H   UNL     1      44.966 -17.087   6.464  1.00  0.00     0.184 HD
HETATM   25  C   UNL     1      43.899 -19.005   2.834  1.00  0.00     0.002 A 
HETATM   26  C   UNL     1      42.899 -18.244   2.223  1.00  0.00     0.002 A 
ENDBRANCH   2  17
TORSDOF 2
ENDMDL
MODEL 10
REMARK VINA RESULT:      -7.7      9.861     11.790
REMARK  2 active torsions:
REMARK  status: ('A' for Active; 'I' for Inactive)
REMARK    1  A    between atoms: C_9  and  C_10 
REMARK       I    between atoms: C_10  and  N_11 
REMARK    2  A    between atoms: N_11  and  C_12 
ROOT
HETATM    1  C   UNL     1      40.980  -8.901  10.677  1.00  0.00     0.267 C 
HETATM    2  N   UNL     1      41.226  -8.774   9.341  1.00  0.00    -0.156 N 
HETATM    3  O   UNL     1      40.117  -8.148  11.139  1.00  0.00    -0.270 OA
HETATM    4  H   UNL     1      40.653  -8.063   8.898  1.00  0.00     0.187 HD
ENDROOT
BRANCH   1   5
HETATM    5  C   UNL     1      41.673  -9.962  11.574  1.00  0.00     0.282 C 
HETATM    6  N   UNL     1      43.171  -9.834  11.727  1.00  0.00    -0.058 N 
HETATM    7  C   UNL     1      43.605  -8.545  12.310  1.00  0.00     0.272 C 
HETATM    8  H   UNL     1      43.531 -10.610  12.289  1.00  0.00     0.278 HD
HETATM    9  H   UNL     1      43.585  -9.945  10.782  1.00  0.00     0.278 HD
HETATM   10  C   UNL     1      42.811  -8.165  13.525  1.00  0.00    -0.026 A 
HETATM   11  C   UNL     1      41.598  -8.811  13.840  1.00  0.00    -0.048 A 
HETATM   12  C   UNL     1      43.259  -7.103  14.325  1.00  0.00     0.009 A 
HETATM   13  C   UNL     1      40.872  -8.402  14.967  1.00  0.00     0.008 A 
HETATM   14  C   UNL     1      41.084  -9.963  12.999  1.00  0.00     0.082 C 
HETATM   15  C   UNL     1      41.331  -7.346  15.755  1.00  0.00     0.001 A 
HETATM   16  C   UNL     1      42.520  -6.697  15.436  1.00  0.00     0.001 A 
ENDBRANCH   1   5
BRANCH   2  17
HETATM   17  C   UNL     1      42.144  -9.448   8.588  1.00  0.00     0.708 A 
HETATM   18  N   UNL     1      43.450  -9.474   8.740  1.00  0.00    -0.062 NA
HETATM   19  C   UNL     1      43.929 -10.213   7.676  1.00  0.00     0.103 A 
HETATM   20  C   UNL     1      42.886 -10.631   6.860  1.00  0.00     0.078 A 
HETATM   21  C   UNL     1      45.247 -10.541   7.330  1.00  0.00     0.034 A 
HETATM   22  N   UNL     1      41.758 -10.166   7.484  1.00  0.00    -0.188 N 
HETATM   23  C   UNL     1      43.074 -11.360   5.685  1.00  0.00     0.032 A 
HETATM   24  H   UNL     1      40.811 -10.298   7.154  1.00  0.00     0.184 HD
HETATM   25  C   UNL     1      44.396 -11.667   5.347  1.00  0.00     0.002 A 
HETATM   26  C   UNL     1      45.464 -11.270   6.154  1.00  0.00     0.002 A 
ENDBRANCH   2  17
TORSDOF 2
ENDMDL
