MODEL 1
REMARK VINA RESULT:      -8.0      0.000      0.000
REMARK  4 active torsions:
REMARK  status: ('A' for Active; 'I' for Inactive)
REMARK    1  A    between atoms: N_2  and  C_3 
REMARK    2  A    between atoms: C_9  and  N_10 
REMARK       I    between atoms: N_10  and  C_11 
REMARK    3  A    between atoms: C_11  and  C_12 
REMARK    4  A    between atoms: C_12  and  C_13 
ROOT
HETATM    1  N   UNL     1      43.399 -13.206   4.394  1.00  0.00    -0.327 N 
HETATM    2  C   UNL     1      42.571 -14.298   4.195  1.00  0.00     0.227 C 
HETATM    3  O   UNL     1      41.661 -14.664   4.940  1.00  0.00    -0.273 OA
HETATM    4  H   UNL     1      44.155 -13.058   3.734  1.00  0.00     0.169 HD
ENDROOT
BRANCH   1   5
HETATM    5  C   UNL     1      43.329 -12.254   5.438  1.00  0.00     0.037 A 
HETATM    6  C   UNL     1      43.918 -12.443   6.697  1.00  0.00     0.069 A 
HETATM    7  C   UNL     1      43.719 -11.424   7.626  1.00  0.00     0.110 A 
HETATM    8  O   UNL     1      44.163 -11.382   8.913  1.00  0.00    -0.276 OA
HETATM    9  C   UNL     1      43.008 -10.263   7.390  1.00  0.00     0.095 A 
HETATM   10  C   UNL     1      43.682 -10.189   9.398  1.00  0.00     0.249 A 
HETATM   11  N   UNL     1      42.998  -9.487   8.516  1.00  0.00    -0.206 NA
HETATM   12  C   UNL     1      42.437 -10.067   6.131  1.00  0.00     0.037 A 
HETATM   13  C   UNL     1      42.603 -11.078   5.167  1.00  0.00     0.032 A 
BRANCH  10  14
HETATM   14  N   UNL     1      43.937  -9.893  10.694  1.00  0.00    -0.354 N 
HETATM   15  C   UNL     1      43.630  -8.557  11.179  1.00  0.00     0.152 C 
HETATM   16  C   UNL     1      43.793 -10.981  11.648  1.00  0.00     0.152 C 
ENDBRANCH  10  14
ENDBRANCH   1   5
BRANCH   2  17
HETATM   17  C   UNL     1      42.887 -15.040   2.908  1.00  0.00     0.161 C 
BRANCH  17  18
HETATM   18  C   UNL     1      43.146 -16.486   3.108  1.00  0.00     0.035 A 
HETATM   19  N   UNL     1      43.492 -17.061   4.327  1.00  0.00    -0.344 N 
HETATM   20  H   UNL     1      43.591 -16.517   5.192  1.00  0.00     0.167 HD
HETATM   21  C   UNL     1      43.673 -18.369   4.210  1.00  0.00     0.111 A 
HETATM   22  N   UNL     1      43.438 -18.689   2.924  1.00  0.00    -0.317 N 
HETATM   23  C   UNL     1      44.061 -19.397   5.205  1.00  0.00     0.049 A 
HETATM   24  C   UNL     1      43.104 -17.544   2.222  1.00  0.00     0.123 A 
HETATM   25  C   UNL     1      43.535 -19.983   2.451  1.00  0.00     0.098 A 
HETATM   26  C   UNL     1      43.886 -20.938   3.334  1.00  0.00     0.018 A 
HETATM   27  C   UNL     1      44.159 -20.657   4.743  1.00  0.00     0.005 A 
ENDBRANCH  17  18
ENDBRANCH   2  17
TORSDOF 4
ENDMDL
MODEL 2
REMARK VINA RESULT:      -7.9      5.578      8.401
REMARK  4 active torsions:
REMARK  status: ('A' for Active; 'I' for Inactive)
REMARK    1  A    between atoms: N_2  and  C_3 
REMARK    2  A    between atoms: C_9  and  N_10 
REMARK       I    between atoms: N_10  and  C_11 
REMARK    3  A    between atoms: C_11  and  C_12 
REMARK    4  A    between atoms: C_12  and  C_13 
ROOT
HETATM    1  N   UNL     1      41.599 -13.897   0.788  1.00  0.00    -0.327 N 
HETATM    2  C   UNL     1      41.603 -14.841   1.801  1.00  0.00     0.227 C 
HETATM    3  O   UNL     1      40.638 -15.506   2.177  1.00  0.00    -0.273 OA
HETATM    4  H   UNL     1      42.451 -13.371   0.627  1.00  0.00     0.169 HD
ENDROOT
BRANCH   1   5
HETATM    5  C   UNL     1      40.523 -13.557  -0.065  1.00  0.00     0.037 A 
HETATM    6  C   UNL     1      39.919 -12.291  -0.079  1.00  0.00     0.069 A 
HETATM    7  C   UNL     1      38.843 -12.136  -0.950  1.00  0.00     0.110 A 
HETATM    8  O   UNL     1      38.081 -11.021  -1.130  1.00  0.00    -0.276 OA
HETATM    9  C   UNL     1      38.352 -13.119  -1.788  1.00  0.00     0.095 A 
HETATM   10  C   UNL     1      37.150 -11.396  -2.069  1.00  0.00     0.249 A 
HETATM   11  N   UNL     1      37.286 -12.636  -2.496  1.00  0.00    -0.206 NA
HETATM   12  C   UNL     1      38.965 -14.374  -1.786  1.00  0.00     0.037 A 
HETATM   13  C   UNL     1      40.047 -14.577  -0.912  1.00  0.00     0.032 A 
BRANCH  10  14
HETATM   14  N   UNL     1      36.213 -10.483  -2.420  1.00  0.00    -0.354 N 
HETATM   15  C   UNL     1      35.227 -10.845  -3.425  1.00  0.00     0.152 C 
HETATM   16  C   UNL     1      35.774  -9.571  -1.376  1.00  0.00     0.152 C 
ENDBRANCH  10  14
ENDBRANCH   1   5
BRANCH   2  17
HETATM   17  C   UNL     1      42.973 -15.003   2.438  1.00  0.00     0.161 C 
BRANCH  17  18
HETATM   18  C   UNL     1      43.245 -16.383   2.909  1.00  0.00     0.035 A 
HETATM   19  N   UNL     1      43.173 -17.516   2.105  1.00  0.00    -0.344 N 
HETATM   20  H   UNL     1      42.926 -17.479   1.110  1.00  0.00     0.167 HD
HETATM   21  C   UNL     1      43.455 -18.614   2.793  1.00  0.00     0.111 A 
HETATM   22  N   UNL     1      43.734 -18.233   4.053  1.00  0.00    -0.317 N 
HETATM   23  C   UNL     1      43.493 -20.040   2.388  1.00  0.00     0.049 A 
HETATM   24  C   UNL     1      43.617 -16.858   4.152  1.00  0.00     0.123 A 
HETATM   25  C   UNL     1      44.076 -19.135   5.043  1.00  0.00     0.098 A 
HETATM   26  C   UNL     1      44.118 -20.437   4.703  1.00  0.00     0.018 A 
HETATM   27  C   UNL     1      43.822 -20.918   3.354  1.00  0.00     0.005 A 
ENDBRANCH  17  18
ENDBRANCH   2  17
TORSDOF 4
ENDMDL
MODEL 3
REMARK VINA RESULT:      -7.9      1.697      8.975
REMARK  4 active torsions:
REMARK  status: ('A' for Active; 'I' for Inactive)
REMARK    1  A    between atoms: N_2  and  C_3 
REMARK    2  A    between atoms: C_9  and  N_10 
REMARK       I    between atoms: N_10  and  C_11 
REMARK    3  A    between atoms: C_11  and  C_12 
REMARK    4  A    between atoms: C_12  and  C_13 
ROOT
HETATM    1  N   UNL     1      42.331 -12.707   4.565  1.00  0.00    -0.327 N 
HETATM    2  C   UNL     1      43.106 -11.559   4.541  1.00  0.00     0.227 C 
HETATM    3  O   UNL     1      44.222 -11.447   4.035  1.00  0.00    -0.273 OA
HETATM    4  H   UNL     1      41.456 -12.677   5.078  1.00  0.00     0.169 HD
ENDROOT
BRANCH   1   5
HETATM    5  C   UNL     1      42.621 -13.951   3.958  1.00  0.00     0.037 A 
HETATM    6  C   UNL     1      42.856 -15.128   4.684  1.00  0.00     0.069 A 
HETATM    7  C   UNL     1      43.168 -16.259   3.933  1.00  0.00     0.110 A 
HETATM    8  O   UNL     1      43.459 -17.505   4.399  1.00  0.00    -0.276 OA
HETATM    9  C   UNL     1      43.249 -16.298   2.554  1.00  0.00     0.095 A 
HETATM   10  C   UNL     1      43.716 -18.239   3.265  1.00  0.00     0.249 A 
HETATM   11  N   UNL     1      43.589 -17.558   2.144  1.00  0.00    -0.206 NA
HETATM   12  C   UNL     1      42.998 -15.130   1.831  1.00  0.00     0.037 A 
HETATM   13  C   UNL     1      42.691 -13.962   2.551  1.00  0.00     0.032 A 
BRANCH  10  14
HETATM   14  N   UNL     1      44.082 -19.533   3.427  1.00  0.00    -0.354 N 
HETATM   15  C   UNL     1      44.219 -20.056   4.776  1.00  0.00     0.152 C 
HETATM   16  C   UNL     1      43.628 -20.467   2.409  1.00  0.00     0.152 C 
ENDBRANCH  10  14
ENDBRANCH   1   5
BRANCH   2  17
HETATM   17  C   UNL     1      42.424 -10.383   5.219  1.00  0.00     0.161 C 
BRANCH  17  18
HETATM   18  C   UNL     1      42.905 -10.137   6.600  1.00  0.00     0.035 A 
HETATM   19  N   UNL     1      44.195 -10.411   7.043  1.00  0.00    -0.344 N 
HETATM   20  H   UNL     1      44.921 -10.806   6.435  1.00  0.00     0.167 HD
HETATM   21  C   UNL     1      44.342 -10.102   8.324  1.00  0.00     0.111 A 
HETATM   22  N   UNL     1      43.165  -9.605   8.750  1.00  0.00    -0.317 N 
HETATM   23  C   UNL     1      45.505 -10.225   9.235  1.00  0.00     0.049 A 
HETATM   24  C   UNL     1      42.261  -9.611   7.703  1.00  0.00     0.123 A 
HETATM   25  C   UNL     1      42.967  -9.177  10.048  1.00  0.00     0.098 A 
HETATM   26  C   UNL     1      44.007  -9.278  10.897  1.00  0.00     0.018 A 
HETATM   27  C   UNL     1      45.309  -9.812  10.500  1.00  0.00     0.005 A 
ENDBRANCH  17  18
ENDBRANCH   2  17
TORSDOF 4
ENDMDL
MODEL 4
REMARK VINA RESULT:      -7.9      1.881      9.592
REMARK  4 active torsions:
REMARK  status: ('A' for Active; 'I' for Inactive)
REMARK    1  A    between atoms: N_2  and  C_3 
REMARK    2  A    between atoms: C_9  and  N_10 
REMARK       I    between atoms: N_10  and  C_11 
REMARK    3  A    between atoms: C_11  and  C_12 
REMARK    4  A    between atoms: C_12  and  C_13 
ROOT
HETATM    1  N   UNL     1      42.647 -12.983   6.493  1.00  0.00    -0.327 N 
HETATM    2  C   UNL     1      43.516 -11.954   6.815  1.00  0.00     0.227 C 
HETATM    3  O   UNL     1      44.707 -12.074   7.104  1.00  0.00    -0.273 OA
HETATM    4  H   UNL     1      41.671 -12.749   6.342  1.00  0.00     0.169 HD
ENDROOT
BRANCH   1   5
HETATM    5  C   UNL     1      42.954 -14.357   6.358  1.00  0.00     0.037 A 
HETATM    6  C   UNL     1      43.197 -14.977   5.124  1.00  0.00     0.069 A 
HETATM    7  C   UNL     1      43.445 -16.347   5.165  1.00  0.00     0.110 A 
HETATM    8  O   UNL     1      43.683 -17.175   4.110  1.00  0.00    -0.276 OA
HETATM    9  C   UNL     1      43.477 -17.113   6.315  1.00  0.00     0.095 A 
HETATM   10  C   UNL     1      43.837 -18.416   4.681  1.00  0.00     0.249 A 
HETATM   11  N   UNL     1      43.734 -18.419   5.995  1.00  0.00    -0.206 NA
HETATM   12  C   UNL     1      43.252 -16.492   7.545  1.00  0.00     0.037 A 
HETATM   13  C   UNL     1      42.986 -15.112   7.548  1.00  0.00     0.032 A 
BRANCH  10  14
HETATM   14  N   UNL     1      44.047 -19.465   3.851  1.00  0.00    -0.354 N 
HETATM   15  C   UNL     1      44.048 -20.807   4.409  1.00  0.00     0.152 C 
HETATM   16  C   UNL     1      43.551 -19.325   2.492  1.00  0.00     0.152 C 
ENDBRANCH  10  14
ENDBRANCH   1   5
BRANCH   2  17
HETATM   17  C   UNL     1      42.846 -10.591   6.769  1.00  0.00     0.161 C 
BRANCH  17  18
HETATM   18  C   UNL     1      42.852  -9.887   8.073  1.00  0.00     0.035 A 
HETATM   19  N   UNL     1      43.229 -10.469   9.279  1.00  0.00    -0.344 N 
HETATM   20  H   UNL     1      43.540 -11.444   9.355  1.00  0.00     0.167 HD
HETATM   21  C   UNL     1      43.126  -9.609  10.284  1.00  0.00     0.111 A 
HETATM   22  N   UNL     1      42.697  -8.443   9.766  1.00  0.00    -0.317 N 
HETATM   23  C   UNL     1      43.392  -9.761  11.734  1.00  0.00     0.049 A 
HETATM   24  C   UNL     1      42.525  -8.585   8.401  1.00  0.00     0.123 A 
HETATM   25  C   UNL     1      42.484  -7.320  10.542  1.00  0.00     0.098 A 
HETATM   26  C   UNL     1      42.718  -7.430  11.864  1.00  0.00     0.018 A 
HETATM   27  C   UNL     1      43.180  -8.668  12.490  1.00  0.00     0.005 A 
ENDBRANCH  17  18
ENDBRANCH   2  17
TORSDOF 4
ENDMDL
MODEL 5
REMARK VINA RESULT:      -7.7      3.689      9.294
REMARK  4 active torsions:
REMARK  status: ('A' for Active; 'I' for Inactive)
REMARK    1  A    between atoms: N_2  and  C_3 
REMARK    2  A    between atoms: C_9  and  N_10 
REMARK       I    between atoms: N_10  and  C_11 
REMARK    3  A    between atoms: C_11  and  C_12 
REMARK    4  A    between atoms: C_12  and  C_13 
ROOT
HETATM    1  N   UNL     1      42.850 -14.455   4.027  1.00  0.00    -0.327 N 
HETATM    2  C   UNL     1      42.636 -13.658   5.138  1.00  0.00     0.227 C 
HETATM    3  O   UNL     1      41.735 -12.829   5.274  1.00  0.00    -0.273 OA
HETATM    4  H   UNL     1      43.673 -15.049   4.021  1.00  0.00     0.169 HD
ENDROOT
BRANCH   1   5
HETATM    5  C   UNL     1      42.051 -14.539   2.863  1.00  0.00     0.037 A 
HETATM    6  C   UNL     1      42.007 -13.538   1.882  1.00  0.00     0.069 A 
HETATM    7  C   UNL     1      41.135 -13.760   0.819  1.00  0.00     0.110 A 
HETATM    8  O   UNL     1      40.895 -12.935  -0.238  1.00  0.00    -0.276 OA
HETATM    9  C   UNL     1      40.341 -14.880   0.665  1.00  0.00     0.095 A 
HETATM   10  C   UNL     1      39.947 -13.600  -0.979  1.00  0.00     0.249 A 
HETATM   11  N   UNL     1      39.600 -14.770  -0.480  1.00  0.00    -0.206 NA
HETATM   12  C   UNL     1      40.398 -15.885   1.632  1.00  0.00     0.037 A 
HETATM   13  C   UNL     1      41.256 -15.695   2.730  1.00  0.00     0.032 A 
BRANCH  10  14
HETATM   14  N   UNL     1      39.477 -12.986  -2.090  1.00  0.00    -0.354 N 
HETATM   15  C   UNL     1      40.428 -12.498  -3.075  1.00  0.00     0.152 C 
HETATM   16  C   UNL     1      38.197 -13.456  -2.597  1.00  0.00     0.152 C 
ENDBRANCH  10  14
ENDBRANCH   1   5
BRANCH   2  17
HETATM   17  C   UNL     1      43.652 -13.910   6.240  1.00  0.00     0.161 C 
BRANCH  17  18
HETATM   18  C   UNL     1      44.132 -12.670   6.895  1.00  0.00     0.035 A 
HETATM   19  N   UNL     1      43.460 -12.012   7.920  1.00  0.00    -0.344 N 
HETATM   20  H   UNL     1      42.570 -12.345   8.307  1.00  0.00     0.167 HD
HETATM   21  C   UNL     1      44.114 -10.926   8.308  1.00  0.00     0.111 A 
HETATM   22  N   UNL     1      45.233 -10.850   7.563  1.00  0.00    -0.317 N 
HETATM   23  C   UNL     1      43.797  -9.906   9.335  1.00  0.00     0.049 A 
HETATM   24  C   UNL     1      45.272 -11.918   6.686  1.00  0.00     0.123 A 
HETATM   25  C   UNL     1      46.154  -9.830   7.710  1.00  0.00     0.098 A 
HETATM   26  C   UNL     1      45.891  -8.890   8.637  1.00  0.00     0.018 A 
HETATM   27  C   UNL     1      44.693  -8.911   9.475  1.00  0.00     0.005 A 
ENDBRANCH  17  18
ENDBRANCH   2  17
TORSDOF 4
ENDMDL
MODEL 6
REMARK VINA RESULT:      -7.3      1.955      8.736
REMARK  4 active torsions:
REMARK  status: ('A' for Active; 'I' for Inactive)
REMARK    1  A    between atoms: N_2  and  C_3 
REMARK    2  A    between atoms: C_9  and  N_10 
REMARK       I    between atoms: N_10  and  C_11 
REMARK    3  A    between atoms: C_11  and  C_12 
REMARK    4  A    between atoms: C_12  and  C_13 
ROOT
HETATM    1  N   UNL     1      41.420 -12.942   4.628  1.00  0.00    -0.327 N 
HETATM    2  C   UNL     1      40.588 -12.600   5.681  1.00  0.00     0.227 C 
HETATM    3  O   UNL     1      39.828 -13.360   6.281  1.00  0.00    -0.273 OA
HETATM    4  H   UNL     1      41.946 -12.199   4.179  1.00  0.00     0.169 HD
ENDROOT
BRANCH   1   5
HETATM    5  C   UNL     1      41.623 -14.228   4.075  1.00  0.00     0.037 A 
HETATM    6  C   UNL     1      42.563 -15.143   4.573  1.00  0.00     0.069 A 
HETATM    7  C   UNL     1      42.664 -16.350   3.886  1.00  0.00     0.110 A 
HETATM    8  O   UNL     1      43.511 -17.384   4.154  1.00  0.00    -0.276 OA
HETATM    9  C   UNL     1      41.911 -16.701   2.782  1.00  0.00     0.095 A 
HETATM   10  C   UNL     1      43.231 -18.312   3.179  1.00  0.00     0.249 A 
HETATM   11  N   UNL     1      42.274 -17.947   2.349  1.00  0.00    -0.206 NA
HETATM   12  C   UNL     1      40.963 -15.797   2.298  1.00  0.00     0.037 A 
HETATM   13  C   UNL     1      40.836 -14.560   2.954  1.00  0.00     0.032 A 
BRANCH  10  14
HETATM   14  N   UNL     1      43.964 -19.450   3.170  1.00  0.00    -0.354 N 
HETATM   15  C   UNL     1      44.339 -20.050   4.439  1.00  0.00     0.152 C 
HETATM   16  C   UNL     1      43.730 -20.362   2.062  1.00  0.00     0.152 C 
ENDBRANCH  10  14
ENDBRANCH   1   5
BRANCH   2  17
HETATM   17  C   UNL     1      40.706 -11.135   6.063  1.00  0.00     0.161 C 
BRANCH  17  18
HETATM   18  C   UNL     1      42.009 -10.788   6.679  1.00  0.00     0.035 A 
HETATM   19  N   UNL     1      42.153 -10.092   7.875  1.00  0.00    -0.344 N 
HETATM   20  H   UNL     1      41.354  -9.765   8.430  1.00  0.00     0.167 HD
HETATM   21  C   UNL     1      43.432  -9.914   8.179  1.00  0.00     0.111 A 
HETATM   22  N   UNL     1      44.156 -10.498   7.207  1.00  0.00    -0.317 N 
HETATM   23  C   UNL     1      44.080  -9.228   9.322  1.00  0.00     0.049 A 
HETATM   24  C   UNL     1      43.302 -11.051   6.270  1.00  0.00     0.123 A 
HETATM   25  C   UNL     1      45.538 -10.502   7.212  1.00  0.00     0.098 A 
HETATM   26  C   UNL     1      46.153  -9.887   8.240  1.00  0.00     0.018 A 
HETATM   27  C   UNL     1      45.425  -9.230   9.325  1.00  0.00     0.005 A 
ENDBRANCH  17  18
ENDBRANCH   2  17
TORSDOF 4
ENDMDL
MODEL 7
REMARK VINA RESULT:      -7.2      4.531      7.363
REMARK  4 active torsions:
REMARK  status: ('A' for Active; 'I' for Inactive)
REMARK    1  A    between atoms: N_2  and  C_3 
REMARK    2  A    between atoms: C_9  and  N_10 
REMARK       I    between atoms: N_10  and  C_11 
REMARK    3  A    between atoms: C_11  and  C_12 
REMARK    4  A    between atoms: C_12  and  C_13 
ROOT
HETATM    1  N   UNL     1      42.272 -14.329   2.468  1.00  0.00    -0.327 N 
HETATM    2  C   UNL     1      41.968 -14.521   3.806  1.00  0.00     0.227 C 
HETATM    3  O   UNL     1      40.880 -14.310   4.340  1.00  0.00    -0.273 OA
HETATM    4  H   UNL     1      43.232 -14.477   2.174  1.00  0.00     0.169 HD
ENDROOT
BRANCH   1   5
HETATM    5  C   UNL     1      41.391 -13.929   1.436  1.00  0.00     0.037 A 
HETATM    6  C   UNL     1      41.127 -12.588   1.123  1.00  0.00     0.069 A 
HETATM    7  C   UNL     1      40.202 -12.368   0.105  1.00  0.00     0.110 A 
HETATM    8  O   UNL     1      39.761 -11.168  -0.365  1.00  0.00    -0.276 OA
HETATM    9  C   UNL     1      39.553 -13.360  -0.606  1.00  0.00     0.095 A 
HETATM   10  C   UNL     1      38.848 -11.499  -1.338  1.00  0.00     0.249 A 
HETATM   11  N   UNL     1      38.705 -12.797  -1.520  1.00  0.00    -0.206 NA
HETATM   12  C   UNL     1      39.829 -14.695  -0.305  1.00  0.00     0.037 A 
HETATM   13  C   UNL     1      40.748 -14.962   0.725  1.00  0.00     0.032 A 
BRANCH  10  14
HETATM   14  N   UNL     1      38.203 -10.486  -1.962  1.00  0.00    -0.354 N 
HETATM   15  C   UNL     1      36.918 -10.754  -2.585  1.00  0.00     0.152 C 
HETATM   16  C   UNL     1      38.390  -9.157  -1.402  1.00  0.00     0.152 C 
ENDBRANCH  10  14
ENDBRANCH   1   5
BRANCH   2  17
HETATM   17  C   UNL     1      43.151 -15.050   4.600  1.00  0.00     0.161 C 
BRANCH  17  18
HETATM   18  C   UNL     1      43.344 -16.514   4.466  1.00  0.00     0.035 A 
HETATM   19  N   UNL     1      43.451 -17.393   5.538  1.00  0.00    -0.344 N 
HETATM   20  H   UNL     1      43.399 -17.089   6.517  1.00  0.00     0.167 HD
HETATM   21  C   UNL     1      43.629 -18.641   5.124  1.00  0.00     0.111 A 
HETATM   22  N   UNL     1      43.628 -18.616   3.778  1.00  0.00    -0.317 N 
HETATM   23  C   UNL     1      43.810 -19.906   5.875  1.00  0.00     0.049 A 
HETATM   24  C   UNL     1      43.448 -17.314   3.345  1.00  0.00     0.123 A 
HETATM   25  C   UNL     1      43.788 -19.756   3.015  1.00  0.00     0.098 A 
HETATM   26  C   UNL     1      43.955 -20.920   3.672  1.00  0.00     0.018 A 
HETATM   27  C   UNL     1      43.970 -21.015   5.130  1.00  0.00     0.005 A 
ENDBRANCH  17  18
ENDBRANCH   2  17
TORSDOF 4
ENDMDL
MODEL 8
REMARK VINA RESULT:      -7.1      2.326      2.654
REMARK  4 active torsions:
REMARK  status: ('A' for Active; 'I' for Inactive)
REMARK    1  A    between atoms: N_2  and  C_3 
REMARK    2  A    between atoms: C_9  and  N_10 
REMARK       I    between atoms: N_10  and  C_11 
REMARK    3  A    between atoms: C_11  and  C_12 
REMARK    4  A    between atoms: C_12  and  C_13 
ROOT
HETATM    1  N   UNL     1      41.757 -13.265   3.867  1.00  0.00    -0.327 N 
HETATM    2  C   UNL     1      42.712 -14.231   4.134  1.00  0.00     0.227 C 
HETATM    3  O   UNL     1      43.167 -14.516   5.242  1.00  0.00    -0.273 OA
HETATM    4  H   UNL     1      41.521 -13.087   2.896  1.00  0.00     0.169 HD
ENDROOT
BRANCH   1   5
HETATM    5  C   UNL     1      41.060 -12.465   4.803  1.00  0.00     0.037 A 
HETATM    6  C   UNL     1      41.674 -11.471   5.578  1.00  0.00     0.069 A 
HETATM    7  C   UNL     1      40.850 -10.803   6.481  1.00  0.00     0.110 A 
HETATM    8  O   UNL     1      41.209  -9.822   7.356  1.00  0.00    -0.276 OA
HETATM    9  C   UNL     1      39.500 -11.042   6.650  1.00  0.00     0.095 A 
HETATM   10  C   UNL     1      40.046  -9.524   8.026  1.00  0.00     0.249 A 
HETATM   11  N   UNL     1      39.001 -10.222   7.625  1.00  0.00    -0.206 NA
HETATM   12  C   UNL     1      38.885 -12.021   5.866  1.00  0.00     0.037 A 
HETATM   13  C   UNL     1      39.683 -12.728   4.949  1.00  0.00     0.032 A 
BRANCH  10  14
HETATM   14  N   UNL     1      40.110  -8.593   9.007  1.00  0.00    -0.354 N 
HETATM   15  C   UNL     1      38.933  -7.786   9.282  1.00  0.00     0.152 C 
HETATM   16  C   UNL     1      40.965  -8.905  10.141  1.00  0.00     0.152 C 
ENDBRANCH  10  14
ENDBRANCH   1   5
BRANCH   2  17
HETATM   17  C   UNL     1      43.169 -14.958   2.880  1.00  0.00     0.161 C 
BRANCH  17  18
HETATM   18  C   UNL     1      43.333 -16.419   3.072  1.00  0.00     0.035 A 
HETATM   19  N   UNL     1      43.653 -17.022   4.284  1.00  0.00    -0.344 N 
HETATM   20  H   UNL     1      43.797 -16.490   5.150  1.00  0.00     0.167 HD
HETATM   21  C   UNL     1      43.746 -18.339   4.159  1.00  0.00     0.111 A 
HETATM   22  N   UNL     1      43.476 -18.636   2.874  1.00  0.00    -0.317 N 
HETATM   23  C   UNL     1      44.075 -19.395   5.145  1.00  0.00     0.049 A 
HETATM   24  C   UNL     1      43.212 -17.468   2.181  1.00  0.00     0.123 A 
HETATM   25  C   UNL     1      43.483 -19.932   2.395  1.00  0.00     0.098 A 
HETATM   26  C   UNL     1      43.778 -20.911   3.270  1.00  0.00     0.018 A 
HETATM   27  C   UNL     1      44.085 -20.657   4.677  1.00  0.00     0.005 A 
ENDBRANCH  17  18
ENDBRANCH   2  17
TORSDOF 4
ENDMDL
MODEL 9
REMARK VINA RESULT:      -7.0      6.073      8.578
REMARK  4 active torsions:
REMARK  status: ('A' for Active; 'I' for Inactive)
REMARK    1  A    between atoms: N_2  and  C_3 
REMARK    2  A    between atoms: C_9  and  N_10 
REMARK       I    between atoms: N_10  and  C_11 
REMARK    3  A    between atoms: C_11  and  C_12 
REMARK    4  A    between atoms: C_12  and  C_13 
ROOT
HETATM    1  N   UNL     1      39.268 -13.307   0.738  1.00  0.00    -0.327 N 
HETATM    2  C   UNL     1      40.088 -14.383   1.035  1.00  0.00     0.227 C 
HETATM    3  O   UNL     1      40.974 -14.841   0.313  1.00  0.00    -0.273 OA
HETATM    4  H   UNL     1      38.531 -13.077   1.396  1.00  0.00     0.169 HD
ENDROOT
BRANCH   1   5
HETATM    5  C   UNL     1      39.322 -12.476  -0.405  1.00  0.00     0.037 A 
HETATM    6  C   UNL     1      40.216 -11.403  -0.540  1.00  0.00     0.069 A 
HETATM    7  C   UNL     1      40.108 -10.660  -1.712  1.00  0.00     0.110 A 
HETATM    8  O   UNL     1      40.838  -9.565  -2.066  1.00  0.00    -0.276 OA
HETATM    9  C   UNL     1      39.209 -10.910  -2.731  1.00  0.00     0.095 A 
HETATM   10  C   UNL     1      40.329  -9.199  -3.289  1.00  0.00     0.249 A 
HETATM   11  N   UNL     1      39.365  -9.984  -3.726  1.00  0.00    -0.206 NA
HETATM   12  C   UNL     1      38.331 -11.989  -2.605  1.00  0.00     0.037 A 
HETATM   13  C   UNL     1      38.398 -12.759  -1.431  1.00  0.00     0.032 A 
BRANCH  10  14
HETATM   14  N   UNL     1      40.845  -8.093  -3.876  1.00  0.00    -0.354 N 
HETATM   15  C   UNL     1      39.936  -7.056  -4.334  1.00  0.00     0.152 C 
HETATM   16  C   UNL     1      42.147  -7.653  -3.397  1.00  0.00     0.152 C 
ENDBRANCH  10  14
ENDBRANCH   1   5
BRANCH   2  17
HETATM   17  C   UNL     1      39.797 -14.976   2.403  1.00  0.00     0.161 C 
BRANCH  17  18
HETATM   18  C   UNL     1      40.908 -15.798   2.938  1.00  0.00     0.035 A 
HETATM   19  N   UNL     1      41.550 -16.808   2.229  1.00  0.00    -0.344 N 
HETATM   20  H   UNL     1      41.301 -17.059   1.266  1.00  0.00     0.167 HD
HETATM   21  C   UNL     1      42.497 -17.383   2.958  1.00  0.00     0.111 A 
HETATM   22  N   UNL     1      42.512 -16.761   4.152  1.00  0.00    -0.317 N 
HETATM   23  C   UNL     1      43.426 -18.497   2.654  1.00  0.00     0.049 A 
HETATM   24  C   UNL     1      41.543 -15.773   4.164  1.00  0.00     0.123 A 
HETATM   25  C   UNL     1      43.389 -17.111   5.160  1.00  0.00     0.098 A 
HETATM   26  C   UNL     1      44.245 -18.120   4.911  1.00  0.00     0.018 A 
HETATM   27  C   UNL     1      44.277 -18.840   3.639  1.00  0.00     0.005 A 
ENDBRANCH  17  18
ENDBRANCH   2  17
TORSDOF 4
ENDMDL
MODEL 10
REMARK VINA RESULT:      -7.0      3.047      9.055
REMARK  4 active torsions:
REMARK  status: ('A' for Active; 'I' for Inactive)
REMARK    1  A    between atoms: N_2  and  C_3 
REMARK    2  A    between atoms: C_9  and  N_10 
REMARK       I    between atoms: N_10  and  C_11 
REMARK    3  A    between atoms: C_11  and  C_12 
REMARK    4  A    between atoms: C_12  and  C_13 
ROOT
HETATM    1  N   UNL     1      43.972 -12.044   7.610  1.00  0.00    -0.327 N 
HETATM    2  C   UNL     1      45.107 -11.267   7.448  1.00  0.00     0.227 C 
HETATM    3  O   UNL     1      45.815 -11.218   6.441  1.00  0.00    -0.273 OA
HETATM    4  H   UNL     1      43.522 -12.040   8.520  1.00  0.00     0.169 HD
ENDROOT
BRANCH   1   5
HETATM    5  C   UNL     1      43.353 -12.873   6.646  1.00  0.00     0.037 A 
HETATM    6  C   UNL     1      42.538 -12.384   5.615  1.00  0.00     0.069 A 
HETATM    7  C   UNL     1      41.973 -13.341   4.775  1.00  0.00     0.110 A 
HETATM    8  O   UNL     1      41.133 -13.125   3.725  1.00  0.00    -0.276 OA
HETATM    9  C   UNL     1      42.167 -14.705   4.882  1.00  0.00     0.095 A 
HETATM   10  C   UNL     1      40.850 -14.385   3.253  1.00  0.00     0.249 A 
HETATM   11  N   UNL     1      41.457 -15.353   3.909  1.00  0.00    -0.206 NA
HETATM   12  C   UNL     1      42.993 -15.190   5.899  1.00  0.00     0.037 A 
HETATM   13  C   UNL     1      43.574 -14.259   6.777  1.00  0.00     0.032 A 
BRANCH  10  14
HETATM   14  N   UNL     1      39.987 -14.484   2.214  1.00  0.00    -0.354 N 
HETATM   15  C   UNL     1      39.746 -13.311   1.391  1.00  0.00     0.152 C 
HETATM   16  C   UNL     1      39.925 -15.774   1.545  1.00  0.00     0.152 C 
ENDBRANCH  10  14
ENDBRANCH   1   5
BRANCH   2  17
HETATM   17  C   UNL     1      45.419 -10.429   8.676  1.00  0.00     0.161 C 
BRANCH  17  18
HETATM   18  C   UNL     1      44.232 -10.158   9.522  1.00  0.00     0.035 A 
HETATM   19  N   UNL     1      44.143 -10.469  10.875  1.00  0.00    -0.344 N 
HETATM   20  H   UNL     1      44.908 -10.912  11.396  1.00  0.00     0.167 HD
HETATM   21  C   UNL     1      42.964 -10.124  11.374  1.00  0.00     0.111 A 
HETATM   22  N   UNL     1      42.257  -9.567  10.373  1.00  0.00    -0.317 N 
HETATM   23  C   UNL     1      42.398 -10.264  12.736  1.00  0.00     0.049 A 
HETATM   24  C   UNL     1      43.019  -9.570   9.218  1.00  0.00     0.123 A 
HETATM   25  C   UNL     1      40.973  -9.089  10.548  1.00  0.00     0.098 A 
HETATM   26  C   UNL     1      40.434  -9.204  11.777  1.00  0.00     0.018 A 
HETATM   27  C   UNL     1      41.145  -9.802  12.905  1.00  0.00     0.005 A 
ENDBRANCH  17  18
ENDBRANCH   2  17
TORSDOF 4
ENDMDL
