MODEL 1
REMARK VINA RESULT:      -8.2      0.000      0.000
REMARK  4 active torsions:
REMARK  status: ('A' for Active; 'I' for Inactive)
REMARK    1  A    between atoms: C_7  and  C_8 
REMARK    2  A    between atoms: C_8  and  O_9 
REMARK    3  A    between atoms: N_12  and  C_14 
REMARK    4  A    between atoms: C_14  and  C_15 
ROOT
HETATM    1  C   UNL     1      43.503 -16.020   1.496  1.00  0.00     0.001 A 
HETATM    2  C   UNL     1      43.523 -14.857   2.271  1.00  0.00     0.010 A 
HETATM    3  C   UNL     1      42.781 -14.803   3.453  1.00  0.00    -0.018 A 
HETATM    4  C   UNL     1      42.039 -15.922   3.847  1.00  0.00     0.075 A 
HETATM    5  O   UNL     1      41.318 -15.874   5.014  1.00  0.00    -0.350 OA
HETATM    6  C   UNL     1      42.148 -15.339   6.054  1.00  0.00     0.189 C 
HETATM    7  C   UNL     1      42.510 -13.859   5.792  1.00  0.00     0.036 C 
HETATM    8  C   UNL     1      42.671 -13.557   4.282  1.00  0.00     0.061 C 
HETATM    9  C   UNL     1      41.360 -12.955   6.274  1.00  0.00     0.250 C 
HETATM   10  N   UNL     1      41.039 -12.031   5.124  1.00  0.00    -0.064 N 
HETATM   11  H   UNL     1      40.019 -11.862   5.155  1.00  0.00     0.280 HD
HETATM   12  C   UNL     1      41.402 -12.792   3.892  1.00  0.00     0.245 C 
HETATM   13  C   UNL     1      41.987 -17.067   3.066  1.00  0.00     0.037 A 
HETATM   14  C   UNL     1      42.731 -17.117   1.888  1.00  0.00     0.003 A 
ENDROOT
BRANCH  10  15
HETATM   15  C   UNL     1      41.615 -10.639   5.220  1.00  0.00     0.294 C 
BRANCH  15  16
HETATM   16  C   UNL     1      41.650 -10.133   6.648  1.00  0.00     0.068 A 
HETATM   17  N   UNL     1      42.882 -10.168   7.263  1.00  0.00    -0.233 NA
HETATM   18  C   UNL     1      42.958  -9.703   8.477  1.00  0.00     0.137 A 
HETATM   19  N   UNL     1      41.880  -9.190   9.191  1.00  0.00    -0.272 N 
HETATM   20  C   UNL     1      44.282  -9.703   9.164  1.00  0.00     0.053 A 
HETATM   21  C   UNL     1      40.623  -9.154   8.613  1.00  0.00     0.255 A 
HETATM   22  C   UNL     1      42.040  -8.706  10.487  1.00  0.00     0.125 A 
HETATM   23  O   UNL     1      39.594  -8.736   9.137  1.00  0.00    -0.268 OA
HETATM   24  C   UNL     1      40.544  -9.659   7.232  1.00  0.00     0.104 A 
HETATM   25  C   UNL     1      43.233  -8.706  11.096  1.00  0.00     0.050 A 
HETATM   26  C   UNL     1      44.389  -9.220  10.408  1.00  0.00     0.029 A 
HETATM   27 CL   UNL     1      43.423  -8.101  12.693  1.00  0.00    -0.083 Cl
ENDBRANCH  15  16
ENDBRANCH  10  15
BRANCH   7  28
HETATM   28  C   UNL     1      43.801 -13.536   6.562  1.00  0.00     0.178 C 
BRANCH  28  29
HETATM   29  O   UNL     1      43.466 -13.081   7.862  1.00  0.00    -0.400 OA
HETATM   30  H   UNL     1      44.053 -12.329   8.080  1.00  0.00     0.209 HD
ENDBRANCH  28  29
ENDBRANCH   7  28
TORSDOF 4
ENDMDL
MODEL 2
REMARK VINA RESULT:      -8.2      2.225      3.692
REMARK  4 active torsions:
REMARK  status: ('A' for Active; 'I' for Inactive)
REMARK    1  A    between atoms: C_7  and  C_8 
REMARK    2  A    between atoms: C_8  and  O_9 
REMARK    3  A    between atoms: N_12  and  C_14 
REMARK    4  A    between atoms: C_14  and  C_15 
ROOT
HETATM    1  C   UNL     1      43.171 -18.142   6.375  1.00  0.00     0.001 A 
HETATM    2  C   UNL     1      42.548 -16.994   5.882  1.00  0.00     0.010 A 
HETATM    3  C   UNL     1      42.632 -16.692   4.521  1.00  0.00    -0.018 A 
HETATM    4  C   UNL     1      43.332 -17.555   3.671  1.00  0.00     0.075 A 
HETATM    5  O   UNL     1      43.408 -17.265   2.332  1.00  0.00    -0.350 OA
HETATM    6  C   UNL     1      42.099 -16.923   1.854  1.00  0.00     0.189 C 
HETATM    7  C   UNL     1      41.588 -15.606   2.480  1.00  0.00     0.036 C 
HETATM    8  C   UNL     1      42.078 -15.425   3.938  1.00  0.00     0.061 C 
HETATM    9  C   UNL     1      42.163 -14.409   1.700  1.00  0.00     0.250 C 
HETATM   10  N   UNL     1      42.768 -13.485   2.730  1.00  0.00    -0.064 N 
HETATM   11  H   UNL     1      43.597 -13.051   2.287  1.00  0.00     0.280 HD
HETATM   12  C   UNL     1      43.185 -14.370   3.858  1.00  0.00     0.245 C 
HETATM   13  C   UNL     1      43.983 -18.679   4.159  1.00  0.00     0.037 A 
HETATM   14  C   UNL     1      43.894 -18.977   5.518  1.00  0.00     0.003 A 
ENDROOT
BRANCH  10  15
HETATM   15  C   UNL     1      41.927 -12.293   3.117  1.00  0.00     0.294 C 
BRANCH  15  16
HETATM   16  C   UNL     1      42.328 -11.724   4.463  1.00  0.00     0.068 A 
HETATM   17  N   UNL     1      43.671 -11.787   4.760  1.00  0.00    -0.233 NA
HETATM   18  C   UNL     1      44.058 -11.271   5.892  1.00  0.00     0.137 A 
HETATM   19  N   UNL     1      43.205 -10.677   6.817  1.00  0.00    -0.272 N 
HETATM   20  C   UNL     1      45.509 -11.299   6.235  1.00  0.00     0.053 A 
HETATM   21  C   UNL     1      41.847 -10.611   6.561  1.00  0.00     0.255 A 
HETATM   22  C   UNL     1      43.695 -10.143   8.007  1.00  0.00     0.125 A 
HETATM   23  O   UNL     1      40.993 -10.123   7.295  1.00  0.00    -0.268 OA
HETATM   24  C   UNL     1      41.415 -11.174   5.271  1.00  0.00     0.104 A 
HETATM   25  C   UNL     1      45.000 -10.169   8.305  1.00  0.00     0.050 A 
HETATM   26  C   UNL     1      45.934 -10.766   7.387  1.00  0.00     0.029 A 
HETATM   27 CL   UNL     1      45.596  -9.500   9.773  1.00  0.00    -0.083 Cl
ENDBRANCH  15  16
ENDBRANCH  10  15
BRANCH   7  28
HETATM   28  C   UNL     1      40.053 -15.602   2.407  1.00  0.00     0.178 C 
BRANCH  28  29
HETATM   29  O   UNL     1      39.552 -14.531   3.189  1.00  0.00    -0.400 OA
HETATM   30  H   UNL     1      38.759 -14.848   3.665  1.00  0.00     0.209 HD
ENDBRANCH  28  29
ENDBRANCH   7  28
TORSDOF 4
ENDMDL
MODEL 3
REMARK VINA RESULT:      -8.0      3.388      8.923
REMARK  4 active torsions:
REMARK  status: ('A' for Active; 'I' for Inactive)
REMARK    1  A    between atoms: C_7  and  C_8 
REMARK    2  A    between atoms: C_8  and  O_9 
REMARK    3  A    between atoms: N_12  and  C_14 
REMARK    4  A    between atoms: C_14  and  C_15 
ROOT
HETATM    1  C   UNL     1      43.044  -7.297  14.376  1.00  0.00     0.001 A 
HETATM    2  C   UNL     1      43.589  -7.709  13.158  1.00  0.00     0.010 A 
HETATM    3  C   UNL     1      42.751  -7.909  12.059  1.00  0.00    -0.018 A 
HETATM    4  C   UNL     1      41.377  -7.679  12.196  1.00  0.00     0.075 A 
HETATM    5  O   UNL     1      40.553  -7.865  11.114  1.00  0.00    -0.350 OA
HETATM    6  C   UNL     1      41.133  -7.222   9.971  1.00  0.00     0.189 C 
HETATM    7  C   UNL     1      42.452  -7.903   9.540  1.00  0.00     0.036 C 
HETATM    8  C   UNL     1      43.248  -8.450  10.751  1.00  0.00     0.061 C 
HETATM    9  C   UNL     1      42.137  -9.129   8.665  1.00  0.00     0.250 C 
HETATM   10  N   UNL     1      42.912 -10.282   9.257  1.00  0.00    -0.064 N 
HETATM   11  H   UNL     1      42.334 -11.129   9.121  1.00  0.00     0.280 HD
HETATM   12  C   UNL     1      43.040  -9.967  10.710  1.00  0.00     0.245 C 
HETATM   13  C   UNL     1      40.825  -7.303  13.412  1.00  0.00     0.037 A 
HETATM   14  C   UNL     1      41.666  -7.103  14.505  1.00  0.00     0.003 A 
ENDROOT
BRANCH  10  15
HETATM   15  C   UNL     1      44.201 -10.635   8.554  1.00  0.00     0.294 C 
BRANCH  15  16
HETATM   16  C   UNL     1      43.964 -11.481   7.319  1.00  0.00     0.068 A 
HETATM   17  N   UNL     1      43.689 -12.811   7.551  1.00  0.00    -0.233 NA
HETATM   18  C   UNL     1      43.440 -13.560   6.515  1.00  0.00     0.137 A 
HETATM   19  N   UNL     1      43.448 -13.108   5.198  1.00  0.00    -0.272 N 
HETATM   20  C   UNL     1      43.114 -14.998   6.731  1.00  0.00     0.053 A 
HETATM   21  C   UNL     1      43.736 -11.782   4.925  1.00  0.00     0.255 A 
HETATM   22  C   UNL     1      43.167 -13.970   4.141  1.00  0.00     0.125 A 
HETATM   23  O   UNL     1      43.783 -11.263   3.813  1.00  0.00    -0.268 OA
HETATM   24  C   UNL     1      43.995 -10.933   6.100  1.00  0.00     0.104 A 
HETATM   25  C   UNL     1      42.872 -15.260   4.344  1.00  0.00     0.050 A 
HETATM   26  C   UNL     1      42.844 -15.787   5.683  1.00  0.00     0.029 A 
HETATM   27 CL   UNL     1      42.520 -16.314   3.033  1.00  0.00    -0.083 Cl
ENDBRANCH  15  16
ENDBRANCH  10  15
BRANCH   7  28
HETATM   28  C   UNL     1      43.284  -6.881   8.747  1.00  0.00     0.178 C 
BRANCH  28  29
HETATM   29  O   UNL     1      44.620  -7.345   8.648  1.00  0.00    -0.400 OA
HETATM   30  H   UNL     1      44.597  -8.318   8.557  1.00  0.00     0.209 HD
ENDBRANCH  28  29
ENDBRANCH   7  28
TORSDOF 4
ENDMDL
MODEL 4
REMARK VINA RESULT:      -7.8      5.188      6.138
REMARK  4 active torsions:
REMARK  status: ('A' for Active; 'I' for Inactive)
REMARK    1  A    between atoms: C_7  and  C_8 
REMARK    2  A    between atoms: C_8  and  O_9 
REMARK    3  A    between atoms: N_12  and  C_14 
REMARK    4  A    between atoms: C_14  and  C_15 
ROOT
HETATM    1  C   UNL     1      43.827 -19.569   2.794  1.00  0.00     0.001 A 
HETATM    2  C   UNL     1      43.158 -18.440   2.316  1.00  0.00     0.010 A 
HETATM    3  C   UNL     1      42.873 -17.386   3.187  1.00  0.00    -0.018 A 
HETATM    4  C   UNL     1      43.274 -17.475   4.524  1.00  0.00     0.075 A 
HETATM    5  O   UNL     1      43.004 -16.436   5.379  1.00  0.00    -0.350 OA
HETATM    6  C   UNL     1      43.377 -15.204   4.747  1.00  0.00     0.189 C 
HETATM    7  C   UNL     1      42.491 -14.900   3.518  1.00  0.00     0.036 C 
HETATM    8  C   UNL     1      42.068 -16.189   2.772  1.00  0.00     0.061 C 
HETATM    9  C   UNL     1      41.179 -14.241   3.980  1.00  0.00     0.250 C 
HETATM   10  N   UNL     1      40.061 -15.022   3.330  1.00  0.00    -0.064 N 
HETATM   11  H   UNL     1      39.274 -15.027   4.000  1.00  0.00     0.280 HD
HETATM   12  C   UNL     1      40.599 -16.402   3.148  1.00  0.00     0.245 C 
HETATM   13  C   UNL     1      43.908 -18.608   5.014  1.00  0.00     0.037 A 
HETATM   14  C   UNL     1      44.193 -19.656   4.140  1.00  0.00     0.003 A 
ENDROOT
BRANCH  10  15
HETATM   15  C   UNL     1      39.453 -14.394   2.099  1.00  0.00     0.294 C 
BRANCH  15  16
HETATM   16  C   UNL     1      39.583 -12.885   2.104  1.00  0.00     0.068 A 
HETATM   17  N   UNL     1      40.423 -12.355   1.150  1.00  0.00    -0.233 NA
HETATM   18  C   UNL     1      40.528 -11.058   1.098  1.00  0.00     0.137 A 
HETATM   19  N   UNL     1      39.860 -10.181   1.947  1.00  0.00    -0.272 N 
HETATM   20  C   UNL     1      41.410 -10.450   0.060  1.00  0.00     0.053 A 
HETATM   21  C   UNL     1      39.020 -10.677   2.929  1.00  0.00     0.255 A 
HETATM   22  C   UNL     1      40.019  -8.803   1.827  1.00  0.00     0.125 A 
HETATM   23  O   UNL     1      38.383 -10.013   3.742  1.00  0.00    -0.268 OA
HETATM   24  C   UNL     1      38.886 -12.142   2.971  1.00  0.00     0.104 A 
HETATM   25  C   UNL     1      40.811  -8.265   0.891  1.00  0.00     0.050 A 
HETATM   26  C   UNL     1      41.526  -9.118  -0.021  1.00  0.00     0.029 A 
HETATM   27 CL   UNL     1      40.996  -6.562   0.746  1.00  0.00    -0.083 Cl
ENDBRANCH  15  16
ENDBRANCH  10  15
BRANCH   7  28
HETATM   28  C   UNL     1      43.266 -13.951   2.589  1.00  0.00     0.178 C 
BRANCH  28  29
HETATM   29  O   UNL     1      42.947 -14.256   1.241  1.00  0.00    -0.400 OA
HETATM   30  H   UNL     1      43.321 -13.551   0.675  1.00  0.00     0.209 HD
ENDBRANCH  28  29
ENDBRANCH   7  28
TORSDOF 4
ENDMDL
MODEL 5
REMARK VINA RESULT:      -7.8      6.842      9.783
REMARK  4 active torsions:
REMARK  status: ('A' for Active; 'I' for Inactive)
REMARK    1  A    between atoms: C_7  and  C_8 
REMARK    2  A    between atoms: C_8  and  O_9 
REMARK    3  A    between atoms: N_12  and  C_14 
REMARK    4  A    between atoms: C_14  and  C_15 
ROOT
HETATM    1  C   UNL     1      45.571  -9.919   9.656  1.00  0.00     0.001 A 
HETATM    2  C   UNL     1      44.687 -10.025  10.733  1.00  0.00     0.010 A 
HETATM    3  C   UNL     1      43.626  -9.124  10.846  1.00  0.00    -0.018 A 
HETATM    4  C   UNL     1      43.459  -8.137   9.868  1.00  0.00     0.075 A 
HETATM    5  O   UNL     1      42.410  -7.257   9.972  1.00  0.00    -0.350 OA
HETATM    6  C   UNL     1      41.213  -7.992  10.258  1.00  0.00     0.189 C 
HETATM    7  C   UNL     1      41.267  -8.655  11.653  1.00  0.00     0.036 C 
HETATM    8  C   UNL     1      42.699  -9.110  12.026  1.00  0.00     0.061 C 
HETATM    9  C   UNL     1      40.868  -7.626  12.727  1.00  0.00     0.250 C 
HETATM   10  N   UNL     1      41.952  -7.669  13.777  1.00  0.00    -0.064 N 
HETATM   11  H   UNL     1      42.052  -6.705  14.139  1.00  0.00     0.280 HD
HETATM   12  C   UNL     1      43.189  -8.082  13.051  1.00  0.00     0.245 C 
HETATM   13  C   UNL     1      44.353  -8.004   8.815  1.00  0.00     0.037 A 
HETATM   14  C   UNL     1      45.409  -8.907   8.706  1.00  0.00     0.003 A 
ENDROOT
BRANCH  10  15
HETATM   15  C   UNL     1      41.632  -8.465  15.019  1.00  0.00     0.294 C 
BRANCH  15  16
HETATM   16  C   UNL     1      41.420  -7.577  16.228  1.00  0.00     0.068 A 
HETATM   17  N   UNL     1      40.851  -8.189  17.323  1.00  0.00    -0.233 NA
HETATM   18  C   UNL     1      40.690  -7.466  18.395  1.00  0.00     0.137 A 
HETATM   19  N   UNL     1      41.042  -6.124  18.498  1.00  0.00    -0.272 N 
HETATM   20  C   UNL     1      40.100  -8.103  19.608  1.00  0.00     0.053 A 
HETATM   21  C   UNL     1      41.600  -5.472  17.413  1.00  0.00     0.255 A 
HETATM   22  C   UNL     1      40.842  -5.417  19.682  1.00  0.00     0.125 A 
HETATM   23  O   UNL     1      41.945  -4.294  17.373  1.00  0.00    -0.268 OA
HETATM   24  C   UNL     1      41.802  -6.296  16.210  1.00  0.00     0.104 A 
HETATM   25  C   UNL     1      40.315  -5.997  20.767  1.00  0.00     0.050 A 
HETATM   26  C   UNL     1      39.935  -7.385  20.726  1.00  0.00     0.029 A 
HETATM   27 CL   UNL     1      40.080  -5.119  22.226  1.00  0.00    -0.083 Cl
ENDBRANCH  15  16
ENDBRANCH  10  15
BRANCH   7  28
HETATM   28  C   UNL     1      40.290  -9.841  11.660  1.00  0.00     0.178 C 
BRANCH  28  29
HETATM   29  O   UNL     1      40.604 -10.697  12.746  1.00  0.00    -0.400 OA
HETATM   30  H   UNL     1      41.521 -10.506  13.027  1.00  0.00     0.209 HD
ENDBRANCH  28  29
ENDBRANCH   7  28
TORSDOF 4
ENDMDL
MODEL 6
REMARK VINA RESULT:      -7.8      2.359      3.696
REMARK  4 active torsions:
REMARK  status: ('A' for Active; 'I' for Inactive)
REMARK    1  A    between atoms: C_7  and  C_8 
REMARK    2  A    between atoms: C_8  and  O_9 
REMARK    3  A    between atoms: N_12  and  C_14 
REMARK    4  A    between atoms: C_14  and  C_15 
ROOT
HETATM    1  C   UNL     1      43.265 -17.689   4.909  1.00  0.00     0.001 A 
HETATM    2  C   UNL     1      42.691 -16.417   4.849  1.00  0.00     0.010 A 
HETATM    3  C   UNL     1      42.520 -15.794   3.611  1.00  0.00    -0.018 A 
HETATM    4  C   UNL     1      42.917 -16.463   2.448  1.00  0.00     0.075 A 
HETATM    5  O   UNL     1      42.741 -15.857   1.229  1.00  0.00    -0.350 OA
HETATM    6  C   UNL     1      41.411 -15.325   1.162  1.00  0.00     0.189 C 
HETATM    7  C   UNL     1      41.204 -14.173   2.171  1.00  0.00     0.036 C 
HETATM    8  C   UNL     1      42.009 -14.390   3.476  1.00  0.00     0.061 C 
HETATM    9  C   UNL     1      41.738 -12.860   1.570  1.00  0.00     0.250 C 
HETATM   10  N   UNL     1      42.652 -12.259   2.611  1.00  0.00    -0.064 N 
HETATM   11  H   UNL     1      43.413 -11.783   2.097  1.00  0.00     0.280 HD
HETATM   12  C   UNL     1      43.191 -13.420   3.380  1.00  0.00     0.245 C 
HETATM   13  C   UNL     1      43.519 -17.712   2.502  1.00  0.00     0.037 A 
HETATM   14  C   UNL     1      43.685 -18.330   3.741  1.00  0.00     0.003 A 
ENDROOT
BRANCH  10  15
HETATM   15  C   UNL     1      42.059 -11.148   3.443  1.00  0.00     0.294 C 
BRANCH  15  16
HETATM   16  C   UNL     1      42.820 -10.935   4.736  1.00  0.00     0.068 A 
HETATM   17  N   UNL     1      42.112 -10.333   5.752  1.00  0.00    -0.233 NA
HETATM   18  C   UNL     1      42.721 -10.170   6.891  1.00  0.00     0.137 A 
HETATM   19  N   UNL     1      44.036 -10.550   7.141  1.00  0.00    -0.272 N 
HETATM   20  C   UNL     1      41.975  -9.544   8.021  1.00  0.00     0.053 A 
HETATM   21  C   UNL     1      44.785 -11.142   6.139  1.00  0.00     0.255 A 
HETATM   22  C   UNL     1      44.619 -10.345   8.389  1.00  0.00     0.125 A 
HETATM   23  O   UNL     1      45.952 -11.513   6.228  1.00  0.00    -0.268 OA
HETATM   24  C   UNL     1      44.087 -11.346   4.859  1.00  0.00     0.104 A 
HETATM   25  C   UNL     1      43.942  -9.786   9.399  1.00  0.00     0.050 A 
HETATM   26  C   UNL     1      42.576  -9.375   9.206  1.00  0.00     0.029 A 
HETATM   27 CL   UNL     1      44.668  -9.545  10.938  1.00  0.00    -0.083 Cl
ENDBRANCH  15  16
ENDBRANCH  10  15
BRANCH   7  28
HETATM   28  C   UNL     1      39.699 -14.054   2.462  1.00  0.00     0.178 C 
BRANCH  28  29
HETATM   29  O   UNL     1      39.144 -15.353   2.589  1.00  0.00    -0.400 OA
HETATM   30  H   UNL     1      39.881 -15.990   2.672  1.00  0.00     0.209 HD
ENDBRANCH  28  29
ENDBRANCH   7  28
TORSDOF 4
ENDMDL
MODEL 7
REMARK VINA RESULT:      -7.7      4.657      8.008
REMARK  4 active torsions:
REMARK  status: ('A' for Active; 'I' for Inactive)
REMARK    1  A    between atoms: C_7  and  C_8 
REMARK    2  A    between atoms: C_8  and  O_9 
REMARK    3  A    between atoms: N_12  and  C_14 
REMARK    4  A    between atoms: C_14  and  C_15 
ROOT
HETATM    1  C   UNL     1      43.045 -10.571   6.483  1.00  0.00     0.001 A 
HETATM    2  C   UNL     1      42.148 -11.504   5.958  1.00  0.00     0.010 A 
HETATM    3  C   UNL     1      42.499 -12.855   5.921  1.00  0.00    -0.018 A 
HETATM    4  C   UNL     1      43.743 -13.253   6.423  1.00  0.00     0.075 A 
HETATM    5  O   UNL     1      44.085 -14.582   6.397  1.00  0.00    -0.350 OA
HETATM    6  C   UNL     1      42.988 -15.356   6.898  1.00  0.00     0.189 C 
HETATM    7  C   UNL     1      41.760 -15.281   5.963  1.00  0.00     0.036 C 
HETATM    8  C   UNL     1      41.632 -13.898   5.278  1.00  0.00     0.061 C 
HETATM    9  C   UNL     1      41.924 -16.296   4.816  1.00  0.00     0.250 C 
HETATM   10  N   UNL     1      41.681 -15.531   3.537  1.00  0.00    -0.064 N 
HETATM   11  H   UNL     1      42.305 -15.944   2.822  1.00  0.00     0.280 HD
HETATM   12  C   UNL     1      42.088 -14.126   3.834  1.00  0.00     0.245 C 
HETATM   13  C   UNL     1      44.653 -12.328   6.914  1.00  0.00     0.037 A 
HETATM   14  C   UNL     1      44.297 -10.981   6.951  1.00  0.00     0.003 A 
ENDROOT
BRANCH  10  15
HETATM   15  C   UNL     1      40.311 -15.694   2.925  1.00  0.00     0.294 C 
BRANCH  15  16
HETATM   16  C   UNL     1      39.966 -14.556   1.986  1.00  0.00     0.068 A 
HETATM   17  N   UNL     1      40.240 -14.777   0.655  1.00  0.00    -0.233 NA
HETATM   18  C   UNL     1      39.918 -13.837  -0.187  1.00  0.00     0.137 A 
HETATM   19  N   UNL     1      39.333 -12.627   0.173  1.00  0.00    -0.272 N 
HETATM   20  C   UNL     1      40.178 -14.053  -1.639  1.00  0.00     0.053 A 
HETATM   21  C   UNL     1      39.058 -12.362   1.503  1.00  0.00     0.255 A 
HETATM   22  C   UNL     1      39.014 -11.669  -0.786  1.00  0.00     0.125 A 
HETATM   23  O   UNL     1      38.553 -11.335   1.950  1.00  0.00    -0.268 OA
HETATM   24  C   UNL     1      39.401 -13.436   2.450  1.00  0.00     0.104 A 
HETATM   25  C   UNL     1      39.247 -11.873  -2.089  1.00  0.00     0.050 A 
HETATM   26  C   UNL     1      39.847 -13.106  -2.526  1.00  0.00     0.029 A 
HETATM   27 CL   UNL     1      38.843 -10.688  -3.267  1.00  0.00    -0.083 Cl
ENDBRANCH  15  16
ENDBRANCH  10  15
BRANCH   7  28
HETATM   28  C   UNL     1      40.505 -15.608   6.788  1.00  0.00     0.178 C 
BRANCH  28  29
HETATM   29  O   UNL     1      39.495 -14.656   6.498  1.00  0.00    -0.400 OA
HETATM   30  H   UNL     1      38.712 -15.138   6.164  1.00  0.00     0.209 HD
ENDBRANCH  28  29
ENDBRANCH   7  28
TORSDOF 4
ENDMDL
MODEL 8
REMARK VINA RESULT:      -7.7      5.889      8.919
REMARK  4 active torsions:
REMARK  status: ('A' for Active; 'I' for Inactive)
REMARK    1  A    between atoms: C_7  and  C_8 
REMARK    2  A    between atoms: C_8  and  O_9 
REMARK    3  A    between atoms: N_12  and  C_14 
REMARK    4  A    between atoms: C_14  and  C_15 
ROOT
HETATM    1  C   UNL     1      43.816 -17.728   5.278  1.00  0.00     0.001 A 
HETATM    2  C   UNL     1      43.692 -16.786   4.255  1.00  0.00     0.010 A 
HETATM    3  C   UNL     1      42.887 -15.661   4.446  1.00  0.00    -0.018 A 
HETATM    4  C   UNL     1      42.226 -15.492   5.667  1.00  0.00     0.075 A 
HETATM    5  O   UNL     1      41.442 -14.382   5.861  1.00  0.00    -0.350 OA
HETATM    6  C   UNL     1      42.165 -13.220   5.433  1.00  0.00     0.189 C 
HETATM    7  C   UNL     1      42.409 -13.229   3.906  1.00  0.00     0.036 C 
HETATM    8  C   UNL     1      42.623 -14.661   3.358  1.00  0.00     0.061 C 
HETATM    9  C   UNL     1      41.160 -12.692   3.183  1.00  0.00     0.250 C 
HETATM   10  N   UNL     1      40.821 -13.706   2.117  1.00  0.00    -0.064 N 
HETATM   11  H   UNL     1      39.789 -13.717   2.036  1.00  0.00     0.280 HD
HETATM   12  C   UNL     1      41.315 -15.013   2.644  1.00  0.00     0.245 C 
HETATM   13  C   UNL     1      42.316 -16.441   6.675  1.00  0.00     0.037 A 
HETATM   14  C   UNL     1      43.123 -17.561   6.480  1.00  0.00     0.003 A 
ENDROOT
BRANCH  10  15
HETATM   15  C   UNL     1      41.266 -13.360   0.717  1.00  0.00     0.294 C 
BRANCH  15  16
HETATM   16  C   UNL     1      40.112 -13.357  -0.265  1.00  0.00     0.068 A 
HETATM   17  N   UNL     1      39.350 -12.209  -0.285  1.00  0.00    -0.233 NA
HETATM   18  C   UNL     1      38.374 -12.154  -1.145  1.00  0.00     0.137 A 
HETATM   19  N   UNL     1      38.046 -13.178  -2.029  1.00  0.00    -0.272 N 
HETATM   20  C   UNL     1      37.545 -10.916  -1.211  1.00  0.00     0.053 A 
HETATM   21  C   UNL     1      38.778 -14.352  -2.026  1.00  0.00     0.255 A 
HETATM   22  C   UNL     1      36.988 -13.043  -2.924  1.00  0.00     0.125 A 
HETATM   23  O   UNL     1      38.586 -15.329  -2.745  1.00  0.00    -0.268 OA
HETATM   24  C   UNL     1      39.895 -14.403  -1.069  1.00  0.00     0.104 A 
HETATM   25  C   UNL     1      36.250 -11.927  -2.979  1.00  0.00     0.050 A 
HETATM   26  C   UNL     1      36.542 -10.830  -2.095  1.00  0.00     0.029 A 
HETATM   27 CL   UNL     1      34.951 -11.767  -4.093  1.00  0.00    -0.083 Cl
ENDBRANCH  15  16
ENDBRANCH  10  15
BRANCH   7  28
HETATM   28  C   UNL     1      43.624 -12.335   3.608  1.00  0.00     0.178 C 
BRANCH  28  29
HETATM   29  O   UNL     1      43.178 -11.123   3.021  1.00  0.00    -0.400 OA
HETATM   30  H   UNL     1      42.533 -11.346   2.321  1.00  0.00     0.209 HD
ENDBRANCH  28  29
ENDBRANCH   7  28
TORSDOF 4
ENDMDL
MODEL 9
REMARK VINA RESULT:      -7.6      5.075      7.889
REMARK  4 active torsions:
REMARK  status: ('A' for Active; 'I' for Inactive)
REMARK    1  A    between atoms: C_7  and  C_8 
REMARK    2  A    between atoms: C_8  and  O_9 
REMARK    3  A    between atoms: N_12  and  C_14 
REMARK    4  A    between atoms: C_14  and  C_15 
ROOT
HETATM    1  C   UNL     1      37.208 -10.771  -2.966  1.00  0.00     0.001 A 
HETATM    2  C   UNL     1      37.473 -11.668  -1.928  1.00  0.00     0.010 A 
HETATM    3  C   UNL     1      38.763 -11.750  -1.399  1.00  0.00    -0.018 A 
HETATM    4  C   UNL     1      39.767 -10.922  -1.912  1.00  0.00     0.075 A 
HETATM    5  O   UNL     1      41.033 -10.994  -1.387  1.00  0.00    -0.350 OA
HETATM    6  C   UNL     1      40.945 -10.973   0.044  1.00  0.00     0.189 C 
HETATM    7  C   UNL     1      40.253 -12.241   0.593  1.00  0.00     0.036 C 
HETATM    8  C   UNL     1      39.147 -12.760  -0.357  1.00  0.00     0.061 C 
HETATM    9  C   UNL     1      41.280 -13.385   0.694  1.00  0.00     0.250 C 
HETATM   10  N   UNL     1      40.660 -14.572  -0.003  1.00  0.00    -0.064 N 
HETATM   11  H   UNL     1      41.435 -15.089  -0.454  1.00  0.00     0.280 HD
HETATM   12  C   UNL     1      39.750 -13.993  -1.036  1.00  0.00     0.245 C 
HETATM   13  C   UNL     1      39.519 -10.054  -2.967  1.00  0.00     0.037 A 
HETATM   14  C   UNL     1      38.230  -9.974  -3.489  1.00  0.00     0.003 A 
ENDROOT
BRANCH  10  15
HETATM   15  C   UNL     1      40.040 -15.612   0.899  1.00  0.00     0.294 C 
BRANCH  15  16
HETATM   16  C   UNL     1      40.862 -15.846   2.150  1.00  0.00     0.068 A 
HETATM   17  N   UNL     1      40.434 -15.179   3.277  1.00  0.00    -0.233 NA
HETATM   18  C   UNL     1      41.093 -15.388   4.381  1.00  0.00     0.137 A 
HETATM   19  N   UNL     1      42.200 -16.224   4.490  1.00  0.00    -0.272 N 
HETATM   20  C   UNL     1      40.642 -14.702   5.626  1.00  0.00     0.053 A 
HETATM   21  C   UNL     1      42.668 -16.897   3.376  1.00  0.00     0.255 A 
HETATM   22  C   UNL     1      42.850 -16.400   5.709  1.00  0.00     0.125 A 
HETATM   23  O   UNL     1      43.635 -17.654   3.338  1.00  0.00    -0.268 OA
HETATM   24  C   UNL     1      41.909 -16.678   2.134  1.00  0.00     0.104 A 
HETATM   25  C   UNL     1      42.437 -15.783   6.823  1.00  0.00     0.050 A 
HETATM   26  C   UNL     1      41.295 -14.909   6.777  1.00  0.00     0.029 A 
HETATM   27 CL   UNL     1      43.242 -16.013   8.324  1.00  0.00    -0.083 Cl
ENDBRANCH  15  16
ENDBRANCH  10  15
BRANCH   7  28
HETATM   28  C   UNL     1      39.682 -11.914   1.982  1.00  0.00     0.178 C 
BRANCH  28  29
HETATM   29  O   UNL     1      38.629 -12.818   2.277  1.00  0.00    -0.400 OA
HETATM   30  H   UNL     1      38.997 -13.723   2.275  1.00  0.00     0.209 HD
ENDBRANCH  28  29
ENDBRANCH   7  28
TORSDOF 4
ENDMDL
MODEL 10
REMARK VINA RESULT:      -7.5      3.770      8.446
REMARK  4 active torsions:
REMARK  status: ('A' for Active; 'I' for Inactive)
REMARK    1  A    between atoms: C_7  and  C_8 
REMARK    2  A    between atoms: C_8  and  O_9 
REMARK    3  A    between atoms: N_12  and  C_14 
REMARK    4  A    between atoms: C_14  and  C_15 
ROOT
HETATM    1  C   UNL     1      45.376  -9.246   9.115  1.00  0.00     0.001 A 
HETATM    2  C   UNL     1      45.016  -9.838   7.902  1.00  0.00     0.010 A 
HETATM    3  C   UNL     1      43.667 -10.059   7.615  1.00  0.00    -0.018 A 
HETATM    4  C   UNL     1      42.697  -9.671   8.546  1.00  0.00     0.075 A 
HETATM    5  O   UNL     1      41.370  -9.878   8.262  1.00  0.00    -0.350 OA
HETATM    6  C   UNL     1      41.103  -9.422   6.928  1.00  0.00     0.189 C 
HETATM    7  C   UNL     1      41.837 -10.280   5.873  1.00  0.00     0.036 C 
HETATM    8  C   UNL     1      43.210 -10.782   6.382  1.00  0.00     0.061 C 
HETATM    9  C   UNL     1      41.016 -11.549   5.581  1.00  0.00     0.250 C 
HETATM   10  N   UNL     1      41.970 -12.711   5.718  1.00  0.00    -0.064 N 
HETATM   11  H   UNL     1      41.423 -13.501   6.101  1.00  0.00     0.280 HD
HETATM   12  C   UNL     1      42.997 -12.264   6.705  1.00  0.00     0.245 C 
HETATM   13  C   UNL     1      43.049  -9.114   9.768  1.00  0.00     0.037 A 
HETATM   14  C   UNL     1      44.396  -8.894  10.048  1.00  0.00     0.003 A 
ENDROOT
BRANCH  10  15
HETATM   15  C   UNL     1      42.513 -13.271   4.425  1.00  0.00     0.294 C 
BRANCH  15  16
HETATM   16  C   UNL     1      42.885 -14.735   4.548  1.00  0.00     0.068 A 
HETATM   17  N   UNL     1      42.692 -15.495   3.416  1.00  0.00    -0.233 NA
HETATM   18  C   UNL     1      43.038 -16.750   3.472  1.00  0.00     0.137 A 
HETATM   19  N   UNL     1      43.574 -17.368   4.597  1.00  0.00    -0.272 N 
HETATM   20  C   UNL     1      42.866 -17.596   2.256  1.00  0.00     0.053 A 
HETATM   21  C   UNL     1      43.766 -16.640   5.758  1.00  0.00     0.255 A 
HETATM   22  C   UNL     1      43.924 -18.715   4.579  1.00  0.00     0.125 A 
HETATM   23  O   UNL     1      44.220 -17.067   6.816  1.00  0.00    -0.268 OA
HETATM   24  C   UNL     1      43.395 -15.217   5.686  1.00  0.00     0.104 A 
HETATM   25  C   UNL     1      43.770 -19.468   3.483  1.00  0.00     0.050 A 
HETATM   26  C   UNL     1      43.225 -18.886   2.284  1.00  0.00     0.029 A 
HETATM   27 CL   UNL     1      44.213 -21.129   3.467  1.00  0.00    -0.083 Cl
ENDBRANCH  15  16
ENDBRANCH  10  15
BRANCH   7  28
HETATM   28  C   UNL     1      41.993  -9.440   4.595  1.00  0.00     0.178 C 
BRANCH  28  29
HETATM   29  O   UNL     1      41.551  -8.117   4.849  1.00  0.00    -0.400 OA
HETATM   30  H   UNL     1      42.283  -7.631   5.277  1.00  0.00     0.209 HD
ENDBRANCH  28  29
ENDBRANCH   7  28
TORSDOF 4
ENDMDL
