MODEL 1
REMARK VINA RESULT:      -8.2      0.000      0.000
REMARK  6 active torsions:
REMARK  status: ('A' for Active; 'I' for Inactive)
REMARK    1  A    between atoms: C_2  and  O_3 
REMARK    2  A    between atoms: O_3  and  C_4 
REMARK    3  A    between atoms: C_4  and  C_5 
REMARK    4  A    between atoms: C_6  and  O_7 
REMARK    5  A    between atoms: C_12  and  O_13 
REMARK    6  A    between atoms: C_17  and  C_18 
ROOT
HETATM    1  C   UNL     1      42.340 -15.616   5.641  1.00  0.00     0.133 C 
HETATM    2  C   UNL     1      40.799 -15.395   5.489  1.00  0.00     0.073 C 
HETATM    3  C   UNL     1      40.107 -15.166   6.842  1.00  0.00     0.047 C 
HETATM    4  C   UNL     1      40.403 -14.261   4.497  1.00  0.00     0.097 C 
HETATM    5  C   UNL     1      41.342 -14.228   3.346  1.00  0.00     0.042 A 
HETATM    6  C   UNL     1      42.565 -14.857   3.239  1.00  0.00     0.030 A 
HETATM    7  C   UNL     1      43.021 -14.466   1.972  1.00  0.00     0.190 A 
HETATM    8  N   UNL     1      42.185 -13.659   1.330  1.00  0.00    -0.149 NA
HETATM    9  N   UNL     1      41.152 -13.538   2.183  1.00  0.00    -0.279 N 
HETATM   10  H   UNL     1      40.363 -12.966   1.905  1.00  0.00     0.189 HD
HETATM   11  C   UNL     1      43.157 -15.693   4.321  1.00  0.00     0.075 C 
ENDROOT
BRANCH  11  12
HETATM   12  C   UNL     1      43.310 -17.112   3.785  1.00  0.00    -0.045 A 
HETATM   13  C   UNL     1      44.020 -18.048   4.560  1.00  0.00     0.050 A 
HETATM   14  C   UNL     1      44.171 -19.361   4.121  1.00  0.00     0.117 A 
HETATM   15  F   UNL     1      44.857 -20.230   4.874  1.00  0.00    -0.206 F 
HETATM   16  C   UNL     1      43.621 -19.783   2.919  1.00  0.00     0.042 A 
HETATM   17  C   UNL     1      42.904 -18.877   2.144  1.00  0.00     0.004 A 
HETATM   18  C   UNL     1      42.746 -17.556   2.575  1.00  0.00     0.008 A 
ENDBRANCH  11  12
BRANCH   1  19
HETATM   19  C   UNL     1      43.028 -14.586   6.517  1.00  0.00     0.267 C 
HETATM   20  O   UNL     1      43.080 -14.694   7.735  1.00  0.00    -0.265 OA
BRANCH  19  21
HETATM   21  O   UNL     1      43.622 -13.608   5.793  1.00  0.00    -0.316 OA
BRANCH  21  22
HETATM   22  C   UNL     1      43.491 -12.222   6.182  1.00  0.00     0.123 C 
HETATM   23  C   UNL     1      43.054 -11.347   5.014  1.00  0.00     0.040 C 
HETATM   24  C   UNL     1      44.730 -11.699   6.899  1.00  0.00     0.040 C 
ENDBRANCH  21  22
ENDBRANCH  19  21
ENDBRANCH   1  19
BRANCH   2  25
HETATM   25  O   UNL     1      40.213 -16.613   4.976  1.00  0.00    -0.389 OA
HETATM   26  H   UNL     1      39.631 -16.992   5.658  1.00  0.00     0.210 HD
ENDBRANCH   2  25
BRANCH   7  27
HETATM   27  O   UNL     1      44.146 -14.792   1.334  1.00  0.00    -0.343 OA
HETATM   28  H   UNL     1      44.421 -15.682   1.600  1.00  0.00     0.219 HD
ENDBRANCH   7  27
TORSDOF 6
ENDMDL
MODEL 2
REMARK VINA RESULT:      -7.7      2.868      5.055
REMARK  6 active torsions:
REMARK  status: ('A' for Active; 'I' for Inactive)
REMARK    1  A    between atoms: C_2  and  O_3 
REMARK    2  A    between atoms: O_3  and  C_4 
REMARK    3  A    between atoms: C_4  and  C_5 
REMARK    4  A    between atoms: C_6  and  O_7 
REMARK    5  A    between atoms: C_12  and  O_13 
REMARK    6  A    between atoms: C_17  and  C_18 
ROOT
HETATM    1  C   UNL     1      41.329 -14.105   2.345  1.00  0.00     0.133 C 
HETATM    2  C   UNL     1      42.021 -12.847   2.966  1.00  0.00     0.073 C 
HETATM    3  C   UNL     1      42.190 -11.711   1.946  1.00  0.00     0.047 C 
HETATM    4  C   UNL     1      41.334 -12.301   4.253  1.00  0.00     0.097 C 
HETATM    5  C   UNL     1      40.804 -13.420   5.073  1.00  0.00     0.042 A 
HETATM    6  C   UNL     1      40.635 -14.735   4.693  1.00  0.00     0.030 A 
HETATM    7  C   UNL     1      40.086 -15.335   5.837  1.00  0.00     0.190 A 
HETATM    8  N   UNL     1      39.909 -14.492   6.847  1.00  0.00    -0.149 NA
HETATM    9  N   UNL     1      40.372 -13.326   6.365  1.00  0.00    -0.279 N 
HETATM   10  H   UNL     1      40.352 -12.512   6.971  1.00  0.00     0.189 HD
HETATM   11  C   UNL     1      40.964 -15.247   3.334  1.00  0.00     0.075 C 
ENDROOT
BRANCH  11  12
HETATM   12  C   UNL     1      42.062 -16.295   3.481  1.00  0.00    -0.045 A 
HETATM   13  C   UNL     1      42.165 -17.298   2.500  1.00  0.00     0.050 A 
HETATM   14  C   UNL     1      43.162 -18.267   2.581  1.00  0.00     0.117 A 
HETATM   15  F   UNL     1      43.235 -19.215   1.637  1.00  0.00    -0.206 F 
HETATM   16  C   UNL     1      44.082 -18.265   3.620  1.00  0.00     0.042 A 
HETATM   17  C   UNL     1      44.005 -17.274   4.594  1.00  0.00     0.004 A 
HETATM   18  C   UNL     1      43.008 -16.296   4.522  1.00  0.00     0.008 A 
ENDBRANCH  11  12
BRANCH   1  19
HETATM   19  C   UNL     1      40.070 -13.791   1.560  1.00  0.00     0.267 C 
HETATM   20  O   UNL     1      39.209 -13.030   1.984  1.00  0.00    -0.265 OA
BRANCH  19  21
HETATM   21  O   UNL     1      40.061 -14.380   0.342  1.00  0.00    -0.316 OA
BRANCH  21  22
HETATM   22  C   UNL     1      39.574 -13.665  -0.817  1.00  0.00     0.123 C 
HETATM   23  C   UNL     1      39.099 -14.617  -1.909  1.00  0.00     0.040 C 
HETATM   24  C   UNL     1      40.565 -12.620  -1.315  1.00  0.00     0.040 C 
ENDBRANCH  21  22
ENDBRANCH  19  21
ENDBRANCH   1  19
BRANCH   2  25
HETATM   25  O   UNL     1      43.369 -13.208   3.342  1.00  0.00    -0.389 OA
HETATM   26  H   UNL     1      43.515 -12.952   4.271  1.00  0.00     0.210 HD
ENDBRANCH   2  25
BRANCH   7  27
HETATM   27  O   UNL     1      39.736 -16.604   6.047  1.00  0.00    -0.343 OA
HETATM   28  H   UNL     1      40.315 -17.187   5.535  1.00  0.00     0.219 HD
ENDBRANCH   7  27
TORSDOF 6
ENDMDL
MODEL 3
REMARK VINA RESULT:      -7.3      3.983      6.098
REMARK  6 active torsions:
REMARK  status: ('A' for Active; 'I' for Inactive)
REMARK    1  A    between atoms: C_2  and  O_3 
REMARK    2  A    between atoms: O_3  and  C_4 
REMARK    3  A    between atoms: C_4  and  C_5 
REMARK    4  A    between atoms: C_6  and  O_7 
REMARK    5  A    between atoms: C_12  and  O_13 
REMARK    6  A    between atoms: C_17  and  C_18 
ROOT
HETATM    1  C   UNL     1      41.055 -14.913   1.648  1.00  0.00     0.133 C 
HETATM    2  C   UNL     1      40.290 -14.765   3.005  1.00  0.00     0.073 C 
HETATM    3  C   UNL     1      40.316 -16.060   3.832  1.00  0.00     0.047 C 
HETATM    4  C   UNL     1      40.759 -13.568   3.885  1.00  0.00     0.097 C 
HETATM    5  C   UNL     1      41.122 -12.408   3.031  1.00  0.00     0.042 A 
HETATM    6  C   UNL     1      41.330 -12.399   1.667  1.00  0.00     0.030 A 
HETATM    7  C   UNL     1      41.667 -11.063   1.400  1.00  0.00     0.190 A 
HETATM    8  N   UNL     1      41.686 -10.292   2.481  1.00  0.00    -0.149 NA
HETATM    9  N   UNL     1      41.332 -11.132   3.469  1.00  0.00    -0.279 N 
HETATM   10  H   UNL     1      41.263 -10.764   4.412  1.00  0.00     0.189 HD
HETATM   11  C   UNL     1      41.227 -13.614   0.812  1.00  0.00     0.075 C 
ENDROOT
BRANCH  11  12
HETATM   12  C   UNL     1      40.102 -13.385  -0.192  1.00  0.00    -0.045 A 
HETATM   13  C   UNL     1      40.011 -14.244  -1.303  1.00  0.00     0.050 A 
HETATM   14  C   UNL     1      38.991 -14.087  -2.237  1.00  0.00     0.117 A 
HETATM   15  F   UNL     1      38.931 -14.914  -3.289  1.00  0.00    -0.206 F 
HETATM   16  C   UNL     1      38.035 -13.091  -2.095  1.00  0.00     0.042 A 
HETATM   17  C   UNL     1      38.099 -12.239  -0.996  1.00  0.00     0.004 A 
HETATM   18  C   UNL     1      39.119 -12.389  -0.051  1.00  0.00     0.008 A 
ENDBRANCH  11  12
BRANCH   1  19
HETATM   19  C   UNL     1      42.434 -15.529   1.781  1.00  0.00     0.267 C 
HETATM   20  O   UNL     1      43.453 -14.849   1.809  1.00  0.00    -0.265 OA
BRANCH  19  21
HETATM   21  O   UNL     1      42.387 -16.872   1.939  1.00  0.00    -0.316 OA
BRANCH  21  22
HETATM   22  C   UNL     1      43.479 -17.578   2.570  1.00  0.00     0.123 C 
HETATM   23  C   UNL     1      43.427 -19.073   2.282  1.00  0.00     0.040 C 
HETATM   24  C   UNL     1      43.601 -17.252   4.054  1.00  0.00     0.040 C 
ENDBRANCH  21  22
ENDBRANCH  19  21
ENDBRANCH   1  19
BRANCH   2  25
HETATM   25  O   UNL     1      38.891 -14.540   2.717  1.00  0.00    -0.389 OA
HETATM   26  H   UNL     1      38.709 -14.820   1.803  1.00  0.00     0.210 HD
ENDBRANCH   2  25
BRANCH   7  27
HETATM   27  O   UNL     1      41.954 -10.475   0.238  1.00  0.00    -0.343 OA
HETATM   28  H   UNL     1      41.400  -9.688   0.131  1.00  0.00     0.219 HD
ENDBRANCH   7  27
TORSDOF 6
ENDMDL
MODEL 4
REMARK VINA RESULT:      -7.3      2.679      3.416
REMARK  6 active torsions:
REMARK  status: ('A' for Active; 'I' for Inactive)
REMARK    1  A    between atoms: C_2  and  O_3 
REMARK    2  A    between atoms: O_3  and  C_4 
REMARK    3  A    between atoms: C_4  and  C_5 
REMARK    4  A    between atoms: C_6  and  O_7 
REMARK    5  A    between atoms: C_12  and  O_13 
REMARK    6  A    between atoms: C_17  and  C_18 
ROOT
HETATM    1  C   UNL     1      41.928 -12.310   5.263  1.00  0.00     0.133 C 
HETATM    2  C   UNL     1      40.440 -12.034   5.658  1.00  0.00     0.073 C 
HETATM    3  C   UNL     1      40.258 -10.659   6.321  1.00  0.00     0.047 C 
HETATM    4  C   UNL     1      39.421 -12.194   4.491  1.00  0.00     0.097 C 
HETATM    5  C   UNL     1      39.826 -13.310   3.598  1.00  0.00     0.042 A 
HETATM    6  C   UNL     1      41.045 -13.956   3.558  1.00  0.00     0.030 A 
HETATM    7  C   UNL     1      40.881 -14.892   2.526  1.00  0.00     0.190 A 
HETATM    8  N   UNL     1      39.685 -14.849   1.952  1.00  0.00    -0.149 NA
HETATM    9  N   UNL     1      39.046 -13.883   2.635  1.00  0.00    -0.279 N 
HETATM   10  H   UNL     1      38.087 -13.668   2.382  1.00  0.00     0.189 HD
HETATM   11  C   UNL     1      42.191 -13.602   4.440  1.00  0.00     0.075 C 
ENDROOT
BRANCH  11  12
HETATM   12  C   UNL     1      42.509 -14.818   5.305  1.00  0.00    -0.045 A 
HETATM   13  C   UNL     1      43.847 -15.043   5.676  1.00  0.00     0.050 A 
HETATM   14  C   UNL     1      44.185 -16.130   6.480  1.00  0.00     0.117 A 
HETATM   15  F   UNL     1      45.467 -16.326   6.813  1.00  0.00    -0.206 F 
HETATM   16  C   UNL     1      43.216 -17.009   6.941  1.00  0.00     0.042 A 
HETATM   17  C   UNL     1      41.885 -16.796   6.597  1.00  0.00     0.004 A 
HETATM   18  C   UNL     1      41.534 -15.708   5.790  1.00  0.00     0.008 A 
ENDBRANCH  11  12
BRANCH   1  19
HETATM   19  C   UNL     1      42.588 -11.173   4.507  1.00  0.00     0.267 C 
HETATM   20  O   UNL     1      42.270 -10.879   3.362  1.00  0.00    -0.265 OA
BRANCH  19  21
HETATM   21  O   UNL     1      43.484 -10.500   5.267  1.00  0.00    -0.316 OA
BRANCH  21  22
HETATM   22  C   UNL     1      44.013 -11.090   6.476  1.00  0.00     0.123 C 
HETATM   23  C   UNL     1      43.779 -10.197   7.689  1.00  0.00     0.040 C 
HETATM   24  C   UNL     1      45.463 -11.532   6.322  1.00  0.00     0.040 C 
ENDBRANCH  21  22
ENDBRANCH  19  21
ENDBRANCH   1  19
BRANCH   2  25
HETATM   25  O   UNL     1      40.053 -12.986   6.675  1.00  0.00    -0.389 OA
HETATM   26  H   UNL     1      39.083 -13.069   6.674  1.00  0.00     0.210 HD
ENDBRANCH   2  25
BRANCH   7  27
HETATM   27  O   UNL     1      41.736 -15.804   2.061  1.00  0.00    -0.343 OA
HETATM   28  H   UNL     1      41.392 -16.690   2.243  1.00  0.00     0.219 HD
ENDBRANCH   7  27
TORSDOF 6
ENDMDL
MODEL 5
REMARK VINA RESULT:      -7.1      3.343      5.671
REMARK  6 active torsions:
REMARK  status: ('A' for Active; 'I' for Inactive)
REMARK    1  A    between atoms: C_2  and  O_3 
REMARK    2  A    between atoms: O_3  and  C_4 
REMARK    3  A    between atoms: C_4  and  C_5 
REMARK    4  A    between atoms: C_6  and  O_7 
REMARK    5  A    between atoms: C_12  and  O_13 
REMARK    6  A    between atoms: C_17  and  C_18 
ROOT
HETATM    1  C   UNL     1      41.146 -14.797   4.331  1.00  0.00     0.133 C 
HETATM    2  C   UNL     1      40.736 -14.545   5.819  1.00  0.00     0.073 C 
HETATM    3  C   UNL     1      40.417 -15.849   6.565  1.00  0.00     0.047 C 
HETATM    4  C   UNL     1      41.761 -13.707   6.639  1.00  0.00     0.097 C 
HETATM    5  C   UNL     1      42.381 -12.663   5.783  1.00  0.00     0.042 A 
HETATM    6  C   UNL     1      42.341 -12.569   4.407  1.00  0.00     0.030 A 
HETATM    7  C   UNL     1      43.102 -11.422   4.139  1.00  0.00     0.190 A 
HETATM    8  N   UNL     1      43.592 -10.840   5.227  1.00  0.00    -0.149 NA
HETATM    9  N   UNL     1      43.124 -11.607   6.227  1.00  0.00    -0.279 N 
HETATM   10  H   UNL     1      43.360 -11.351   7.180  1.00  0.00     0.189 HD
HETATM   11  C   UNL     1      41.646 -13.557   3.536  1.00  0.00     0.075 C 
ENDROOT
BRANCH  11  12
HETATM   12  C   UNL     1      40.535 -12.826   2.792  1.00  0.00    -0.045 A 
HETATM   13  C   UNL     1      40.269 -13.190   1.459  1.00  0.00     0.050 A 
HETATM   14  C   UNL     1      39.252 -12.564   0.744  1.00  0.00     0.117 A 
HETATM   15  F   UNL     1      39.024 -12.925  -0.526  1.00  0.00    -0.206 F 
HETATM   16  C   UNL     1      38.471 -11.574   1.324  1.00  0.00     0.042 A 
HETATM   17  C   UNL     1      38.709 -11.208   2.645  1.00  0.00     0.004 A 
HETATM   18  C   UNL     1      39.727 -11.832   3.373  1.00  0.00     0.008 A 
ENDBRANCH  11  12
BRANCH   1  19
HETATM   19  C   UNL     1      42.196 -15.877   4.155  1.00  0.00     0.267 C 
HETATM   20  O   UNL     1      43.281 -15.831   4.720  1.00  0.00    -0.265 OA
BRANCH  19  21
HETATM   21  O   UNL     1      41.760 -16.899   3.382  1.00  0.00    -0.316 OA
BRANCH  21  22
HETATM   22  C   UNL     1      42.527 -17.334   2.236  1.00  0.00     0.123 C 
HETATM   23  C   UNL     1      43.509 -18.440   2.602  1.00  0.00     0.040 C 
HETATM   24  C   UNL     1      43.176 -16.171   1.494  1.00  0.00     0.040 C 
ENDBRANCH  21  22
ENDBRANCH  19  21
ENDBRANCH   1  19
BRANCH   2  25
HETATM   25  O   UNL     1      39.496 -13.801   5.830  1.00  0.00    -0.389 OA
HETATM   26  H   UNL     1      38.886 -14.197   5.183  1.00  0.00     0.210 HD
ENDBRANCH   2  25
BRANCH   7  27
HETATM   27  O   UNL     1      43.385 -10.843   2.971  1.00  0.00    -0.343 OA
HETATM   28  H   UNL     1      43.923 -10.053   3.125  1.00  0.00     0.219 HD
ENDBRANCH   7  27
TORSDOF 6
ENDMDL
MODEL 6
REMARK VINA RESULT:      -7.1      2.789      4.663
REMARK  6 active torsions:
REMARK  status: ('A' for Active; 'I' for Inactive)
REMARK    1  A    between atoms: C_2  and  O_3 
REMARK    2  A    between atoms: O_3  and  C_4 
REMARK    3  A    between atoms: C_4  and  C_5 
REMARK    4  A    between atoms: C_6  and  O_7 
REMARK    5  A    between atoms: C_12  and  O_13 
REMARK    6  A    between atoms: C_17  and  C_18 
ROOT
HETATM    1  C   UNL     1      41.359 -13.703   2.425  1.00  0.00     0.133 C 
HETATM    2  C   UNL     1      42.118 -12.568   3.189  1.00  0.00     0.073 C 
HETATM    3  C   UNL     1      42.345 -11.327   2.313  1.00  0.00     0.047 C 
HETATM    4  C   UNL     1      41.463 -12.147   4.538  1.00  0.00     0.097 C 
HETATM    5  C   UNL     1      40.876 -13.329   5.221  1.00  0.00     0.042 A 
HETATM    6  C   UNL     1      40.637 -14.577   4.686  1.00  0.00     0.030 A 
HETATM    7  C   UNL     1      40.059 -15.281   5.753  1.00  0.00     0.190 A 
HETATM    8  N   UNL     1      39.928 -14.560   6.860  1.00  0.00    -0.149 NA
HETATM    9  N   UNL     1      40.452 -13.369   6.518  1.00  0.00    -0.279 N 
HETATM   10  H   UNL     1      40.477 -12.636   7.219  1.00  0.00     0.189 HD
HETATM   11  C   UNL     1      40.936 -14.936   3.272  1.00  0.00     0.075 C 
ENDROOT
BRANCH  11  12
HETATM   12  C   UNL     1      41.976 -16.051   3.281  1.00  0.00    -0.045 A 
HETATM   13  C   UNL     1      42.902 -16.094   4.340  1.00  0.00     0.050 A 
HETATM   14  C   UNL     1      43.859 -17.103   4.402  1.00  0.00     0.117 A 
HETATM   15  F   UNL     1      44.733 -17.117   5.416  1.00  0.00    -0.206 F 
HETATM   16  C   UNL     1      43.921 -18.094   3.432  1.00  0.00     0.042 A 
HETATM   17  C   UNL     1      43.005 -18.078   2.384  1.00  0.00     0.004 A 
HETATM   18  C   UNL     1      42.039 -17.069   2.312  1.00  0.00     0.008 A 
ENDBRANCH  11  12
BRANCH   1  19
HETATM   19  C   UNL     1      40.116 -13.231   1.695  1.00  0.00     0.267 C 
HETATM   20  O   UNL     1      39.942 -13.439   0.501  1.00  0.00    -0.265 OA
BRANCH  19  21
HETATM   21  O   UNL     1      39.223 -12.641   2.524  1.00  0.00    -0.316 OA
BRANCH  21  22
HETATM   22  C   UNL     1      38.698 -11.328   2.225  1.00  0.00     0.123 C 
HETATM   23  C   UNL     1      38.621 -10.454   3.471  1.00  0.00     0.040 C 
HETATM   24  C   UNL     1      37.388 -11.388   1.448  1.00  0.00     0.040 C 
ENDBRANCH  21  22
ENDBRANCH  19  21
ENDBRANCH   1  19
BRANCH   2  25
HETATM   25  O   UNL     1      43.446 -13.042   3.507  1.00  0.00    -0.389 OA
HETATM   26  H   UNL     1      43.651 -13.806   2.940  1.00  0.00     0.210 HD
ENDBRANCH   2  25
BRANCH   7  27
HETATM   27  O   UNL     1      39.642 -16.547   5.810  1.00  0.00    -0.343 OA
HETATM   28  H   UNL     1      38.910 -16.673   5.190  1.00  0.00     0.219 HD
ENDBRANCH   7  27
TORSDOF 6
ENDMDL
MODEL 7
REMARK VINA RESULT:      -7.1      1.475      1.910
REMARK  6 active torsions:
REMARK  status: ('A' for Active; 'I' for Inactive)
REMARK    1  A    between atoms: C_2  and  O_3 
REMARK    2  A    between atoms: O_3  and  C_4 
REMARK    3  A    between atoms: C_4  and  C_5 
REMARK    4  A    between atoms: C_6  and  O_7 
REMARK    5  A    between atoms: C_12  and  O_13 
REMARK    6  A    between atoms: C_17  and  C_18 
ROOT
HETATM    1  C   UNL     1      42.200 -14.136   5.138  1.00  0.00     0.133 C 
HETATM    2  C   UNL     1      40.641 -14.191   5.254  1.00  0.00     0.073 C 
HETATM    3  C   UNL     1      40.109 -13.311   6.395  1.00  0.00     0.047 C 
HETATM    4  C   UNL     1      39.883 -13.857   3.934  1.00  0.00     0.097 C 
HETATM    5  C   UNL     1      40.626 -14.385   2.761  1.00  0.00     0.042 A 
HETATM    6  C   UNL     1      41.927 -14.841   2.725  1.00  0.00     0.030 A 
HETATM    7  C   UNL     1      42.111 -15.188   1.378  1.00  0.00     0.190 A 
HETATM    8  N   UNL     1      41.043 -14.969   0.620  1.00  0.00    -0.149 NA
HETATM    9  N   UNL     1      40.136 -14.491   1.491  1.00  0.00    -0.279 N 
HETATM   10  H   UNL     1      39.213 -14.255   1.143  1.00  0.00     0.189 HD
HETATM   11  C   UNL     1      42.824 -14.862   3.913  1.00  0.00     0.075 C 
ENDROOT
BRANCH  11  12
HETATM   12  C   UNL     1      43.197 -16.313   4.194  1.00  0.00    -0.045 A 
HETATM   13  C   UNL     1      43.228 -16.750   5.531  1.00  0.00     0.050 A 
HETATM   14  C   UNL     1      43.545 -18.071   5.837  1.00  0.00     0.117 A 
HETATM   15  F   UNL     1      43.574 -18.459   7.118  1.00  0.00    -0.206 F 
HETATM   16  C   UNL     1      43.829 -18.990   4.837  1.00  0.00     0.042 A 
HETATM   17  C   UNL     1      43.790 -18.582   3.507  1.00  0.00     0.004 A 
HETATM   18  C   UNL     1      43.472 -17.258   3.189  1.00  0.00     0.008 A 
ENDBRANCH  11  12
BRANCH   1  19
HETATM   19  C   UNL     1      42.770 -12.730   5.146  1.00  0.00     0.267 C 
HETATM   20  O   UNL     1      42.421 -11.880   4.336  1.00  0.00    -0.265 OA
BRANCH  19  21
HETATM   21  O   UNL     1      43.623 -12.525   6.176  1.00  0.00    -0.316 OA
BRANCH  21  22
HETATM   22  C   UNL     1      44.108 -11.196   6.476  1.00  0.00     0.123 C 
HETATM   23  C   UNL     1      45.585 -11.206   6.851  1.00  0.00     0.040 C 
HETATM   24  C   UNL     1      43.231 -10.472   7.491  1.00  0.00     0.040 C 
ENDBRANCH  21  22
ENDBRANCH  19  21
ENDBRANCH   1  19
BRANCH   2  25
HETATM   25  O   UNL     1      40.259 -15.537   5.618  1.00  0.00    -0.389 OA
HETATM   26  H   UNL     1      40.988 -15.948   6.114  1.00  0.00     0.210 HD
ENDBRANCH   2  25
BRANCH   7  27
HETATM   27  O   UNL     1      43.180 -15.705   0.771  1.00  0.00    -0.343 OA
HETATM   28  H   UNL     1      42.895 -16.235   0.013  1.00  0.00     0.219 HD
ENDBRANCH   7  27
TORSDOF 6
ENDMDL
MODEL 8
REMARK VINA RESULT:      -7.0      2.867      3.788
REMARK  6 active torsions:
REMARK  status: ('A' for Active; 'I' for Inactive)
REMARK    1  A    between atoms: C_2  and  O_3 
REMARK    2  A    between atoms: O_3  and  C_4 
REMARK    3  A    between atoms: C_4  and  C_5 
REMARK    4  A    between atoms: C_6  and  O_7 
REMARK    5  A    between atoms: C_12  and  O_13 
REMARK    6  A    between atoms: C_17  and  C_18 
ROOT
HETATM    1  C   UNL     1      41.327 -12.057   3.941  1.00  0.00     0.133 C 
HETATM    2  C   UNL     1      39.779 -11.857   3.850  1.00  0.00     0.073 C 
HETATM    3  C   UNL     1      39.333 -10.494   4.401  1.00  0.00     0.047 C 
HETATM    4  C   UNL     1      39.182 -12.070   2.426  1.00  0.00     0.097 C 
HETATM    5  C   UNL     1      39.899 -13.163   1.721  1.00  0.00     0.042 A 
HETATM    6  C   UNL     1      41.100 -13.745   2.072  1.00  0.00     0.030 A 
HETATM    7  C   UNL     1      41.311 -14.689   1.055  1.00  0.00     0.190 A 
HETATM    8  N   UNL     1      40.352 -14.707   0.137  1.00  0.00    -0.149 NA
HETATM    9  N   UNL     1      39.486 -13.776   0.573  1.00  0.00    -0.279 N 
HETATM   10  H   UNL     1      38.645 -13.610   0.031  1.00  0.00     0.189 HD
HETATM   11  C   UNL     1      41.897 -13.334   3.261  1.00  0.00     0.075 C 
ENDROOT
BRANCH  11  12
HETATM   12  C   UNL     1      41.989 -14.531   4.200  1.00  0.00    -0.045 A 
HETATM   13  C   UNL     1      40.802 -15.201   4.550  1.00  0.00     0.050 A 
HETATM   14  C   UNL     1      40.838 -16.310   5.391  1.00  0.00     0.117 A 
HETATM   15  F   UNL     1      39.693 -16.926   5.714  1.00  0.00    -0.206 F 
HETATM   16  C   UNL     1      42.038 -16.790   5.896  1.00  0.00     0.042 A 
HETATM   17  C   UNL     1      43.225 -16.150   5.551  1.00  0.00     0.004 A 
HETATM   18  C   UNL     1      43.201 -15.035   4.707  1.00  0.00     0.008 A 
ENDBRANCH  11  12
BRANCH   1  19
HETATM   19  C   UNL     1      42.133 -10.887   3.409  1.00  0.00     0.267 C 
HETATM   20  O   UNL     1      42.080 -10.537   2.237  1.00  0.00    -0.265 OA
BRANCH  19  21
HETATM   21  O   UNL     1      42.829 -10.256   4.383  1.00  0.00    -0.316 OA
BRANCH  21  22
HETATM   22  C   UNL     1      43.118 -10.924   5.632  1.00  0.00     0.123 C 
HETATM   23  C   UNL     1      42.741 -10.064   6.832  1.00  0.00     0.040 C 
HETATM   24  C   UNL     1      44.546 -11.453   5.693  1.00  0.00     0.040 C 
ENDBRANCH  21  22
ENDBRANCH  19  21
ENDBRANCH   1  19
BRANCH   2  25
HETATM   25  O   UNL     1      39.142 -12.829   4.710  1.00  0.00    -0.389 OA
HETATM   26  H   UNL     1      38.177 -12.718   4.649  1.00  0.00     0.210 HD
ENDBRANCH   2  25
BRANCH   7  27
HETATM   27  O   UNL     1      42.312 -15.555   0.893  1.00  0.00    -0.343 OA
HETATM   28  H   UNL     1      42.267 -16.232   1.583  1.00  0.00     0.219 HD
ENDBRANCH   7  27
TORSDOF 6
ENDMDL
MODEL 9
REMARK VINA RESULT:      -6.8     12.704     15.245
REMARK  6 active torsions:
REMARK  status: ('A' for Active; 'I' for Inactive)
REMARK    1  A    between atoms: C_2  and  O_3 
REMARK    2  A    between atoms: O_3  and  C_4 
REMARK    3  A    between atoms: C_4  and  C_5 
REMARK    4  A    between atoms: C_6  and  O_7 
REMARK    5  A    between atoms: C_12  and  O_13 
REMARK    6  A    between atoms: C_17  and  C_18 
ROOT
HETATM    1  C   UNL     1      39.868  -5.146  15.162  1.00  0.00     0.133 C 
HETATM    2  C   UNL     1      40.759  -3.868  15.300  1.00  0.00     0.073 C 
HETATM    3  C   UNL     1      40.060  -2.609  14.762  1.00  0.00     0.047 C 
HETATM    4  C   UNL     1      41.288  -3.600  16.741  1.00  0.00     0.097 C 
HETATM    5  C   UNL     1      41.601  -4.881  17.425  1.00  0.00     0.042 A 
HETATM    6  C   UNL     1      41.233  -6.153  17.038  1.00  0.00     0.030 A 
HETATM    7  C   UNL     1      41.768  -6.966  18.048  1.00  0.00     0.190 A 
HETATM    8  N   UNL     1      42.407  -6.289  18.995  1.00  0.00    -0.149 NA
HETATM    9  N   UNL     1      42.308  -5.012  18.585  1.00  0.00    -0.279 N 
HETATM   10  H   UNL     1      42.739  -4.290  19.152  1.00  0.00     0.189 HD
HETATM   11  C   UNL     1      40.417  -6.440  15.825  1.00  0.00     0.075 C 
ENDROOT
BRANCH  11  12
HETATM   12  C   UNL     1      41.262  -7.293  14.884  1.00  0.00    -0.045 A 
HETATM   13  C   UNL     1      40.707  -8.484  14.381  1.00  0.00     0.050 A 
HETATM   14  C   UNL     1      41.433  -9.286  13.504  1.00  0.00     0.117 A 
HETATM   15  F   UNL     1      40.885 -10.419  13.045  1.00  0.00    -0.206 F 
HETATM   16  C   UNL     1      42.711  -8.932  13.097  1.00  0.00     0.042 A 
HETATM   17  C   UNL     1      43.272  -7.750  13.572  1.00  0.00     0.004 A 
HETATM   18  C   UNL     1      42.553  -6.936  14.453  1.00  0.00     0.008 A 
ENDBRANCH  11  12
BRANCH   1  19
HETATM   19  C   UNL     1      38.450  -4.968  15.668  1.00  0.00     0.267 C 
HETATM   20  O   UNL     1      38.197  -4.366  16.705  1.00  0.00    -0.265 OA
BRANCH  19  21
HETATM   21  O   UNL     1      37.530  -5.473  14.814  1.00  0.00    -0.316 OA
BRANCH  21  22
HETATM   22  C   UNL     1      37.793  -5.519  13.393  1.00  0.00     0.123 C 
HETATM   23  C   UNL     1      36.995  -4.462  12.638  1.00  0.00     0.040 C 
HETATM   24  C   UNL     1      37.636  -6.921  12.817  1.00  0.00     0.040 C 
ENDBRANCH  21  22
ENDBRANCH  19  21
ENDBRANCH   1  19
BRANCH   2  25
HETATM   25  O   UNL     1      41.924  -4.030  14.460  1.00  0.00    -0.389 OA
HETATM   26  H   UNL     1      41.651  -4.447  13.623  1.00  0.00     0.210 HD
ENDBRANCH   2  25
BRANCH   7  27
HETATM   27  O   UNL     1      41.734  -8.293  18.180  1.00  0.00    -0.343 OA
HETATM   28  H   UNL     1      42.378  -8.567  18.849  1.00  0.00     0.219 HD
ENDBRANCH   7  27
TORSDOF 6
ENDMDL
MODEL 10
REMARK VINA RESULT:      -6.7      7.443      9.758
REMARK  6 active torsions:
REMARK  status: ('A' for Active; 'I' for Inactive)
REMARK    1  A    between atoms: C_2  and  O_3 
REMARK    2  A    between atoms: O_3  and  C_4 
REMARK    3  A    between atoms: C_4  and  C_5 
REMARK    4  A    between atoms: C_6  and  O_7 
REMARK    5  A    between atoms: C_12  and  O_13 
REMARK    6  A    between atoms: C_17  and  C_18 
ROOT
HETATM    1  C   UNL     1      41.997  -8.121  11.798  1.00  0.00     0.133 C 
HETATM    2  C   UNL     1      41.555  -9.372  12.626  1.00  0.00     0.073 C 
HETATM    3  C   UNL     1      41.631  -9.126  14.141  1.00  0.00     0.047 C 
HETATM    4  C   UNL     1      40.149  -9.931  12.254  1.00  0.00     0.097 C 
HETATM    5  C   UNL     1      39.910  -9.802  10.793  1.00  0.00     0.042 A 
HETATM    6  C   UNL     1      40.629  -9.052   9.886  1.00  0.00     0.030 A 
HETATM    7  C   UNL     1      39.958  -9.278   8.675  1.00  0.00     0.190 A 
HETATM    8  N   UNL     1      38.907 -10.082   8.790  1.00  0.00    -0.149 NA
HETATM    9  N   UNL     1      38.905 -10.407  10.095  1.00  0.00    -0.279 N 
HETATM   10  H   UNL     1      38.185 -11.036  10.433  1.00  0.00     0.189 HD
HETATM   11  C   UNL     1      41.801  -8.212  10.259  1.00  0.00     0.075 C 
ENDROOT
BRANCH  11  12
HETATM   12  C   UNL     1      43.021  -8.755   9.523  1.00  0.00    -0.045 A 
HETATM   13  C   UNL     1      43.013 -10.103   9.119  1.00  0.00     0.050 A 
HETATM   14  C   UNL     1      44.097 -10.640   8.428  1.00  0.00     0.117 A 
HETATM   15  F   UNL     1      44.067 -11.927   8.060  1.00  0.00    -0.206 F 
HETATM   16  C   UNL     1      45.203  -9.864   8.113  1.00  0.00     0.042 A 
HETATM   17  C   UNL     1      45.224  -8.525   8.492  1.00  0.00     0.004 A 
HETATM   18  C   UNL     1      44.142  -7.975   9.186  1.00  0.00     0.008 A 
ENDBRANCH  11  12
BRANCH   1  19
HETATM   19  C   UNL     1      41.345  -6.825  12.243  1.00  0.00     0.267 C 
HETATM   20  O   UNL     1      40.135  -6.723  12.397  1.00  0.00    -0.265 OA
BRANCH  19  21
HETATM   21  O   UNL     1      42.252  -5.858  12.513  1.00  0.00    -0.316 OA
BRANCH  21  22
HETATM   22  C   UNL     1      42.162  -4.565  11.872  1.00  0.00     0.123 C 
HETATM   23  C   UNL     1      42.723  -4.597  10.455  1.00  0.00     0.040 C 
HETATM   24  C   UNL     1      42.746  -3.448  12.728  1.00  0.00     0.040 C 
ENDBRANCH  21  22
ENDBRANCH  19  21
ENDBRANCH   1  19
BRANCH   2  25
HETATM   25  O   UNL     1      42.499 -10.439  12.379  1.00  0.00    -0.389 OA
HETATM   26  H   UNL     1      43.306 -10.271  12.897  1.00  0.00     0.210 HD
ENDBRANCH   2  25
BRANCH   7  27
HETATM   27  O   UNL     1      40.228  -8.817   7.453  1.00  0.00    -0.343 OA
HETATM   28  H   UNL     1      40.199  -7.849   7.461  1.00  0.00     0.219 HD
ENDBRANCH   7  27
TORSDOF 6
ENDMDL
