MODEL 1
REMARK VINA RESULT:      -8.7      0.000      0.000
REMARK  8 active torsions:
REMARK  status: ('A' for Active; 'I' for Inactive)
REMARK    1  A    between atoms: O_2  and  C_3 
REMARK    2  A    between atoms: C_3  and  C_4 
REMARK    3  A    between atoms: C_7  and  C_8 
REMARK    4  A    between atoms: C_8  and  O_9 
REMARK    5  A    between atoms: O_9  and  C_10 
REMARK    6  A    between atoms: C_11  and  C_12 
REMARK    7  A    between atoms: C_13  and  C_14 
REMARK    8  A    between atoms: C_13  and  C_22 
REMARK       I    between atoms: C_14  and  N_15 
ROOT
HETATM    1  C   UNL     1      42.495 -10.397   4.753  1.00  0.00     0.035 C 
HETATM    2  C   UNL     1      43.107 -11.319   5.524  1.00  0.00     0.079 C 
ENDROOT
BRANCH   1   3
HETATM    3  C   UNL     1      41.113 -10.388   4.241  1.00  0.00    -0.002 A 
HETATM    4  C   UNL     1      40.766 -11.126   3.102  1.00  0.00     0.079 A 
HETATM    5  C   UNL     1      39.479 -11.035   2.558  1.00  0.00     0.037 A 
HETATM    6  C   UNL     1      38.517 -10.236   3.174  1.00  0.00     0.003 A 
HETATM    7  C   UNL     1      38.846  -9.510   4.316  1.00  0.00     0.001 A 
HETATM    8  C   UNL     1      40.140  -9.574   4.839  1.00  0.00     0.014 A 
BRANCH   4   9
HETATM    9  O   UNL     1      41.736 -11.860   2.471  1.00  0.00    -0.346 OA
BRANCH   9  10
HETATM   10  C   UNL     1      41.198 -12.826   1.559  1.00  0.00     0.214 C 
BRANCH  10  11
HETATM   11  C   UNL     1      41.710 -14.215   1.881  1.00  0.00    -0.034 A 
HETATM   12  C   UNL     1      43.075 -14.498   1.723  1.00  0.00     0.010 A 
HETATM   13  C   UNL     1      43.581 -15.765   2.026  1.00  0.00     0.018 A 
HETATM   14  C   UNL     1      42.730 -16.773   2.497  1.00  0.00     0.039 A 
HETATM   15  C   UNL     1      41.370 -16.493   2.672  1.00  0.00     0.018 A 
HETATM   16  C   UNL     1      40.868 -15.224   2.370  1.00  0.00     0.010 A 
BRANCH  14  17
HETATM   17  C   UNL     1      43.314 -18.109   2.795  1.00  0.00     0.292 C 
HETATM   18  O   UNL     1      44.241 -18.283   3.569  1.00  0.00    -0.259 OA
BRANCH  17  19
HETATM   19  O   UNL     1      42.681 -19.077   2.085  1.00  0.00    -0.323 OA
HETATM   20  C   UNL     1      43.440 -20.277   1.932  1.00  0.00     0.213 C 
ENDBRANCH  17  19
ENDBRANCH  14  17
ENDBRANCH  10  11
ENDBRANCH   9  10
ENDBRANCH   4   9
ENDBRANCH   1   3
BRANCH   2  21
HETATM   21  C   UNL     1      44.545 -11.075   5.903  1.00  0.00     0.257 C 
HETATM   22  N   UNL     1      44.887 -10.812   7.217  1.00  0.00    -0.344 N 
HETATM   23  C   UNL     1      46.285 -10.518   7.545  1.00  0.00     0.152 C 
HETATM   24  C   UNL     1      44.000 -10.646   8.376  1.00  0.00     0.152 C 
HETATM   25  C   UNL     1      46.392  -9.106   8.128  1.00  0.00     0.187 C 
HETATM   26  O   UNL     1      45.527  -8.950   9.269  1.00  0.00    -0.388 OA
HETATM   27  C   UNL     1      44.156  -9.220   8.925  1.00  0.00     0.187 C 
HETATM   28  O   UNL     1      45.404 -11.186   5.022  1.00  0.00    -0.267 OA
ENDBRANCH   2  21
BRANCH   2  29
HETATM   29  C   UNL     1      42.520 -12.594   5.808  1.00  0.00     0.144 A 
HETATM   30  N   UNL     1      41.266 -12.970   5.996  1.00  0.00    -0.228 NA
HETATM   31  C   UNL     1      41.282 -14.338   6.106  1.00  0.00     0.086 A 
HETATM   32  C   UNL     1      42.577 -14.825   6.023  1.00  0.00     0.062 A 
HETATM   33  C   UNL     1      40.221 -15.240   6.264  1.00  0.00     0.034 A 
HETATM   34  N   UNL     1      43.343 -13.704   5.851  1.00  0.00    -0.338 N 
HETATM   35  C   UNL     1      42.898 -16.182   6.094  1.00  0.00     0.032 A 
HETATM   36  H   UNL     1      44.345 -13.681   5.696  1.00  0.00     0.167 HD
HETATM   37  C   UNL     1      41.826 -17.068   6.249  1.00  0.00     0.002 A 
HETATM   38  C   UNL     1      40.509 -16.609   6.331  1.00  0.00     0.002 A 
ENDBRANCH   2  29
TORSDOF 8
ENDMDL
MODEL 2
REMARK VINA RESULT:      -8.6      2.977      7.209
REMARK  8 active torsions:
REMARK  status: ('A' for Active; 'I' for Inactive)
REMARK    1  A    between atoms: O_2  and  C_3 
REMARK    2  A    between atoms: C_3  and  C_4 
REMARK    3  A    between atoms: C_7  and  C_8 
REMARK    4  A    between atoms: C_8  and  O_9 
REMARK    5  A    between atoms: O_9  and  C_10 
REMARK    6  A    between atoms: C_11  and  C_12 
REMARK    7  A    between atoms: C_13  and  C_14 
REMARK    8  A    between atoms: C_13  and  C_22 
REMARK       I    between atoms: C_14  and  N_15 
ROOT
HETATM    1  C   UNL     1      41.969 -12.642   2.312  1.00  0.00     0.035 C 
HETATM    2  C   UNL     1      41.355 -11.869   1.393  1.00  0.00     0.079 C 
ENDROOT
BRANCH   1   3
HETATM    3  C   UNL     1      42.043 -14.112   2.385  1.00  0.00    -0.002 A 
HETATM    4  C   UNL     1      41.183 -14.833   3.224  1.00  0.00     0.079 A 
HETATM    5  C   UNL     1      41.322 -16.218   3.370  1.00  0.00     0.037 A 
HETATM    6  C   UNL     1      42.298 -16.899   2.644  1.00  0.00     0.003 A 
HETATM    7  C   UNL     1      43.149 -16.197   1.795  1.00  0.00     0.001 A 
HETATM    8  C   UNL     1      43.032 -14.810   1.676  1.00  0.00     0.014 A 
BRANCH   4   9
HETATM    9  O   UNL     1      40.267 -14.144   3.977  1.00  0.00    -0.346 OA
BRANCH   9  10
HETATM   10  C   UNL     1      40.445 -14.341   5.386  1.00  0.00     0.214 C 
BRANCH  10  11
HETATM   11  C   UNL     1      41.693 -13.635   5.875  1.00  0.00    -0.034 A 
HETATM   12  C   UNL     1      41.709 -12.234   5.941  1.00  0.00     0.010 A 
HETATM   13  C   UNL     1      42.841 -11.555   6.403  1.00  0.00     0.018 A 
HETATM   14  C   UNL     1      43.976 -12.266   6.810  1.00  0.00     0.039 A 
HETATM   15  C   UNL     1      43.962 -13.664   6.761  1.00  0.00     0.018 A 
HETATM   16  C   UNL     1      42.828 -14.341   6.302  1.00  0.00     0.010 A 
BRANCH  14  17
HETATM   17  C   UNL     1      45.160 -11.497   7.282  1.00  0.00     0.292 C 
HETATM   18  O   UNL     1      46.097 -11.192   6.563  1.00  0.00    -0.259 OA
BRANCH  17  19
HETATM   19  O   UNL     1      45.046 -11.205   8.602  1.00  0.00    -0.323 OA
HETATM   20  C   UNL     1      45.266  -9.829   8.915  1.00  0.00     0.213 C 
ENDBRANCH  17  19
ENDBRANCH  14  17
ENDBRANCH  10  11
ENDBRANCH   9  10
ENDBRANCH   4   9
ENDBRANCH   1   3
BRANCH   2  21
HETATM   21  C   UNL     1      41.438 -10.375   1.564  1.00  0.00     0.257 C 
HETATM   22  N   UNL     1      40.696  -9.741   2.544  1.00  0.00    -0.344 N 
HETATM   23  C   UNL     1      40.750  -8.279   2.647  1.00  0.00     0.152 C 
HETATM   24  C   UNL     1      39.710 -10.323   3.464  1.00  0.00     0.152 C 
HETATM   25  C   UNL     1      39.355  -7.694   2.410  1.00  0.00     0.187 C 
HETATM   26  O   UNL     1      38.394  -8.262   3.319  1.00  0.00    -0.388 OA
HETATM   27  C   UNL     1      38.336  -9.695   3.190  1.00  0.00     0.187 C 
HETATM   28  O   UNL     1      42.235  -9.752   0.853  1.00  0.00    -0.267 OA
ENDBRANCH   2  21
BRANCH   2  29
HETATM   29  C   UNL     1      40.469 -12.407   0.405  1.00  0.00     0.144 A 
HETATM   30  N   UNL     1      39.169 -12.263   0.210  1.00  0.00    -0.228 NA
HETATM   31  C   UNL     1      38.878 -12.909  -0.966  1.00  0.00     0.086 A 
HETATM   32  C   UNL     1      40.012 -13.503  -1.497  1.00  0.00     0.062 A 
HETATM   33  C   UNL     1      37.662 -13.020  -1.654  1.00  0.00     0.034 A 
HETATM   34  N   UNL     1      41.001 -13.186  -0.605  1.00  0.00    -0.338 N 
HETATM   35  C   UNL     1      40.019 -14.222  -2.693  1.00  0.00     0.032 A 
HETATM   36  H   UNL     1      41.986 -13.409  -0.699  1.00  0.00     0.167 HD
HETATM   37  C   UNL     1      38.797 -14.321  -3.368  1.00  0.00     0.002 A 
HETATM   38  C   UNL     1      37.637 -13.730  -2.862  1.00  0.00     0.002 A 
ENDBRANCH   2  29
TORSDOF 8
ENDMDL
MODEL 3
REMARK VINA RESULT:      -8.4      2.150      6.066
REMARK  8 active torsions:
REMARK  status: ('A' for Active; 'I' for Inactive)
REMARK    1  A    between atoms: O_2  and  C_3 
REMARK    2  A    between atoms: C_3  and  C_4 
REMARK    3  A    between atoms: C_7  and  C_8 
REMARK    4  A    between atoms: C_8  and  O_9 
REMARK    5  A    between atoms: O_9  and  C_10 
REMARK    6  A    between atoms: C_11  and  C_12 
REMARK    7  A    between atoms: C_13  and  C_14 
REMARK    8  A    between atoms: C_13  and  C_22 
REMARK       I    between atoms: C_14  and  N_15 
ROOT
HETATM    1  C   UNL     1      42.792 -13.652   4.825  1.00  0.00     0.035 C 
HETATM    2  C   UNL     1      42.937 -12.316   4.942  1.00  0.00     0.079 C 
ENDROOT
BRANCH   1   3
HETATM    3  C   UNL     1      43.126 -14.708   5.796  1.00  0.00    -0.002 A 
HETATM    4  C   UNL     1      43.656 -15.933   5.370  1.00  0.00     0.079 A 
HETATM    5  C   UNL     1      43.876 -16.972   6.282  1.00  0.00     0.037 A 
HETATM    6  C   UNL     1      43.607 -16.778   7.636  1.00  0.00     0.003 A 
HETATM    7  C   UNL     1      43.095 -15.560   8.075  1.00  0.00     0.001 A 
HETATM    8  C   UNL     1      42.843 -14.535   7.159  1.00  0.00     0.014 A 
BRANCH   4   9
HETATM    9  O   UNL     1      43.860 -16.132   4.029  1.00  0.00    -0.346 OA
BRANCH   9  10
HETATM   10  C   UNL     1      42.867 -16.979   3.434  1.00  0.00     0.214 C 
BRANCH  10  11
HETATM   11  C   UNL     1      42.056 -16.218   2.405  1.00  0.00    -0.034 A 
HETATM   12  C   UNL     1      40.691 -16.505   2.257  1.00  0.00     0.010 A 
HETATM   13  C   UNL     1      39.914 -15.809   1.327  1.00  0.00     0.018 A 
HETATM   14  C   UNL     1      40.487 -14.811   0.529  1.00  0.00     0.039 A 
HETATM   15  C   UNL     1      41.845 -14.509   0.682  1.00  0.00     0.018 A 
HETATM   16  C   UNL     1      42.620 -15.204   1.616  1.00  0.00     0.010 A 
BRANCH  14  17
HETATM   17  C   UNL     1      39.620 -14.107  -0.455  1.00  0.00     0.292 C 
HETATM   18  O   UNL     1      39.358 -12.917  -0.394  1.00  0.00    -0.259 OA
BRANCH  17  19
HETATM   19  O   UNL     1      39.169 -14.971  -1.400  1.00  0.00    -0.323 OA
HETATM   20  C   UNL     1      39.183 -14.442  -2.726  1.00  0.00     0.213 C 
ENDBRANCH  17  19
ENDBRANCH  14  17
ENDBRANCH  10  11
ENDBRANCH   9  10
ENDBRANCH   4   9
ENDBRANCH   1   3
BRANCH   2  21
HETATM   21  C   UNL     1      42.511 -11.458   3.779  1.00  0.00     0.257 C 
HETATM   22  N   UNL     1      41.345 -10.719   3.844  1.00  0.00    -0.344 N 
HETATM   23  C   UNL     1      40.925  -9.943   2.673  1.00  0.00     0.152 C 
HETATM   24  C   UNL     1      40.341 -10.690   4.916  1.00  0.00     0.152 C 
HETATM   25  C   UNL     1      39.568 -10.451   2.178  1.00  0.00     0.187 C 
HETATM   26  O   UNL     1      38.585 -10.413   3.229  1.00  0.00    -0.388 OA
HETATM   27  C   UNL     1      39.002 -11.198   4.362  1.00  0.00     0.187 C 
HETATM   28  O   UNL     1      43.267 -11.386   2.803  1.00  0.00    -0.267 OA
ENDBRANCH   2  21
BRANCH   2  29
HETATM   29  C   UNL     1      43.663 -11.714   6.020  1.00  0.00     0.144 A 
HETATM   30  N   UNL     1      44.933 -11.368   6.148  1.00  0.00    -0.228 NA
HETATM   31  C   UNL     1      45.039 -10.716   7.351  1.00  0.00     0.086 A 
HETATM   32  C   UNL     1      43.818 -10.686   8.006  1.00  0.00     0.062 A 
HETATM   33  C   UNL     1      46.150 -10.105   7.947  1.00  0.00     0.034 A 
HETATM   34  N   UNL     1      42.967 -11.336   7.153  1.00  0.00    -0.338 N 
HETATM   35  C   UNL     1      43.623 -10.079   9.248  1.00  0.00     0.032 A 
HETATM   36  H   UNL     1      41.969 -11.458   7.281  1.00  0.00     0.167 HD
HETATM   37  C   UNL     1      44.742  -9.472   9.828  1.00  0.00     0.002 A 
HETATM   38  C   UNL     1      45.986  -9.480   9.191  1.00  0.00     0.002 A 
ENDBRANCH   2  29
TORSDOF 8
ENDMDL
MODEL 4
REMARK VINA RESULT:      -8.1      2.417      6.409
REMARK  8 active torsions:
REMARK  status: ('A' for Active; 'I' for Inactive)
REMARK    1  A    between atoms: O_2  and  C_3 
REMARK    2  A    between atoms: C_3  and  C_4 
REMARK    3  A    between atoms: C_7  and  C_8 
REMARK    4  A    between atoms: C_8  and  O_9 
REMARK    5  A    between atoms: O_9  and  C_10 
REMARK    6  A    between atoms: C_11  and  C_12 
REMARK    7  A    between atoms: C_13  and  C_14 
REMARK    8  A    between atoms: C_13  and  C_22 
REMARK       I    between atoms: C_14  and  N_15 
ROOT
HETATM    1  C   UNL     1      42.820 -12.254   3.494  1.00  0.00     0.035 C 
HETATM    2  C   UNL     1      41.733 -11.555   3.110  1.00  0.00     0.079 C 
ENDROOT
BRANCH   1   3
HETATM    3  C   UNL     1      43.576 -12.171   4.756  1.00  0.00    -0.002 A 
HETATM    4  C   UNL     1      43.123 -12.828   5.908  1.00  0.00     0.079 A 
HETATM    5  C   UNL     1      43.786 -12.664   7.130  1.00  0.00     0.037 A 
HETATM    6  C   UNL     1      44.933 -11.874   7.200  1.00  0.00     0.003 A 
HETATM    7  C   UNL     1      45.402 -11.229   6.058  1.00  0.00     0.001 A 
HETATM    8  C   UNL     1      44.720 -11.365   4.847  1.00  0.00     0.014 A 
BRANCH   4   9
HETATM    9  O   UNL     1      41.962 -13.553   5.839  1.00  0.00    -0.346 OA
BRANCH   9  10
HETATM   10  C   UNL     1      41.961 -14.687   6.716  1.00  0.00     0.214 C 
BRANCH  10  11
HETATM   11  C   UNL     1      42.551 -15.901   6.028  1.00  0.00    -0.034 A 
HETATM   12  C   UNL     1      42.901 -17.023   6.793  1.00  0.00     0.010 A 
HETATM   13  C   UNL     1      43.432 -18.163   6.184  1.00  0.00     0.018 A 
HETATM   14  C   UNL     1      43.620 -18.204   4.797  1.00  0.00     0.039 A 
HETATM   15  C   UNL     1      43.259 -17.094   4.026  1.00  0.00     0.018 A 
HETATM   16  C   UNL     1      42.725 -15.955   4.637  1.00  0.00     0.010 A 
BRANCH  14  17
HETATM   17  C   UNL     1      44.201 -19.436   4.198  1.00  0.00     0.292 C 
HETATM   18  O   UNL     1      44.574 -20.394   4.854  1.00  0.00    -0.259 OA
BRANCH  17  19
HETATM   19  O   UNL     1      44.259 -19.329   2.846  1.00  0.00    -0.323 OA
HETATM   20  C   UNL     1      43.510 -20.326   2.151  1.00  0.00     0.213 C 
ENDBRANCH  17  19
ENDBRANCH  14  17
ENDBRANCH  10  11
ENDBRANCH   9  10
ENDBRANCH   4   9
ENDBRANCH   1   3
BRANCH   2  21
HETATM   21  C   UNL     1      41.157 -11.845   1.747  1.00  0.00     0.257 C 
HETATM   22  N   UNL     1      40.261 -12.883   1.573  1.00  0.00    -0.344 N 
HETATM   23  C   UNL     1      39.765 -13.179   0.225  1.00  0.00     0.152 C 
HETATM   24  C   UNL     1      39.802 -13.869   2.559  1.00  0.00     0.152 C 
HETATM   25  C   UNL     1      40.177 -14.599  -0.175  1.00  0.00     0.187 C 
HETATM   26  O   UNL     1      39.719 -15.563   0.790  1.00  0.00    -0.388 OA
HETATM   27  C   UNL     1      40.231 -15.271   2.103  1.00  0.00     0.187 C 
HETATM   28  O   UNL     1      41.458 -11.087   0.817  1.00  0.00    -0.267 OA
ENDBRANCH   2  21
BRANCH   2  29
HETATM   29  C   UNL     1      41.247 -10.425   3.843  1.00  0.00     0.144 A 
HETATM   30  N   UNL     1      40.463 -10.328   4.903  1.00  0.00    -0.228 NA
HETATM   31  C   UNL     1      40.439  -9.000   5.249  1.00  0.00     0.086 A 
HETATM   32  C   UNL     1      41.193  -8.245   4.364  1.00  0.00     0.062 A 
HETATM   33  C   UNL     1      39.803  -8.361   6.322  1.00  0.00     0.034 A 
HETATM   34  N   UNL     1      41.681  -9.165   3.475  1.00  0.00    -0.338 N 
HETATM   35  C   UNL     1      41.357  -6.863   4.473  1.00  0.00     0.032 A 
HETATM   36  H   UNL     1      42.323  -8.979   2.714  1.00  0.00     0.167 HD
HETATM   37  C   UNL     1      40.717  -6.242   5.551  1.00  0.00     0.002 A 
HETATM   38  C   UNL     1      39.955  -6.976   6.464  1.00  0.00     0.002 A 
ENDBRANCH   2  29
TORSDOF 8
ENDMDL
MODEL 5
REMARK VINA RESULT:      -8.1      3.795      6.464
REMARK  8 active torsions:
REMARK  status: ('A' for Active; 'I' for Inactive)
REMARK    1  A    between atoms: O_2  and  C_3 
REMARK    2  A    between atoms: C_3  and  C_4 
REMARK    3  A    between atoms: C_7  and  C_8 
REMARK    4  A    between atoms: C_8  and  O_9 
REMARK    5  A    between atoms: O_9  and  C_10 
REMARK    6  A    between atoms: C_11  and  C_12 
REMARK    7  A    between atoms: C_13  and  C_14 
REMARK    8  A    between atoms: C_13  and  C_22 
REMARK       I    between atoms: C_14  and  N_15 
ROOT
HETATM    1  C   UNL     1      39.654 -11.885   1.151  1.00  0.00     0.035 C 
HETATM    2  C   UNL     1      40.573 -10.902   1.233  1.00  0.00     0.079 C 
ENDROOT
BRANCH   1   3
HETATM    3  C   UNL     1      39.117 -12.554  -0.048  1.00  0.00    -0.002 A 
HETATM    4  C   UNL     1      39.603 -13.805  -0.448  1.00  0.00     0.079 A 
HETATM    5  C   UNL     1      39.166 -14.392  -1.642  1.00  0.00     0.037 A 
HETATM    6  C   UNL     1      38.207 -13.749  -2.423  1.00  0.00     0.003 A 
HETATM    7  C   UNL     1      37.705 -12.512  -2.027  1.00  0.00     0.001 A 
HETATM    8  C   UNL     1      38.167 -11.911  -0.854  1.00  0.00     0.014 A 
BRANCH   4   9
HETATM    9  O   UNL     1      40.589 -14.399   0.297  1.00  0.00    -0.346 OA
BRANCH   9  10
HETATM   10  C   UNL     1      40.094 -15.452   1.135  1.00  0.00     0.214 C 
BRANCH  10  11
HETATM   11  C   UNL     1      41.174 -15.944   2.077  1.00  0.00    -0.034 A 
HETATM   12  C   UNL     1      40.869 -16.136   3.432  1.00  0.00     0.010 A 
HETATM   13  C   UNL     1      41.840 -16.603   4.322  1.00  0.00     0.018 A 
HETATM   14  C   UNL     1      43.134 -16.891   3.872  1.00  0.00     0.039 A 
HETATM   15  C   UNL     1      43.441 -16.717   2.518  1.00  0.00     0.018 A 
HETATM   16  C   UNL     1      42.467 -16.252   1.629  1.00  0.00     0.010 A 
BRANCH  14  17
HETATM   17  C   UNL     1      44.136 -17.375   4.861  1.00  0.00     0.292 C 
HETATM   18  O   UNL     1      44.374 -16.806   5.913  1.00  0.00    -0.259 OA
BRANCH  17  19
HETATM   19  O   UNL     1      44.736 -18.509   4.419  1.00  0.00    -0.323 OA
HETATM   20  C   UNL     1      44.170 -19.710   4.945  1.00  0.00     0.213 C 
ENDBRANCH  17  19
ENDBRANCH  14  17
ENDBRANCH  10  11
ENDBRANCH   9  10
ENDBRANCH   4   9
ENDBRANCH   1   3
BRANCH   2  21
HETATM   21  C   UNL     1      40.940 -10.396   2.604  1.00  0.00     0.257 C 
HETATM   22  N   UNL     1      42.051 -10.892   3.259  1.00  0.00    -0.344 N 
HETATM   23  C   UNL     1      42.348 -10.425   4.617  1.00  0.00     0.152 C 
HETATM   24  C   UNL     1      42.958 -11.967   2.834  1.00  0.00     0.152 C 
HETATM   25  C   UNL     1      42.303 -11.607   5.590  1.00  0.00     0.187 C 
HETATM   26  O   UNL     1      43.198 -12.654   5.174  1.00  0.00    -0.388 OA
HETATM   27  C   UNL     1      42.881 -13.118   3.848  1.00  0.00     0.187 C 
HETATM   28  O   UNL     1      40.260  -9.483   3.087  1.00  0.00    -0.267 OA
ENDBRANCH   2  21
BRANCH   2  29
HETATM   29  C   UNL     1      41.042 -10.191   0.082  1.00  0.00     0.144 A 
HETATM   30  N   UNL     1      40.707 -10.256  -1.196  1.00  0.00    -0.228 NA
HETATM   31  C   UNL     1      41.394  -9.250  -1.830  1.00  0.00     0.086 A 
HETATM   32  C   UNL     1      42.204  -8.567  -0.937  1.00  0.00     0.062 A 
HETATM   33  C   UNL     1      41.365  -8.849  -3.172  1.00  0.00     0.034 A 
HETATM   34  N   UNL     1      41.977  -9.189   0.261  1.00  0.00    -0.338 N 
HETATM   35  C   UNL     1      43.012  -7.488  -1.298  1.00  0.00     0.032 A 
HETATM   36  H   UNL     1      42.363  -8.918   1.159  1.00  0.00     0.167 HD
HETATM   37  C   UNL     1      42.970  -7.099  -2.642  1.00  0.00     0.002 A 
HETATM   38  C   UNL     1      42.159  -7.764  -3.565  1.00  0.00     0.002 A 
ENDBRANCH   2  29
TORSDOF 8
ENDMDL
MODEL 6
REMARK VINA RESULT:      -7.9      2.431      6.307
REMARK  8 active torsions:
REMARK  status: ('A' for Active; 'I' for Inactive)
REMARK    1  A    between atoms: O_2  and  C_3 
REMARK    2  A    between atoms: C_3  and  C_4 
REMARK    3  A    between atoms: C_7  and  C_8 
REMARK    4  A    between atoms: C_8  and  O_9 
REMARK    5  A    between atoms: O_9  and  C_10 
REMARK    6  A    between atoms: C_11  and  C_12 
REMARK    7  A    between atoms: C_13  and  C_14 
REMARK    8  A    between atoms: C_13  and  C_22 
REMARK       I    between atoms: C_14  and  N_15 
ROOT
HETATM    1  C   UNL     1      41.171 -14.590   5.156  1.00  0.00     0.035 C 
HETATM    2  C   UNL     1      41.277 -13.321   5.600  1.00  0.00     0.079 C 
ENDROOT
BRANCH   1   3
HETATM    3  C   UNL     1      42.161 -15.680   5.223  1.00  0.00    -0.002 A 
HETATM    4  C   UNL     1      42.897 -16.051   4.090  1.00  0.00     0.079 A 
HETATM    5  C   UNL     1      43.761 -17.151   4.129  1.00  0.00     0.037 A 
HETATM    6  C   UNL     1      43.927 -17.864   5.315  1.00  0.00     0.003 A 
HETATM    7  C   UNL     1      43.213 -17.495   6.452  1.00  0.00     0.001 A 
HETATM    8  C   UNL     1      42.325 -16.418   6.403  1.00  0.00     0.014 A 
BRANCH   4   9
HETATM    9  O   UNL     1      42.680 -15.379   2.914  1.00  0.00    -0.346 OA
BRANCH   9  10
HETATM   10  C   UNL     1      41.636 -15.964   2.124  1.00  0.00     0.214 C 
BRANCH  10  11
HETATM   11  C   UNL     1      41.061 -14.950   1.156  1.00  0.00    -0.034 A 
HETATM   12  C   UNL     1      40.036 -15.339   0.281  1.00  0.00     0.010 A 
HETATM   13  C   UNL     1      39.475 -14.423  -0.613  1.00  0.00     0.018 A 
HETATM   14  C   UNL     1      39.928 -13.098  -0.646  1.00  0.00     0.039 A 
HETATM   15  C   UNL     1      40.940 -12.699   0.233  1.00  0.00     0.018 A 
HETATM   16  C   UNL     1      41.497 -13.617   1.129  1.00  0.00     0.010 A 
BRANCH  14  17
HETATM   17  C   UNL     1      39.307 -12.163  -1.624  1.00  0.00     0.292 C 
HETATM   18  O   UNL     1      39.931 -11.601  -2.509  1.00  0.00    -0.259 OA
BRANCH  17  19
HETATM   19  O   UNL     1      37.979 -12.028  -1.381  1.00  0.00    -0.323 OA
HETATM   20  C   UNL     1      37.201 -11.743  -2.543  1.00  0.00     0.213 C 
ENDBRANCH  17  19
ENDBRANCH  14  17
ENDBRANCH  10  11
ENDBRANCH   9  10
ENDBRANCH   4   9
ENDBRANCH   1   3
BRANCH   2  21
HETATM   21  C   UNL     1      40.097 -12.405   5.396  1.00  0.00     0.257 C 
HETATM   22  N   UNL     1      40.172 -11.357   4.498  1.00  0.00    -0.344 N 
HETATM   23  C   UNL     1      39.029 -10.447   4.367  1.00  0.00     0.152 C 
HETATM   24  C   UNL     1      41.326 -10.913   3.706  1.00  0.00     0.152 C 
HETATM   25  C   UNL     1      39.455  -9.027   4.752  1.00  0.00     0.187 C 
HETATM   26  O   UNL     1      40.582  -8.593   3.968  1.00  0.00    -0.388 OA
HETATM   27  C   UNL     1      41.701  -9.484   4.125  1.00  0.00     0.187 C 
HETATM   28  O   UNL     1      39.050 -12.664   6.002  1.00  0.00    -0.267 OA
ENDBRANCH   2  21
BRANCH   2  29
HETATM   29  C   UNL     1      42.517 -12.766   6.052  1.00  0.00     0.144 A 
HETATM   30  N   UNL     1      43.727 -12.752   5.519  1.00  0.00    -0.228 NA
HETATM   31  C   UNL     1      44.502 -11.965   6.334  1.00  0.00     0.086 A 
HETATM   32  C   UNL     1      43.771 -11.508   7.419  1.00  0.00     0.062 A 
HETATM   33  C   UNL     1      45.844 -11.581   6.202  1.00  0.00     0.034 A 
HETATM   34  N   UNL     1      42.524 -12.040   7.228  1.00  0.00    -0.338 N 
HETATM   35  C   UNL     1      44.298 -10.679   8.411  1.00  0.00     0.032 A 
HETATM   36  H   UNL     1      41.707 -11.871   7.803  1.00  0.00     0.167 HD
HETATM   37  C   UNL     1      45.638 -10.303   8.263  1.00  0.00     0.002 A 
HETATM   38  C   UNL     1      46.400 -10.743   7.177  1.00  0.00     0.002 A 
ENDBRANCH   2  29
TORSDOF 8
ENDMDL
MODEL 7
REMARK VINA RESULT:      -7.8     16.825     19.009
REMARK  8 active torsions:
REMARK  status: ('A' for Active; 'I' for Inactive)
REMARK    1  A    between atoms: O_2  and  C_3 
REMARK    2  A    between atoms: C_3  and  C_4 
REMARK    3  A    between atoms: C_7  and  C_8 
REMARK    4  A    between atoms: C_8  and  O_9 
REMARK    5  A    between atoms: O_9  and  C_10 
REMARK    6  A    between atoms: C_11  and  C_12 
REMARK    7  A    between atoms: C_13  and  C_14 
REMARK    8  A    between atoms: C_13  and  C_22 
REMARK       I    between atoms: C_14  and  N_15 
ROOT
HETATM    1  C   UNL     1      43.986 -29.470  -0.056  1.00  0.00     0.035 C 
HETATM    2  C   UNL     1      44.394 -30.459   0.766  1.00  0.00     0.079 C 
ENDROOT
BRANCH   1   3
HETATM    3  C   UNL     1      44.357 -29.221  -1.460  1.00  0.00    -0.002 A 
HETATM    4  C   UNL     1      45.397 -28.339  -1.781  1.00  0.00     0.079 A 
HETATM    5  C   UNL     1      45.681 -28.025  -3.115  1.00  0.00     0.037 A 
HETATM    6  C   UNL     1      44.952 -28.624  -4.141  1.00  0.00     0.003 A 
HETATM    7  C   UNL     1      43.926 -29.514  -3.836  1.00  0.00     0.001 A 
HETATM    8  C   UNL     1      43.621 -29.801  -2.503  1.00  0.00     0.014 A 
BRANCH   4   9
HETATM    9  O   UNL     1      46.067 -27.711  -0.762  1.00  0.00    -0.346 OA
BRANCH   9  10
HETATM   10  C   UNL     1      47.485 -27.913  -0.822  1.00  0.00     0.214 C 
BRANCH  10  11
HETATM   11  C   UNL     1      47.981 -28.625   0.420  1.00  0.00    -0.034 A 
HETATM   12  C   UNL     1      47.338 -28.396   1.646  1.00  0.00     0.010 A 
HETATM   13  C   UNL     1      47.763 -29.050   2.806  1.00  0.00     0.018 A 
HETATM   14  C   UNL     1      48.836 -29.949   2.761  1.00  0.00     0.039 A 
HETATM   15  C   UNL     1      49.472 -30.193   1.539  1.00  0.00     0.018 A 
HETATM   16  C   UNL     1      49.043 -29.540   0.379  1.00  0.00     0.010 A 
BRANCH  14  17
HETATM   17  C   UNL     1      49.258 -30.611   4.025  1.00  0.00     0.292 C 
HETATM   18  O   UNL     1      48.595 -31.461   4.596  1.00  0.00    -0.259 OA
BRANCH  17  19
HETATM   19  O   UNL     1      50.457 -30.130   4.441  1.00  0.00    -0.323 OA
HETATM   20  C   UNL     1      51.295 -31.108   5.056  1.00  0.00     0.213 C 
ENDBRANCH  17  19
ENDBRANCH  14  17
ENDBRANCH  10  11
ENDBRANCH   9  10
ENDBRANCH   4   9
ENDBRANCH   1   3
BRANCH   2  21
HETATM   21  C   UNL     1      43.850 -30.473   2.171  1.00  0.00     0.257 C 
HETATM   22  N   UNL     1      42.822 -31.331   2.515  1.00  0.00    -0.344 N 
HETATM   23  C   UNL     1      42.274 -31.279   3.874  1.00  0.00     0.152 C 
HETATM   24  C   UNL     1      42.068 -32.246   1.649  1.00  0.00     0.152 C 
HETATM   25  C   UNL     1      40.792 -30.895   3.817  1.00  0.00     0.187 C 
HETATM   26  O   UNL     1      40.055 -31.799   2.973  1.00  0.00    -0.388 OA
HETATM   27  C   UNL     1      40.592 -31.823   1.638  1.00  0.00     0.187 C 
HETATM   28  O   UNL     1      44.396 -29.750   3.012  1.00  0.00    -0.267 OA
ENDBRANCH   2  21
BRANCH   2  29
HETATM   29  C   UNL     1      45.464 -31.348   0.425  1.00  0.00     0.144 A 
HETATM   30  N   UNL     1      46.061 -31.615  -0.724  1.00  0.00    -0.228 NA
HETATM   31  C   UNL     1      47.107 -32.455  -0.432  1.00  0.00     0.086 A 
HETATM   32  C   UNL     1      47.141 -32.750   0.922  1.00  0.00     0.062 A 
HETATM   33  C   UNL     1      48.085 -32.999  -1.276  1.00  0.00     0.034 A 
HETATM   34  N   UNL     1      46.084 -32.052   1.440  1.00  0.00    -0.338 N 
HETATM   35  C   UNL     1      48.102 -33.575   1.508  1.00  0.00     0.032 A 
HETATM   36  H   UNL     1      45.832 -31.988   2.420  1.00  0.00     0.167 HD
HETATM   37  C   UNL     1      49.073 -34.108   0.652  1.00  0.00     0.002 A 
HETATM   38  C   UNL     1      49.069 -33.825  -0.716  1.00  0.00     0.002 A 
ENDBRANCH   2  29
TORSDOF 8
ENDMDL
MODEL 8
REMARK VINA RESULT:      -7.6      9.788     14.472
REMARK  8 active torsions:
REMARK  status: ('A' for Active; 'I' for Inactive)
REMARK    1  A    between atoms: O_2  and  C_3 
REMARK    2  A    between atoms: C_3  and  C_4 
REMARK    3  A    between atoms: C_7  and  C_8 
REMARK    4  A    between atoms: C_8  and  O_9 
REMARK    5  A    between atoms: O_9  and  C_10 
REMARK    6  A    between atoms: C_11  and  C_12 
REMARK    7  A    between atoms: C_13  and  C_14 
REMARK    8  A    between atoms: C_13  and  C_22 
REMARK       I    between atoms: C_14  and  N_15 
ROOT
HETATM    1  C   UNL     1      40.723  -5.588  19.186  1.00  0.00     0.035 C 
HETATM    2  C   UNL     1      40.685  -6.787  18.570  1.00  0.00     0.079 C 
ENDROOT
BRANCH   1   3
HETATM    3  C   UNL     1      41.101  -4.275  18.633  1.00  0.00    -0.002 A 
HETATM    4  C   UNL     1      40.268  -3.614  17.721  1.00  0.00     0.079 A 
HETATM    5  C   UNL     1      40.676  -2.417  17.120  1.00  0.00     0.037 A 
HETATM    6  C   UNL     1      41.903  -1.850  17.460  1.00  0.00     0.003 A 
HETATM    7  C   UNL     1      42.733  -2.490  18.377  1.00  0.00     0.001 A 
HETATM    8  C   UNL     1      42.341  -3.702  18.951  1.00  0.00     0.014 A 
BRANCH   4   9
HETATM    9  O   UNL     1      39.091  -4.212  17.351  1.00  0.00    -0.346 OA
BRANCH   9  10
HETATM   10  C   UNL     1      38.578  -3.708  16.110  1.00  0.00     0.214 C 
BRANCH  10  11
HETATM   11  C   UNL     1      38.955  -4.620  14.961  1.00  0.00    -0.034 A 
HETATM   12  C   UNL     1      38.339  -5.875  14.848  1.00  0.00     0.010 A 
HETATM   13  C   UNL     1      38.655  -6.732  13.790  1.00  0.00     0.018 A 
HETATM   14  C   UNL     1      39.593  -6.348  12.823  1.00  0.00     0.039 A 
HETATM   15  C   UNL     1      40.201  -5.092  12.921  1.00  0.00     0.018 A 
HETATM   16  C   UNL     1      39.880  -4.235  13.979  1.00  0.00     0.010 A 
BRANCH  14  17
HETATM   17  C   UNL     1      39.905  -7.301  11.723  1.00  0.00     0.292 C 
HETATM   18  O   UNL     1      40.666  -7.045  10.805  1.00  0.00    -0.259 OA
BRANCH  17  19
HETATM   19  O   UNL     1      39.222  -8.462  11.887  1.00  0.00    -0.323 OA
HETATM   20  C   UNL     1      39.699  -9.537  11.077  1.00  0.00     0.213 C 
ENDBRANCH  17  19
ENDBRANCH  14  17
ENDBRANCH  10  11
ENDBRANCH   9  10
ENDBRANCH   4   9
ENDBRANCH   1   3
BRANCH   2  21
HETATM   21  C   UNL     1      40.258  -7.981  19.384  1.00  0.00     0.257 C 
HETATM   22  N   UNL     1      40.995  -8.377  20.485  1.00  0.00    -0.344 N 
HETATM   23  C   UNL     1      40.589  -9.578  21.221  1.00  0.00     0.152 C 
HETATM   24  C   UNL     1      42.262  -7.825  20.983  1.00  0.00     0.152 C 
HETATM   25  C   UNL     1      41.710 -10.621  21.164  1.00  0.00     0.187 C 
HETATM   26  O   UNL     1      42.947 -10.078  21.659  1.00  0.00    -0.388 OA
HETATM   27  C   UNL     1      43.343  -8.913  20.913  1.00  0.00     0.187 C 
HETATM   28  O   UNL     1      39.201  -8.545  19.078  1.00  0.00    -0.267 OA
ENDBRANCH   2  21
BRANCH   2  29
HETATM   29  C   UNL     1      41.228  -6.997  17.262  1.00  0.00     0.144 A 
HETATM   30  N   UNL     1      42.098  -6.306  16.544  1.00  0.00    -0.228 NA
HETATM   31  C   UNL     1      42.345  -7.047  15.414  1.00  0.00     0.086 A 
HETATM   32  C   UNL     1      41.585  -8.206  15.408  1.00  0.00     0.062 A 
HETATM   33  C   UNL     1      43.222  -6.798  14.350  1.00  0.00     0.034 A 
HETATM   34  N   UNL     1      40.876  -8.145  16.578  1.00  0.00    -0.338 N 
HETATM   35  C   UNL     1      41.635  -9.156  14.387  1.00  0.00     0.032 A 
HETATM   36  H   UNL     1      40.251  -8.857  16.936  1.00  0.00     0.167 HD
HETATM   37  C   UNL     1      42.517  -8.893  13.333  1.00  0.00     0.002 A 
HETATM   38  C   UNL     1      43.301  -7.737  13.313  1.00  0.00     0.002 A 
ENDBRANCH   2  29
TORSDOF 8
ENDMDL
MODEL 9
REMARK VINA RESULT:      -7.6      3.572      9.197
REMARK  8 active torsions:
REMARK  status: ('A' for Active; 'I' for Inactive)
REMARK    1  A    between atoms: O_2  and  C_3 
REMARK    2  A    between atoms: C_3  and  C_4 
REMARK    3  A    between atoms: C_7  and  C_8 
REMARK    4  A    between atoms: C_8  and  O_9 
REMARK    5  A    between atoms: O_9  and  C_10 
REMARK    6  A    between atoms: C_11  and  C_12 
REMARK    7  A    between atoms: C_13  and  C_14 
REMARK    8  A    between atoms: C_13  and  C_22 
REMARK       I    between atoms: C_14  and  N_15 
ROOT
HETATM    1  C   UNL     1      42.287 -10.621   6.910  1.00  0.00     0.035 C 
HETATM    2  C   UNL     1      41.520 -11.450   6.171  1.00  0.00     0.079 C 
ENDROOT
BRANCH   1   3
HETATM    3  C   UNL     1      43.726 -10.715   7.213  1.00  0.00    -0.002 A 
HETATM    4  C   UNL     1      44.212 -10.400   8.489  1.00  0.00     0.079 A 
HETATM    5  C   UNL     1      45.588 -10.391   8.746  1.00  0.00     0.037 A 
HETATM    6  C   UNL     1      46.487 -10.739   7.739  1.00  0.00     0.003 A 
HETATM    7  C   UNL     1      46.015 -11.070   6.472  1.00  0.00     0.001 A 
HETATM    8  C   UNL     1      44.644 -11.045   6.206  1.00  0.00     0.014 A 
BRANCH   4   9
HETATM    9  O   UNL     1      43.322 -10.002   9.453  1.00  0.00    -0.346 OA
BRANCH   9  10
HETATM   10  C   UNL     1      43.538 -10.654  10.712  1.00  0.00     0.214 C 
BRANCH  10  11
HETATM   11  C   UNL     1      43.039  -9.795  11.856  1.00  0.00    -0.034 A 
HETATM   12  C   UNL     1      43.655  -8.560  12.107  1.00  0.00     0.010 A 
HETATM   13  C   UNL     1      43.207  -7.738  13.145  1.00  0.00     0.018 A 
HETATM   14  C   UNL     1      42.133  -8.136  13.951  1.00  0.00     0.039 A 
HETATM   15  C   UNL     1      41.505  -9.360  13.697  1.00  0.00     0.018 A 
HETATM   16  C   UNL     1      41.953 -10.179  12.656  1.00  0.00     0.010 A 
BRANCH  14  17
HETATM   17  C   UNL     1      41.702  -7.232  15.051  1.00  0.00     0.292 C 
HETATM   18  O   UNL     1      42.478  -6.671  15.807  1.00  0.00    -0.259 OA
BRANCH  17  19
HETATM   19  O   UNL     1      40.348  -7.139  15.092  1.00  0.00    -0.323 OA
HETATM   20  C   UNL     1      39.852  -5.808  14.952  1.00  0.00     0.213 C 
ENDBRANCH  17  19
ENDBRANCH  14  17
ENDBRANCH  10  11
ENDBRANCH   9  10
ENDBRANCH   4   9
ENDBRANCH   1   3
BRANCH   2  21
HETATM   21  C   UNL     1      40.059 -11.111   6.026  1.00  0.00     0.257 C 
HETATM   22  N   UNL     1      39.639 -10.228   5.048  1.00  0.00    -0.344 N 
HETATM   23  C   UNL     1      38.219  -9.872   4.970  1.00  0.00     0.152 C 
HETATM   24  C   UNL     1      40.456  -9.452   4.106  1.00  0.00     0.152 C 
HETATM   25  C   UNL     1      38.053  -8.367   5.200  1.00  0.00     0.187 C 
HETATM   26  O   UNL     1      38.849  -7.610   4.270  1.00  0.00    -0.388 OA
HETATM   27  C   UNL     1      40.243  -7.955   4.374  1.00  0.00     0.187 C 
HETATM   28  O   UNL     1      39.252 -11.697   6.757  1.00  0.00    -0.267 OA
ENDBRANCH   2  21
BRANCH   2  29
HETATM   29  C   UNL     1      41.988 -12.723   5.711  1.00  0.00     0.144 A 
HETATM   30  N   UNL     1      42.200 -13.867   6.339  1.00  0.00    -0.228 NA
HETATM   31  C   UNL     1      42.526 -14.786   5.372  1.00  0.00     0.086 A 
HETATM   32  C   UNL     1      42.556 -14.195   4.119  1.00  0.00     0.062 A 
HETATM   33  C   UNL     1      42.798 -16.156   5.489  1.00  0.00     0.034 A 
HETATM   34  N   UNL     1      42.228 -12.888   4.360  1.00  0.00    -0.338 N 
HETATM   35  C   UNL     1      42.850 -14.889   2.944  1.00  0.00     0.032 A 
HETATM   36  H   UNL     1      42.099 -12.165   3.662  1.00  0.00     0.167 HD
HETATM   37  C   UNL     1      43.116 -16.257   3.079  1.00  0.00     0.002 A 
HETATM   38  C   UNL     1      43.089 -16.883   4.327  1.00  0.00     0.002 A 
ENDBRANCH   2  29
TORSDOF 8
ENDMDL
MODEL 10
REMARK VINA RESULT:      -7.3      3.171      7.580
REMARK  8 active torsions:
REMARK  status: ('A' for Active; 'I' for Inactive)
REMARK    1  A    between atoms: O_2  and  C_3 
REMARK    2  A    between atoms: C_3  and  C_4 
REMARK    3  A    between atoms: C_7  and  C_8 
REMARK    4  A    between atoms: C_8  and  O_9 
REMARK    5  A    between atoms: O_9  and  C_10 
REMARK    6  A    between atoms: C_11  and  C_12 
REMARK    7  A    between atoms: C_13  and  C_14 
REMARK    8  A    between atoms: C_13  and  C_22 
REMARK       I    between atoms: C_14  and  N_15 
ROOT
HETATM    1  C   UNL     1      39.857 -12.130   3.385  1.00  0.00     0.035 C 
HETATM    2  C   UNL     1      39.422 -11.410   2.330  1.00  0.00     0.079 C 
ENDROOT
BRANCH   1   3
HETATM    3  C   UNL     1      40.774 -13.283   3.404  1.00  0.00    -0.002 A 
HETATM    4  C   UNL     1      42.162 -13.096   3.432  1.00  0.00     0.079 A 
HETATM    5  C   UNL     1      43.032 -14.189   3.347  1.00  0.00     0.037 A 
HETATM    6  C   UNL     1      42.519 -15.483   3.276  1.00  0.00     0.003 A 
HETATM    7  C   UNL     1      41.141 -15.684   3.263  1.00  0.00     0.001 A 
HETATM    8  C   UNL     1      40.273 -14.590   3.313  1.00  0.00     0.014 A 
BRANCH   4   9
HETATM    9  O   UNL     1      42.654 -11.816   3.443  1.00  0.00    -0.346 OA
BRANCH   9  10
HETATM   10  C   UNL     1      44.032 -11.753   3.835  1.00  0.00     0.214 C 
BRANCH  10  11
HETATM   11  C   UNL     1      44.158 -11.387   5.300  1.00  0.00    -0.034 A 
HETATM   12  C   UNL     1      43.031 -10.919   5.991  1.00  0.00     0.010 A 
HETATM   13  C   UNL     1      43.113 -10.587   7.347  1.00  0.00     0.018 A 
HETATM   14  C   UNL     1      44.324 -10.721   8.037  1.00  0.00     0.039 A 
HETATM   15  C   UNL     1      45.449 -11.201   7.357  1.00  0.00     0.018 A 
HETATM   16  C   UNL     1      45.364 -11.535   6.002  1.00  0.00     0.010 A 
BRANCH  14  17
HETATM   17  C   UNL     1      44.364 -10.343   9.476  1.00  0.00     0.292 C 
HETATM   18  O   UNL     1      45.289 -10.620  10.221  1.00  0.00    -0.259 OA
BRANCH  17  19
HETATM   19  O   UNL     1      43.237  -9.672   9.826  1.00  0.00    -0.323 OA
HETATM   20  C   UNL     1      42.765  -9.973  11.139  1.00  0.00     0.213 C 
ENDBRANCH  17  19
ENDBRANCH  14  17
ENDBRANCH  10  11
ENDBRANCH   9  10
ENDBRANCH   4   9
ENDBRANCH   1   3
BRANCH   2  21
HETATM   21  C   UNL     1      38.475 -10.270   2.601  1.00  0.00     0.257 C 
HETATM   22  N   UNL     1      38.892  -9.173   3.333  1.00  0.00    -0.344 N 
HETATM   23  C   UNL     1      37.930  -8.108   3.631  1.00  0.00     0.152 C 
HETATM   24  C   UNL     1      40.181  -8.957   4.002  1.00  0.00     0.152 C 
HETATM   25  C   UNL     1      37.755  -7.982   5.148  1.00  0.00     0.187 C 
HETATM   26  O   UNL     1      39.020  -7.763   5.799  1.00  0.00    -0.388 OA
HETATM   27  C   UNL     1      39.946  -8.828   5.514  1.00  0.00     0.187 C 
HETATM   28  O   UNL     1      37.349 -10.318   2.093  1.00  0.00    -0.267 OA
ENDBRANCH   2  21
BRANCH   2  29
HETATM   29  C   UNL     1      39.652 -11.816   0.977  1.00  0.00     0.144 A 
HETATM   30  N   UNL     1      40.592 -11.495   0.103  1.00  0.00    -0.228 NA
HETATM   31  C   UNL     1      40.385 -12.286  -0.999  1.00  0.00     0.086 A 
HETATM   32  C   UNL     1      39.271 -13.092  -0.827  1.00  0.00     0.062 A 
HETATM   33  C   UNL     1      41.123 -12.383  -2.187  1.00  0.00     0.034 A 
HETATM   34  N   UNL     1      38.815 -12.766   0.422  1.00  0.00    -0.338 N 
HETATM   35  C   UNL     1      38.825 -14.007  -1.782  1.00  0.00     0.032 A 
HETATM   36  H   UNL     1      38.039 -13.201   0.908  1.00  0.00     0.167 HD
HETATM   37  C   UNL     1      39.574 -14.092  -2.961  1.00  0.00     0.002 A 
HETATM   38  C   UNL     1      40.705 -13.298  -3.163  1.00  0.00     0.002 A 
ENDBRANCH   2  29
TORSDOF 8
ENDMDL
