MODEL 1
REMARK VINA RESULT:      -7.5      0.000      0.000
REMARK  7 active torsions:
REMARK  status: ('A' for Active; 'I' for Inactive)
REMARK    1  A    between atoms: C_2  and  C_3 
REMARK    2  A    between atoms: C_3  and  N_4 
REMARK    3  A    between atoms: C_7  and  C_8 
REMARK    4  A    between atoms: C_8  and  N_9 
REMARK       I    between atoms: N_9  and  C_10 
REMARK       I    between atoms: C_10  and  N_11 
REMARK    5  A    between atoms: N_11  and  C_12 
REMARK    6  A    between atoms: C_15  and  N_16 
REMARK       I    between atoms: N_16  and  C_17 
REMARK    7  A    between atoms: C_17  and  C_18 
ROOT
HETATM    1  N   UNL     1      41.658 -15.177   2.354  1.00  0.00    -0.342 N 
HETATM    2  C   UNL     1      40.854 -14.345   1.632  1.00  0.00     0.320 C 
HETATM    3  N   UNL     1      40.619 -13.105   2.150  1.00  0.00    -0.309 N 
HETATM    4  O   UNL     1      40.286 -14.713   0.607  1.00  0.00    -0.247 OA
HETATM    5  H   UNL     1      41.779 -14.940   3.329  1.00  0.00     0.164 HD
HETATM    6  H   UNL     1      39.834 -12.649   1.696  1.00  0.00     0.170 HD
ENDROOT
BRANCH   3   7
HETATM    7  C   UNL     1      41.238 -12.400   3.199  1.00  0.00     0.036 A 
HETATM    8  C   UNL     1      42.216 -11.425   3.005  1.00  0.00     0.032 A 
HETATM    9  C   UNL     1      42.873 -10.843   4.096  1.00  0.00     0.032 A 
HETATM   10  C   UNL     1      42.542 -11.209   5.399  1.00  0.00     0.035 A 
HETATM   11  C   UNL     1      41.486 -12.105   5.596  1.00  0.00     0.032 A 
HETATM   12  C   UNL     1      40.832 -12.689   4.504  1.00  0.00     0.032 A 
BRANCH  10  13
HETATM   13  N   UNL     1      43.228 -10.753   6.539  1.00  0.00    -0.321 N 
HETATM   14  C   UNL     1      44.229 -11.399   7.247  1.00  0.00     0.279 C 
HETATM   15  O   UNL     1      44.750 -12.463   6.926  1.00  0.00    -0.265 OA
HETATM   16  H   UNL     1      42.903  -9.892   6.966  1.00  0.00     0.169 HD
BRANCH  14  17
HETATM   17  C   UNL     1      44.586 -10.704   8.470  1.00  0.00     0.142 A 
HETATM   18  O   UNL     1      43.975 -11.056   9.648  1.00  0.00    -0.317 OA
HETATM   19  C   UNL     1      44.514 -10.281  10.625  1.00  0.00     0.143 A 
HETATM   20  C   UNL     1      45.462  -9.434  10.101  1.00  0.00     0.027 A 
HETATM   21  C   UNL     1      45.507  -9.703   8.712  1.00  0.00     0.045 A 
ENDBRANCH  14  17
ENDBRANCH  10  13
ENDBRANCH   3   7
BRANCH   1  22
HETATM   22  C   UNL     1      41.978 -16.520   1.929  1.00  0.00     0.130 C 
BRANCH  22  23
HETATM   23  C   UNL     1      42.514 -17.364   3.079  1.00  0.00     0.031 C 
HETATM   24  C   UNL     1      43.272 -16.527   4.093  1.00  0.00     0.241 C 
HETATM   25  N   UNL     1      44.080 -17.546   4.884  1.00  0.00    -0.071 N 
HETATM   26  H   UNL     1      45.032 -17.165   4.983  1.00  0.00     0.279 HD
HETATM   27  C   UNL     1      44.163 -18.800   4.021  1.00  0.00     0.235 C 
HETATM   28  C   UNL     1      43.561 -18.397   2.687  1.00  0.00     0.035 C 
BRANCH  25  29
HETATM   29  C   UNL     1      43.535 -17.784   6.272  1.00  0.00     0.234 C 
BRANCH  29  30
HETATM   30  C   UNL     1      43.956 -16.660   7.211  1.00  0.00     0.023 C 
HETATM   31  C   UNL     1      42.755 -15.822   7.623  1.00  0.00     0.007 C 
ENDBRANCH  29  30
ENDBRANCH  25  29
ENDBRANCH  22  23
ENDBRANCH   1  22
TORSDOF 7
ENDMDL
MODEL 2
REMARK VINA RESULT:      -7.5      2.769      8.546
REMARK  7 active torsions:
REMARK  status: ('A' for Active; 'I' for Inactive)
REMARK    1  A    between atoms: C_2  and  C_3 
REMARK    2  A    between atoms: C_3  and  N_4 
REMARK    3  A    between atoms: C_7  and  C_8 
REMARK    4  A    between atoms: C_8  and  N_9 
REMARK       I    between atoms: N_9  and  C_10 
REMARK       I    between atoms: C_10  and  N_11 
REMARK    5  A    between atoms: N_11  and  C_12 
REMARK    6  A    between atoms: C_15  and  N_16 
REMARK       I    between atoms: N_16  and  C_17 
REMARK    7  A    between atoms: C_17  and  C_18 
ROOT
HETATM    1  N   UNL     1      42.796 -15.096   6.155  1.00  0.00    -0.342 N 
HETATM    2  C   UNL     1      43.145 -16.388   5.895  1.00  0.00     0.320 C 
HETATM    3  N   UNL     1      42.580 -16.976   4.801  1.00  0.00    -0.309 N 
HETATM    4  O   UNL     1      43.861 -17.035   6.655  1.00  0.00    -0.247 OA
HETATM    5  H   UNL     1      41.949 -14.768   5.712  1.00  0.00     0.164 HD
HETATM    6  H   UNL     1      42.689 -17.984   4.817  1.00  0.00     0.170 HD
ENDROOT
BRANCH   3   7
HETATM    7  C   UNL     1      41.863 -16.435   3.718  1.00  0.00     0.036 A 
HETATM    8  C   UNL     1      40.498 -16.149   3.758  1.00  0.00     0.032 A 
HETATM    9  C   UNL     1      39.824 -15.719   2.609  1.00  0.00     0.032 A 
HETATM   10  C   UNL     1      40.510 -15.543   1.409  1.00  0.00     0.035 A 
HETATM   11  C   UNL     1      41.897 -15.723   1.397  1.00  0.00     0.032 A 
HETATM   12  C   UNL     1      42.570 -16.158   2.545  1.00  0.00     0.032 A 
BRANCH  10  13
HETATM   13  N   UNL     1      39.886 -15.220   0.191  1.00  0.00    -0.321 N 
HETATM   14  C   UNL     1      39.792 -13.978  -0.415  1.00  0.00     0.279 C 
HETATM   15  O   UNL     1      40.331 -12.951  -0.015  1.00  0.00    -0.265 OA
HETATM   16  H   UNL     1      39.356 -15.952  -0.271  1.00  0.00     0.169 HD
BRANCH  14  17
HETATM   17  C   UNL     1      38.929 -13.990  -1.583  1.00  0.00     0.142 A 
HETATM   18  O   UNL     1      37.877 -13.110  -1.653  1.00  0.00    -0.317 OA
HETATM   19  C   UNL     1      37.266 -13.311  -2.849  1.00  0.00     0.143 A 
HETATM   20  C   UNL     1      37.902 -14.304  -3.555  1.00  0.00     0.027 A 
HETATM   21  C   UNL     1      38.972 -14.745  -2.739  1.00  0.00     0.045 A 
ENDBRANCH  14  17
ENDBRANCH  10  13
ENDBRANCH   3   7
BRANCH   1  22
HETATM   22  C   UNL     1      43.308 -14.358   7.287  1.00  0.00     0.130 C 
BRANCH  22  23
HETATM   23  C   UNL     1      44.160 -13.172   6.852  1.00  0.00     0.031 C 
HETATM   24  C   UNL     1      43.931 -11.955   7.729  1.00  0.00     0.241 C 
HETATM   25  N   UNL     1      44.489 -10.799   6.912  1.00  0.00    -0.071 N 
HETATM   26  H   UNL     1      43.805 -10.031   6.969  1.00  0.00     0.279 HD
HETATM   27  C   UNL     1      44.542 -11.275   5.465  1.00  0.00     0.235 C 
HETATM   28  C   UNL     1      43.839 -12.619   5.470  1.00  0.00     0.035 C 
BRANCH  25  29
HETATM   29  C   UNL     1      45.804 -10.280   7.443  1.00  0.00     0.234 C 
BRANCH  29  30
HETATM   30  C   UNL     1      45.611  -9.631   8.808  1.00  0.00     0.023 C 
HETATM   31  C   UNL     1      44.920  -8.283   8.672  1.00  0.00     0.007 C 
ENDBRANCH  29  30
ENDBRANCH  25  29
ENDBRANCH  22  23
ENDBRANCH   1  22
TORSDOF 7
ENDMDL
MODEL 3
REMARK VINA RESULT:      -7.4      2.386      7.537
REMARK  7 active torsions:
REMARK  status: ('A' for Active; 'I' for Inactive)
REMARK    1  A    between atoms: C_2  and  C_3 
REMARK    2  A    between atoms: C_3  and  N_4 
REMARK    3  A    between atoms: C_7  and  C_8 
REMARK    4  A    between atoms: C_8  and  N_9 
REMARK       I    between atoms: N_9  and  C_10 
REMARK       I    between atoms: C_10  and  N_11 
REMARK    5  A    between atoms: N_11  and  C_12 
REMARK    6  A    between atoms: C_15  and  N_16 
REMARK       I    between atoms: N_16  and  C_17 
REMARK    7  A    between atoms: C_17  and  C_18 
ROOT
HETATM    1  N   UNL     1      43.100 -13.715   5.844  1.00  0.00    -0.342 N 
HETATM    2  C   UNL     1      43.192 -12.375   6.077  1.00  0.00     0.320 C 
HETATM    3  N   UNL     1      42.660 -11.543   5.136  1.00  0.00    -0.309 N 
HETATM    4  O   UNL     1      43.804 -11.921   7.041  1.00  0.00    -0.247 OA
HETATM    5  H   UNL     1      42.920 -13.987   4.887  1.00  0.00     0.164 HD
HETATM    6  H   UNL     1      42.980 -10.588   5.253  1.00  0.00     0.170 HD
ENDROOT
BRANCH   3   7
HETATM    7  C   UNL     1      41.806 -11.794   4.046  1.00  0.00     0.036 A 
HETATM    8  C   UNL     1      40.474 -12.185   4.181  1.00  0.00     0.032 A 
HETATM    9  C   UNL     1      39.712 -12.529   3.057  1.00  0.00     0.032 A 
HETATM   10  C   UNL     1      40.264 -12.460   1.780  1.00  0.00     0.035 A 
HETATM   11  C   UNL     1      41.563 -11.963   1.637  1.00  0.00     0.032 A 
HETATM   12  C   UNL     1      42.326 -11.623   2.761  1.00  0.00     0.032 A 
BRANCH  10  13
HETATM   13  N   UNL     1      39.601 -12.891   0.617  1.00  0.00    -0.321 N 
HETATM   14  C   UNL     1      39.849 -14.029  -0.134  1.00  0.00     0.279 C 
HETATM   15  O   UNL     1      40.651 -14.910   0.159  1.00  0.00    -0.265 OA
HETATM   16  H   UNL     1      38.918 -12.261   0.208  1.00  0.00     0.169 HD
BRANCH  14  17
HETATM   17  C   UNL     1      39.082 -14.063  -1.367  1.00  0.00     0.142 A 
HETATM   18  O   UNL     1      38.043 -13.183  -1.538  1.00  0.00    -0.317 OA
HETATM   19  C   UNL     1      37.529 -13.408  -2.775  1.00  0.00     0.143 A 
HETATM   20  C   UNL     1      38.216 -14.417  -3.407  1.00  0.00     0.027 A 
HETATM   21  C   UNL     1      39.215 -14.842  -2.500  1.00  0.00     0.045 A 
ENDBRANCH  14  17
ENDBRANCH  10  13
ENDBRANCH   3   7
BRANCH   1  22
HETATM   22  C   UNL     1      43.633 -14.707   6.750  1.00  0.00     0.130 C 
BRANCH  22  23
HETATM   23  C   UNL     1      43.903 -16.030   6.045  1.00  0.00     0.031 C 
HETATM   24  C   UNL     1      43.000 -16.228   4.841  1.00  0.00     0.241 C 
HETATM   25  N   UNL     1      43.090 -17.719   4.552  1.00  0.00    -0.071 N 
HETATM   26  H   UNL     1      42.130 -18.052   4.379  1.00  0.00     0.279 HD
HETATM   27  C   UNL     1      43.593 -18.381   5.831  1.00  0.00     0.235 C 
HETATM   28  C   UNL     1      43.596 -17.274   6.868  1.00  0.00     0.035 C 
BRANCH  25  29
HETATM   29  C   UNL     1      43.913 -18.036   3.326  1.00  0.00     0.234 C 
BRANCH  29  30
HETATM   30  C   UNL     1      43.038 -18.652   2.240  1.00  0.00     0.023 C 
HETATM   31  C   UNL     1      43.333 -20.136   2.086  1.00  0.00     0.007 C 
ENDBRANCH  29  30
ENDBRANCH  25  29
ENDBRANCH  22  23
ENDBRANCH   1  22
TORSDOF 7
ENDMDL
MODEL 4
REMARK VINA RESULT:      -7.3      2.357      4.005
REMARK  7 active torsions:
REMARK  status: ('A' for Active; 'I' for Inactive)
REMARK    1  A    between atoms: C_2  and  C_3 
REMARK    2  A    between atoms: C_3  and  N_4 
REMARK    3  A    between atoms: C_7  and  C_8 
REMARK    4  A    between atoms: C_8  and  N_9 
REMARK       I    between atoms: N_9  and  C_10 
REMARK       I    between atoms: C_10  and  N_11 
REMARK    5  A    between atoms: N_11  and  C_12 
REMARK    6  A    between atoms: C_15  and  N_16 
REMARK       I    between atoms: N_16  and  C_17 
REMARK    7  A    between atoms: C_17  and  C_18 
ROOT
HETATM    1  N   UNL     1      42.449 -13.407   5.154  1.00  0.00    -0.342 N 
HETATM    2  C   UNL     1      43.175 -12.674   4.265  1.00  0.00     0.320 C 
HETATM    3  N   UNL     1      43.613 -11.450   4.679  1.00  0.00    -0.309 N 
HETATM    4  O   UNL     1      43.356 -13.044   3.107  1.00  0.00    -0.247 OA
HETATM    5  H   UNL     1      42.044 -12.894   5.925  1.00  0.00     0.164 HD
HETATM    6  H   UNL     1      43.922 -10.876   3.901  1.00  0.00     0.170 HD
ENDROOT
BRANCH   3   7
HETATM    7  C   UNL     1      43.667 -10.863   5.957  1.00  0.00     0.036 A 
HETATM    8  C   UNL     1      44.763 -10.971   6.813  1.00  0.00     0.032 A 
HETATM    9  C   UNL     1      44.706 -10.459   8.116  1.00  0.00     0.032 A 
HETATM   10  C   UNL     1      43.562  -9.810   8.572  1.00  0.00     0.035 A 
HETATM   11  C   UNL     1      42.505  -9.606   7.678  1.00  0.00     0.032 A 
HETATM   12  C   UNL     1      42.561 -10.121   6.377  1.00  0.00     0.032 A 
BRANCH  10  13
HETATM   13  N   UNL     1      43.388  -9.367   9.895  1.00  0.00    -0.321 N 
HETATM   14  C   UNL     1      43.473 -10.111  11.061  1.00  0.00     0.279 C 
HETATM   15  O   UNL     1      43.813 -11.288  11.127  1.00  0.00    -0.265 OA
HETATM   16  H   UNL     1      43.069  -8.413  10.031  1.00  0.00     0.169 HD
BRANCH  14  17
HETATM   17  C   UNL     1      43.066  -9.359  12.235  1.00  0.00     0.142 A 
HETATM   18  O   UNL     1      42.168  -9.915  13.113  1.00  0.00    -0.317 OA
HETATM   19  C   UNL     1      41.993  -9.024  14.123  1.00  0.00     0.143 A 
HETATM   20  C   UNL     1      42.761  -7.903  13.915  1.00  0.00     0.027 A 
HETATM   21  C   UNL     1      43.450  -8.116  12.698  1.00  0.00     0.045 A 
ENDBRANCH  14  17
ENDBRANCH  10  13
ENDBRANCH   3   7
BRANCH   1  22
HETATM   22  C   UNL     1      41.912 -14.712   4.841  1.00  0.00     0.130 C 
BRANCH  22  23
HETATM   23  C   UNL     1      42.917 -15.821   5.125  1.00  0.00     0.031 C 
HETATM   24  C   UNL     1      42.504 -17.138   4.493  1.00  0.00     0.241 C 
HETATM   25  N   UNL     1      43.340 -18.178   5.224  1.00  0.00    -0.071 N 
HETATM   26  H   UNL     1      42.712 -18.960   5.459  1.00  0.00     0.279 HD
HETATM   27  C   UNL     1      43.794 -17.532   6.529  1.00  0.00     0.235 C 
HETATM   28  C   UNL     1      43.050 -16.212   6.591  1.00  0.00     0.035 C 
BRANCH  25  29
HETATM   29  C   UNL     1      44.465 -18.730   4.382  1.00  0.00     0.234 C 
BRANCH  29  30
HETATM   30  C   UNL     1      44.071 -18.750   2.910  1.00  0.00     0.023 C 
HETATM   31  C   UNL     1      43.700 -20.157   2.469  1.00  0.00     0.007 C 
ENDBRANCH  29  30
ENDBRANCH  25  29
ENDBRANCH  22  23
ENDBRANCH   1  22
TORSDOF 7
ENDMDL
MODEL 5
REMARK VINA RESULT:      -7.3      3.164      5.734
REMARK  7 active torsions:
REMARK  status: ('A' for Active; 'I' for Inactive)
REMARK    1  A    between atoms: C_2  and  C_3 
REMARK    2  A    between atoms: C_3  and  N_4 
REMARK    3  A    between atoms: C_7  and  C_8 
REMARK    4  A    between atoms: C_8  and  N_9 
REMARK       I    between atoms: N_9  and  C_10 
REMARK       I    between atoms: C_10  and  N_11 
REMARK    5  A    between atoms: N_11  and  C_12 
REMARK    6  A    between atoms: C_15  and  N_16 
REMARK       I    between atoms: N_16  and  C_17 
REMARK    7  A    between atoms: C_17  and  C_18 
ROOT
HETATM    1  N   UNL     1      42.942 -12.101   6.818  1.00  0.00    -0.342 N 
HETATM    2  C   UNL     1      43.976 -11.488   6.176  1.00  0.00     0.320 C 
HETATM    3  N   UNL     1      44.546 -10.416   6.798  1.00  0.00    -0.309 N 
HETATM    4  O   UNL     1      44.329 -11.817   5.046  1.00  0.00    -0.247 OA
HETATM    5  H   UNL     1      42.488 -11.561   7.541  1.00  0.00     0.164 HD
HETATM    6  H   UNL     1      45.125  -9.876   6.164  1.00  0.00     0.170 HD
ENDROOT
BRANCH   3   7
HETATM    7  C   UNL     1      44.434  -9.935   8.116  1.00  0.00     0.036 A 
HETATM    8  C   UNL     1      45.185 -10.423   9.185  1.00  0.00     0.032 A 
HETATM    9  C   UNL     1      44.943  -9.979  10.491  1.00  0.00     0.032 A 
HETATM   10  C   UNL     1      43.962  -9.022  10.743  1.00  0.00     0.035 A 
HETATM   11  C   UNL     1      43.286  -8.453   9.659  1.00  0.00     0.032 A 
HETATM   12  C   UNL     1      43.526  -8.900   8.353  1.00  0.00     0.032 A 
BRANCH  10  13
HETATM   13  N   UNL     1      43.586  -8.607  12.033  1.00  0.00    -0.321 N 
HETATM   14  C   UNL     1      42.557  -9.098  12.820  1.00  0.00     0.279 C 
HETATM   15  O   UNL     1      41.849 -10.061  12.541  1.00  0.00    -0.265 OA
HETATM   16  H   UNL     1      44.051  -7.789  12.415  1.00  0.00     0.169 HD
BRANCH  14  17
HETATM   17  C   UNL     1      42.353  -8.315  14.025  1.00  0.00     0.142 A 
HETATM   18  O   UNL     1      41.410  -8.718  14.939  1.00  0.00    -0.317 OA
HETATM   19  C   UNL     1      41.453  -7.837  15.972  1.00  0.00     0.143 A 
HETATM   20  C   UNL     1      42.404  -6.871  15.743  1.00  0.00     0.027 A 
HETATM   21  C   UNL     1      42.982  -7.176  14.488  1.00  0.00     0.045 A 
ENDBRANCH  14  17
ENDBRANCH  10  13
ENDBRANCH   3   7
BRANCH   1  22
HETATM   22  C   UNL     1      42.239 -13.236   6.266  1.00  0.00     0.130 C 
BRANCH  22  23
HETATM   23  C   UNL     1      43.058 -14.517   6.375  1.00  0.00     0.031 C 
HETATM   24  C   UNL     1      42.592 -15.575   5.392  1.00  0.00     0.241 C 
HETATM   25  N   UNL     1      43.187 -16.867   5.929  1.00  0.00    -0.071 N 
HETATM   26  H   UNL     1      42.446 -17.582   5.888  1.00  0.00     0.279 HD
HETATM   27  C   UNL     1      43.520 -16.617   7.396  1.00  0.00     0.235 C 
HETATM   28  C   UNL     1      42.931 -15.253   7.702  1.00  0.00     0.035 C 
BRANCH  25  29
HETATM   29  C   UNL     1      44.351 -17.368   5.107  1.00  0.00     0.234 C 
BRANCH  29  30
HETATM   30  C   UNL     1      44.128 -18.819   4.694  1.00  0.00     0.023 C 
HETATM   31  C   UNL     1      44.119 -18.954   3.179  1.00  0.00     0.007 C 
ENDBRANCH  29  30
ENDBRANCH  25  29
ENDBRANCH  22  23
ENDBRANCH   1  22
TORSDOF 7
ENDMDL
MODEL 6
REMARK VINA RESULT:      -7.2      2.735      8.522
REMARK  7 active torsions:
REMARK  status: ('A' for Active; 'I' for Inactive)
REMARK    1  A    between atoms: C_2  and  C_3 
REMARK    2  A    between atoms: C_3  and  N_4 
REMARK    3  A    between atoms: C_7  and  C_8 
REMARK    4  A    between atoms: C_8  and  N_9 
REMARK       I    between atoms: N_9  and  C_10 
REMARK       I    between atoms: C_10  and  N_11 
REMARK    5  A    between atoms: N_11  and  C_12 
REMARK    6  A    between atoms: C_15  and  N_16 
REMARK       I    between atoms: N_16  and  C_17 
REMARK    7  A    between atoms: C_17  and  C_18 
ROOT
HETATM    1  N   UNL     1      43.468 -14.873   5.850  1.00  0.00    -0.342 N 
HETATM    2  C   UNL     1      43.623 -16.221   5.721  1.00  0.00     0.320 C 
HETATM    3  N   UNL     1      42.874 -16.844   4.766  1.00  0.00    -0.309 N 
HETATM    4  O   UNL     1      44.333 -16.872   6.484  1.00  0.00    -0.247 OA
HETATM    5  H   UNL     1      42.625 -14.484   5.452  1.00  0.00     0.164 HD
HETATM    6  H   UNL     1      42.859 -17.850   4.896  1.00  0.00     0.170 HD
ENDROOT
BRANCH   3   7
HETATM    7  C   UNL     1      42.116 -16.334   3.696  1.00  0.00     0.036 A 
HETATM    8  C   UNL     1      40.739 -16.119   3.756  1.00  0.00     0.032 A 
HETATM    9  C   UNL     1      40.028 -15.717   2.619  1.00  0.00     0.032 A 
HETATM   10  C   UNL     1      40.688 -15.498   1.412  1.00  0.00     0.035 A 
HETATM   11  C   UNL     1      42.082 -15.607   1.381  1.00  0.00     0.032 A 
HETATM   12  C   UNL     1      42.793 -16.013   2.517  1.00  0.00     0.032 A 
BRANCH  10  13
HETATM   13  N   UNL     1      40.033 -15.200   0.204  1.00  0.00    -0.321 N 
HETATM   14  C   UNL     1      39.923 -13.970  -0.425  1.00  0.00     0.279 C 
HETATM   15  O   UNL     1      40.474 -12.936  -0.061  1.00  0.00    -0.265 OA
HETATM   16  H   UNL     1      39.489 -15.941  -0.228  1.00  0.00     0.169 HD
BRANCH  14  17
HETATM   17  C   UNL     1      39.029 -14.006  -1.569  1.00  0.00     0.142 A 
HETATM   18  O   UNL     1      37.956 -13.150  -1.612  1.00  0.00    -0.317 OA
HETATM   19  C   UNL     1      37.318 -13.368  -2.791  1.00  0.00     0.143 A 
HETATM   20  C   UNL     1      37.957 -14.350  -3.511  1.00  0.00     0.027 A 
HETATM   21  C   UNL     1      39.057 -14.764  -2.724  1.00  0.00     0.045 A 
ENDBRANCH  14  17
ENDBRANCH  10  13
ENDBRANCH   3   7
BRANCH   1  22
HETATM   22  C   UNL     1      44.187 -14.091   6.829  1.00  0.00     0.130 C 
BRANCH  22  23
HETATM   23  C   UNL     1      43.525 -12.741   7.073  1.00  0.00     0.031 C 
HETATM   24  C   UNL     1      42.853 -12.203   5.822  1.00  0.00     0.241 C 
HETATM   25  N   UNL     1      42.654 -10.724   6.116  1.00  0.00    -0.071 N 
HETATM   26  H   UNL     1      42.940 -10.206   5.272  1.00  0.00     0.279 HD
HETATM   27  C   UNL     1      43.625 -10.367   7.237  1.00  0.00     0.235 C 
HETATM   28  C   UNL     1      44.480 -11.607   7.421  1.00  0.00     0.035 C 
BRANCH  25  29
HETATM   29  C   UNL     1      41.215 -10.367   6.406  1.00  0.00     0.234 C 
BRANCH  29  30
HETATM   30  C   UNL     1      40.303 -10.884   5.299  1.00  0.00     0.023 C 
HETATM   31  C   UNL     1      39.326 -11.916   5.842  1.00  0.00     0.007 C 
ENDBRANCH  29  30
ENDBRANCH  25  29
ENDBRANCH  22  23
ENDBRANCH   1  22
TORSDOF 7
ENDMDL
MODEL 7
REMARK VINA RESULT:      -7.1      2.705      8.067
REMARK  7 active torsions:
REMARK  status: ('A' for Active; 'I' for Inactive)
REMARK    1  A    between atoms: C_2  and  C_3 
REMARK    2  A    between atoms: C_3  and  N_4 
REMARK    3  A    between atoms: C_7  and  C_8 
REMARK    4  A    between atoms: C_8  and  N_9 
REMARK       I    between atoms: N_9  and  C_10 
REMARK       I    between atoms: C_10  and  N_11 
REMARK    5  A    between atoms: N_11  and  C_12 
REMARK    6  A    between atoms: C_15  and  N_16 
REMARK       I    between atoms: N_16  and  C_17 
REMARK    7  A    between atoms: C_17  and  C_18 
ROOT
HETATM    1  N   UNL     1      40.531  -9.923   8.299  1.00  0.00    -0.342 N 
HETATM    2  C   UNL     1      39.652  -9.703   7.281  1.00  0.00     0.320 C 
HETATM    3  N   UNL     1      39.803 -10.457   6.154  1.00  0.00    -0.309 N 
HETATM    4  O   UNL     1      38.814  -8.805   7.326  1.00  0.00    -0.247 OA
HETATM    5  H   UNL     1      41.387 -10.400   8.049  1.00  0.00     0.164 HD
HETATM    6  H   UNL     1      39.286 -10.072   5.371  1.00  0.00     0.170 HD
ENDROOT
BRANCH   3   7
HETATM    7  C   UNL     1      40.562 -11.614   5.903  1.00  0.00     0.036 A 
HETATM    8  C   UNL     1      41.938 -11.602   5.667  1.00  0.00     0.032 A 
HETATM    9  C   UNL     1      42.613 -12.776   5.310  1.00  0.00     0.032 A 
HETATM   10  C   UNL     1      41.927 -13.984   5.210  1.00  0.00     0.035 A 
HETATM   11  C   UNL     1      40.572 -14.017   5.554  1.00  0.00     0.032 A 
HETATM   12  C   UNL     1      39.896 -12.842   5.906  1.00  0.00     0.032 A 
BRANCH  10  13
HETATM   13  N   UNL     1      42.510 -15.180   4.754  1.00  0.00    -0.321 N 
HETATM   14  C   UNL     1      42.856 -15.518   3.456  1.00  0.00     0.279 C 
HETATM   15  O   UNL     1      42.788 -14.769   2.486  1.00  0.00    -0.265 OA
HETATM   16  H   UNL     1      42.613 -15.935   5.424  1.00  0.00     0.169 HD
BRANCH  14  17
HETATM   17  C   UNL     1      43.278 -16.902   3.332  1.00  0.00     0.142 A 
HETATM   18  O   UNL     1      44.021 -17.472   4.336  1.00  0.00    -0.317 OA
HETATM   19  C   UNL     1      44.245 -18.764   3.983  1.00  0.00     0.143 A 
HETATM   20  C   UNL     1      43.661 -19.041   2.769  1.00  0.00     0.027 A 
HETATM   21  C   UNL     1      43.040 -17.841   2.347  1.00  0.00     0.045 A 
ENDBRANCH  14  17
ENDBRANCH  10  13
ENDBRANCH   3   7
BRANCH   1  22
HETATM   22  C   UNL     1      40.495  -9.186   9.541  1.00  0.00     0.130 C 
BRANCH  22  23
HETATM   23  C   UNL     1      41.856  -9.158  10.223  1.00  0.00     0.031 C 
HETATM   24  C   UNL     1      42.891  -9.967   9.461  1.00  0.00     0.241 C 
HETATM   25  N   UNL     1      44.005 -10.191  10.473  1.00  0.00    -0.071 N 
HETATM   26  H   UNL     1      44.283 -11.181  10.403  1.00  0.00     0.279 HD
HETATM   27  C   UNL     1      43.391  -9.972  11.852  1.00  0.00     0.235 C 
HETATM   28  C   UNL     1      41.904  -9.815  11.596  1.00  0.00     0.035 C 
BRANCH  25  29
HETATM   29  C   UNL     1      45.229  -9.350  10.200  1.00  0.00     0.234 C 
BRANCH  29  30
HETATM   30  C   UNL     1      45.214  -8.835   8.766  1.00  0.00     0.023 C 
HETATM   31  C   UNL     1      46.423  -9.344   7.996  1.00  0.00     0.007 C 
ENDBRANCH  29  30
ENDBRANCH  25  29
ENDBRANCH  22  23
ENDBRANCH   1  22
TORSDOF 7
ENDMDL
MODEL 8
REMARK VINA RESULT:      -7.1      2.814      8.745
REMARK  7 active torsions:
REMARK  status: ('A' for Active; 'I' for Inactive)
REMARK    1  A    between atoms: C_2  and  C_3 
REMARK    2  A    between atoms: C_3  and  N_4 
REMARK    3  A    between atoms: C_7  and  C_8 
REMARK    4  A    between atoms: C_8  and  N_9 
REMARK       I    between atoms: N_9  and  C_10 
REMARK       I    between atoms: C_10  and  N_11 
REMARK    5  A    between atoms: N_11  and  C_12 
REMARK    6  A    between atoms: C_15  and  N_16 
REMARK       I    between atoms: N_16  and  C_17 
REMARK    7  A    between atoms: C_17  and  C_18 
ROOT
HETATM    1  N   UNL     1      43.350 -13.409   6.070  1.00  0.00    -0.342 N 
HETATM    2  C   UNL     1      42.684 -14.461   6.625  1.00  0.00     0.320 C 
HETATM    3  N   UNL     1      41.609 -14.948   5.940  1.00  0.00    -0.309 N 
HETATM    4  O   UNL     1      42.970 -14.902   7.735  1.00  0.00    -0.247 OA
HETATM    5  H   UNL     1      42.845 -12.887   5.367  1.00  0.00     0.164 HD
HETATM    6  H   UNL     1      41.032 -15.547   6.520  1.00  0.00     0.170 HD
ENDROOT
BRANCH   3   7
HETATM    7  C   UNL     1      41.167 -14.728   4.622  1.00  0.00     0.036 A 
HETATM    8  C   UNL     1      40.331 -13.674   4.251  1.00  0.00     0.032 A 
HETATM    9  C   UNL     1      39.837 -13.580   2.944  1.00  0.00     0.032 A 
HETATM   10  C   UNL     1      40.193 -14.523   1.983  1.00  0.00     0.035 A 
HETATM   11  C   UNL     1      41.118 -15.514   2.326  1.00  0.00     0.032 A 
HETATM   12  C   UNL     1      41.608 -15.612   3.633  1.00  0.00     0.032 A 
BRANCH  10  13
HETATM   13  N   UNL     1      39.655 -14.558   0.684  1.00  0.00    -0.321 N 
HETATM   14  C   UNL     1      39.926 -13.706  -0.375  1.00  0.00     0.279 C 
HETATM   15  O   UNL     1      40.771 -12.816  -0.370  1.00  0.00    -0.265 OA
HETATM   16  H   UNL     1      38.907 -15.221   0.505  1.00  0.00     0.169 HD
BRANCH  14  17
HETATM   17  C   UNL     1      39.059 -13.938  -1.516  1.00  0.00     0.142 A 
HETATM   18  O   UNL     1      38.003 -13.091  -1.743  1.00  0.00    -0.317 OA
HETATM   19  C   UNL     1      37.388 -13.513  -2.878  1.00  0.00     0.143 A 
HETATM   20  C   UNL     1      38.026 -14.618  -3.390  1.00  0.00     0.027 A 
HETATM   21  C   UNL     1      39.101 -14.895  -2.511  1.00  0.00     0.045 A 
ENDBRANCH  14  17
ENDBRANCH  10  13
ENDBRANCH   3   7
BRANCH   1  22
HETATM   22  C   UNL     1      44.495 -12.788   6.696  1.00  0.00     0.130 C 
BRANCH  22  23
HETATM   23  C   UNL     1      44.086 -11.645   7.616  1.00  0.00     0.031 C 
HETATM   24  C   UNL     1      43.178 -10.649   6.917  1.00  0.00     0.241 C 
HETATM   25  N   UNL     1      43.241  -9.409   7.797  1.00  0.00    -0.071 N 
HETATM   26  H   UNL     1      43.355  -8.599   7.171  1.00  0.00     0.279 HD
HETATM   27  C   UNL     1      44.508  -9.536   8.637  1.00  0.00     0.235 C 
HETATM   28  C   UNL     1      45.227 -10.749   8.078  1.00  0.00     0.035 C 
BRANCH  25  29
HETATM   29  C   UNL     1      41.983  -9.192   8.603  1.00  0.00     0.234 C 
BRANCH  29  30
HETATM   30  C   UNL     1      42.319  -9.011  10.079  1.00  0.00     0.023 C 
HETATM   31  C   UNL     1      41.174  -9.490  10.957  1.00  0.00     0.007 C 
ENDBRANCH  29  30
ENDBRANCH  25  29
ENDBRANCH  22  23
ENDBRANCH   1  22
TORSDOF 7
ENDMDL
MODEL 9
REMARK VINA RESULT:      -7.0      3.504      8.704
REMARK  7 active torsions:
REMARK  status: ('A' for Active; 'I' for Inactive)
REMARK    1  A    between atoms: C_2  and  C_3 
REMARK    2  A    between atoms: C_3  and  N_4 
REMARK    3  A    between atoms: C_7  and  C_8 
REMARK    4  A    between atoms: C_8  and  N_9 
REMARK       I    between atoms: N_9  and  C_10 
REMARK       I    between atoms: C_10  and  N_11 
REMARK    5  A    between atoms: N_11  and  C_12 
REMARK    6  A    between atoms: C_15  and  N_16 
REMARK       I    between atoms: N_16  and  C_17 
REMARK    7  A    between atoms: C_17  and  C_18 
ROOT
HETATM    1  N   UNL     1      39.923 -10.106   8.762  1.00  0.00    -0.342 N 
HETATM    2  C   UNL     1      39.464  -9.526   7.617  1.00  0.00     0.320 C 
HETATM    3  N   UNL     1      39.881 -10.065   6.436  1.00  0.00    -0.309 N 
HETATM    4  O   UNL     1      38.779  -8.506   7.632  1.00  0.00    -0.247 OA
HETATM    5  H   UNL     1      40.745 -10.686   8.665  1.00  0.00     0.164 HD
HETATM    6  H   UNL     1      39.705  -9.443   5.654  1.00  0.00     0.170 HD
ENDROOT
BRANCH   3   7
HETATM    7  C   UNL     1      40.529 -11.280   6.143  1.00  0.00     0.036 A 
HETATM    8  C   UNL     1      41.916 -11.432   6.120  1.00  0.00     0.032 A 
HETATM    9  C   UNL     1      42.496 -12.639   5.709  1.00  0.00     0.032 A 
HETATM   10  C   UNL     1      41.697 -13.719   5.342  1.00  0.00     0.035 A 
HETATM   11  C   UNL     1      40.310 -13.602   5.471  1.00  0.00     0.032 A 
HETATM   12  C   UNL     1      39.729 -12.394   5.877  1.00  0.00     0.032 A 
BRANCH  10  13
HETATM   13  N   UNL     1      42.201 -14.923   4.817  1.00  0.00    -0.321 N 
HETATM   14  C   UNL     1      42.386 -16.128   5.475  1.00  0.00     0.279 C 
HETATM   15  O   UNL     1      42.044 -16.365   6.630  1.00  0.00    -0.265 OA
HETATM   16  H   UNL     1      42.566 -14.903   3.870  1.00  0.00     0.169 HD
BRANCH  14  17
HETATM   17  C   UNL     1      43.087 -17.106   4.663  1.00  0.00     0.142 A 
HETATM   18  O   UNL     1      43.997 -17.947   5.255  1.00  0.00    -0.317 OA
HETATM   19  C   UNL     1      44.471 -18.771   4.285  1.00  0.00     0.143 A 
HETATM   20  C   UNL     1      43.885 -18.479   3.076  1.00  0.00     0.027 A 
HETATM   21  C   UNL     1      42.996 -17.405   3.317  1.00  0.00     0.045 A 
ENDBRANCH  14  17
ENDBRANCH  10  13
ENDBRANCH   3   7
BRANCH   1  22
HETATM   22  C   UNL     1      39.572  -9.628  10.079  1.00  0.00     0.130 C 
BRANCH  22  23
HETATM   23  C   UNL     1      40.780  -9.068  10.819  1.00  0.00     0.031 C 
HETATM   24  C   UNL     1      40.745  -7.553  10.900  1.00  0.00     0.241 C 
HETATM   25  N   UNL     1      42.175  -7.167  11.247  1.00  0.00    -0.071 N 
HETATM   26  H   UNL     1      42.432  -6.376  10.639  1.00  0.00     0.279 HD
HETATM   27  C   UNL     1      43.052  -8.356  10.866  1.00  0.00     0.235 C 
HETATM   28  C   UNL     1      42.121  -9.309  10.139  1.00  0.00     0.035 C 
BRANCH  25  29
HETATM   29  C   UNL     1      42.335  -6.715  12.679  1.00  0.00     0.234 C 
BRANCH  29  30
HETATM   30  C   UNL     1      43.107  -7.754  13.484  1.00  0.00     0.023 C 
HETATM   31  C   UNL     1      42.177  -8.514  14.418  1.00  0.00     0.007 C 
ENDBRANCH  29  30
ENDBRANCH  25  29
ENDBRANCH  22  23
ENDBRANCH   1  22
TORSDOF 7
ENDMDL
MODEL 10
REMARK VINA RESULT:      -6.9      2.661      7.719
REMARK  7 active torsions:
REMARK  status: ('A' for Active; 'I' for Inactive)
REMARK    1  A    between atoms: C_2  and  C_3 
REMARK    2  A    between atoms: C_3  and  N_4 
REMARK    3  A    between atoms: C_7  and  C_8 
REMARK    4  A    between atoms: C_8  and  N_9 
REMARK       I    between atoms: N_9  and  C_10 
REMARK       I    between atoms: C_10  and  N_11 
REMARK    5  A    between atoms: N_11  and  C_12 
REMARK    6  A    between atoms: C_15  and  N_16 
REMARK       I    between atoms: N_16  and  C_17 
REMARK    7  A    between atoms: C_17  and  C_18 
ROOT
HETATM    1  N   UNL     1      41.760 -10.353   5.573  1.00  0.00    -0.342 N 
HETATM    2  C   UNL     1      40.969 -10.133   4.485  1.00  0.00     0.320 C 
HETATM    3  N   UNL     1      40.973 -11.087   3.510  1.00  0.00    -0.309 N 
HETATM    4  O   UNL     1      40.346  -9.085   4.333  1.00  0.00    -0.247 OA
HETATM    5  H   UNL     1      42.496 -11.036   5.454  1.00  0.00     0.164 HD
HETATM    6  H   UNL     1      40.567 -10.745   2.646  1.00  0.00     0.170 HD
ENDROOT
BRANCH   3   7
HETATM    7  C   UNL     1      41.468 -12.404   3.497  1.00  0.00     0.036 A 
HETATM    8  C   UNL     1      42.683 -12.770   2.916  1.00  0.00     0.032 A 
HETATM    9  C   UNL     1      43.062 -14.116   2.837  1.00  0.00     0.032 A 
HETATM   10  C   UNL     1      42.243 -15.113   3.363  1.00  0.00     0.035 A 
HETATM   11  C   UNL     1      41.080 -14.738   4.042  1.00  0.00     0.032 A 
HETATM   12  C   UNL     1      40.699 -13.393   4.116  1.00  0.00     0.032 A 
BRANCH  10  13
HETATM   13  N   UNL     1      42.501 -16.489   3.227  1.00  0.00    -0.321 N 
HETATM   14  C   UNL     1      43.439 -17.251   3.905  1.00  0.00     0.279 C 
HETATM   15  O   UNL     1      44.151 -16.850   4.821  1.00  0.00    -0.265 OA
HETATM   16  H   UNL     1      42.018 -16.984   2.484  1.00  0.00     0.169 HD
BRANCH  14  17
HETATM   17  C   UNL     1      43.541 -18.603   3.385  1.00  0.00     0.142 A 
HETATM   18  O   UNL     1      43.942 -19.618   4.219  1.00  0.00    -0.317 OA
HETATM   19  C   UNL     1      43.916 -20.765   3.494  1.00  0.00     0.143 A 
HETATM   20  C   UNL     1      43.507 -20.514   2.206  1.00  0.00     0.027 A 
HETATM   21  C   UNL     1      43.268 -19.121   2.133  1.00  0.00     0.045 A 
ENDBRANCH  14  17
ENDBRANCH  10  13
ENDBRANCH   3   7
BRANCH   1  22
HETATM   22  C   UNL     1      41.862  -9.420   6.671  1.00  0.00     0.130 C 
BRANCH  22  23
HETATM   23  C   UNL     1      42.867  -9.884   7.717  1.00  0.00     0.031 C 
HETATM   24  C   UNL     1      43.725  -8.740   8.227  1.00  0.00     0.241 C 
HETATM   25  N   UNL     1      44.910  -9.431   8.886  1.00  0.00    -0.071 N 
HETATM   26  H   UNL     1      45.759  -8.934   8.581  1.00  0.00     0.279 HD
HETATM   27  C   UNL     1      44.961 -10.845   8.317  1.00  0.00     0.235 C 
HETATM   28  C   UNL     1      43.922 -10.858   7.212  1.00  0.00     0.035 C 
BRANCH  25  29
HETATM   29  C   UNL     1      44.863  -9.373  10.395  1.00  0.00     0.234 C 
BRANCH  29  30
HETATM   30  C   UNL     1      44.237 -10.644  10.959  1.00  0.00     0.023 C 
HETATM   31  C   UNL     1      43.128 -10.308  11.944  1.00  0.00     0.007 C 
ENDBRANCH  29  30
ENDBRANCH  25  29
ENDBRANCH  22  23
ENDBRANCH   1  22
TORSDOF 7
ENDMDL
