MODEL 1
REMARK VINA RESULT:      -8.4      0.000      0.000
REMARK  7 active torsions:
REMARK  status: ('A' for Active; 'I' for Inactive)
REMARK    1  A    between atoms: C_2  and  O_3 
REMARK    2  A    between atoms: O_3  and  C_4 
REMARK    3  A    between atoms: C_4  and  C_5 
REMARK    4  A    between atoms: C_6  and  C_7 
REMARK    5  A    between atoms: C_18  and  S_19 
REMARK    6  A    between atoms: S_19  and  C_20 
REMARK    7  A    between atoms: C_20  and  C_21 
ROOT
HETATM    1  C   UNL     1      40.492 -12.005   4.610  1.00  0.00     0.070 C 
HETATM    2  C   UNL     1      41.467 -13.054   4.071  1.00  0.00     0.204 C 
HETATM    3  N   UNL     1      41.779 -14.060   5.094  1.00  0.00    -0.082 N 
HETATM    4  C   UNL     1      41.071 -14.215   6.252  1.00  0.00     0.726 A 
HETATM    5  N   UNL     1      40.079 -13.352   6.534  1.00  0.00    -0.192 N 
HETATM    6  N   UNL     1      42.775 -14.962   5.001  1.00  0.00    -0.128 NA
HETATM    7  C   UNL     1      42.575 -15.673   6.119  1.00  0.00     0.226 A 
HETATM    8  N   UNL     1      41.538 -15.242   6.912  1.00  0.00    -0.035 NA
HETATM    9  C   UNL     1      39.834 -12.203   5.784  1.00  0.00     0.037 C 
HETATM   10  C   UNL     1      38.815 -11.254   6.367  1.00  0.00     0.070 C 
HETATM   11  H   UNL     1      39.623 -13.425   7.441  1.00  0.00     0.184 HD
ENDROOT
BRANCH   7  12
HETATM   12  S   UNL     1      43.516 -17.081   6.525  1.00  0.00    -0.083 SA
BRANCH  12  13
HETATM   13  C   UNL     1      44.558 -17.234   5.048  1.00  0.00     0.123 C 
BRANCH  13  14
HETATM   14  C   UNL     1      44.142 -18.410   4.195  1.00  0.00    -0.027 A 
HETATM   15  C   UNL     1      43.621 -18.269   2.898  1.00  0.00     0.041 A 
HETATM   16 CL   UNL     1      43.389 -16.721   2.167  1.00  0.00    -0.084 Cl
HETATM   17  C   UNL     1      43.270 -19.397   2.148  1.00  0.00     0.024 A 
HETATM   18  C   UNL     1      43.434 -20.676   2.679  1.00  0.00     0.002 A 
HETATM   19  C   UNL     1      43.952 -20.832   3.960  1.00  0.00     0.001 A 
HETATM   20  C   UNL     1      44.307 -19.710   4.711  1.00  0.00     0.009 A 
ENDBRANCH  13  14
ENDBRANCH  12  13
ENDBRANCH   7  12
BRANCH   2  21
HETATM   21  C   UNL     1      40.957 -13.781   2.824  1.00  0.00    -0.006 A 
HETATM   22  C   UNL     1      41.175 -13.287   1.525  1.00  0.00     0.042 A 
HETATM   23 CL   UNL     1      42.014 -11.806   1.224  1.00  0.00    -0.084 Cl
HETATM   24  C   UNL     1      40.707 -13.986   0.407  1.00  0.00     0.024 A 
HETATM   25  C   UNL     1      40.022 -15.190   0.561  1.00  0.00     0.002 A 
HETATM   26  C   UNL     1      39.805 -15.701   1.835  1.00  0.00     0.001 A 
HETATM   27  C   UNL     1      40.267 -15.007   2.955  1.00  0.00     0.011 A 
ENDBRANCH   2  21
BRANCH   1  28
HETATM   28  C   UNL     1      40.391 -10.722   3.865  1.00  0.00     0.293 C 
HETATM   29  O   UNL     1      39.440 -10.393   3.175  1.00  0.00    -0.259 OA
BRANCH  28  30
HETATM   30  O   UNL     1      41.483  -9.957   4.100  1.00  0.00    -0.318 OA
BRANCH  30  31
HETATM   31  C   UNL     1      41.258  -8.717   4.788  1.00  0.00     0.174 C 
HETATM   32  C   UNL     1      41.662  -8.849   6.244  1.00  0.00     0.034 C 
ENDBRANCH  30  31
ENDBRANCH  28  30
ENDBRANCH   1  28
TORSDOF 7
ENDMDL
MODEL 2
REMARK VINA RESULT:      -8.4      3.474      6.586
REMARK  7 active torsions:
REMARK  status: ('A' for Active; 'I' for Inactive)
REMARK    1  A    between atoms: C_2  and  O_3 
REMARK    2  A    between atoms: O_3  and  C_4 
REMARK    3  A    between atoms: C_4  and  C_5 
REMARK    4  A    between atoms: C_6  and  C_7 
REMARK    5  A    between atoms: C_18  and  S_19 
REMARK    6  A    between atoms: S_19  and  C_20 
REMARK    7  A    between atoms: C_20  and  C_21 
ROOT
HETATM    1  C   UNL     1      43.201 -13.381   5.633  1.00  0.00     0.070 C 
HETATM    2  C   UNL     1      42.030 -13.659   4.687  1.00  0.00     0.204 C 
HETATM    3  N   UNL     1      41.622 -12.439   3.978  1.00  0.00    -0.082 N 
HETATM    4  C   UNL     1      42.370 -11.296   3.936  1.00  0.00     0.726 A 
HETATM    5  N   UNL     1      43.509 -11.232   4.648  1.00  0.00    -0.192 N 
HETATM    6  N   UNL     1      40.485 -12.311   3.267  1.00  0.00    -0.128 NA
HETATM    7  C   UNL     1      40.637 -11.076   2.772  1.00  0.00     0.226 A 
HETATM    8  N   UNL     1      41.782 -10.422   3.162  1.00  0.00    -0.035 NA
HETATM    9  C   UNL     1      43.893 -12.212   5.560  1.00  0.00     0.037 C 
HETATM   10  C   UNL     1      45.092 -11.872   6.411  1.00  0.00     0.070 C 
HETATM   11  H   UNL     1      44.005 -10.343   4.678  1.00  0.00     0.184 HD
ENDROOT
BRANCH   7  12
HETATM   12  S   UNL     1      39.503 -10.356   1.664  1.00  0.00    -0.083 SA
BRANCH  12  13
HETATM   13  C   UNL     1      38.626 -11.828   1.067  1.00  0.00     0.123 C 
BRANCH  13  14
HETATM   14  C   UNL     1      39.093 -12.229  -0.314  1.00  0.00    -0.027 A 
HETATM   15  C   UNL     1      39.713 -13.459  -0.586  1.00  0.00     0.041 A 
HETATM   16 CL   UNL     1      40.020 -14.624   0.654  1.00  0.00    -0.084 Cl
HETATM   17  C   UNL     1      40.107 -13.783  -1.888  1.00  0.00     0.024 A 
HETATM   18  C   UNL     1      39.888 -12.888  -2.935  1.00  0.00     0.002 A 
HETATM   19  C   UNL     1      39.271 -11.667  -2.683  1.00  0.00     0.001 A 
HETATM   20  C   UNL     1      38.872 -11.341  -1.384  1.00  0.00     0.009 A 
ENDBRANCH  13  14
ENDBRANCH  12  13
ENDBRANCH   7  12
BRANCH   2  21
HETATM   21  C   UNL     1      42.328 -14.741   3.646  1.00  0.00    -0.006 A 
HETATM   22  C   UNL     1      41.680 -15.990   3.655  1.00  0.00     0.042 A 
HETATM   23 CL   UNL     1      40.513 -16.422   4.855  1.00  0.00    -0.084 Cl
HETATM   24  C   UNL     1      41.966 -16.950   2.678  1.00  0.00     0.024 A 
HETATM   25  C   UNL     1      42.894 -16.681   1.673  1.00  0.00     0.002 A 
HETATM   26  C   UNL     1      43.538 -15.450   1.639  1.00  0.00     0.001 A 
HETATM   27  C   UNL     1      43.258 -14.489   2.613  1.00  0.00     0.011 A 
ENDBRANCH   2  21
BRANCH   1  28
HETATM   28  C   UNL     1      43.466 -14.380   6.701  1.00  0.00     0.293 C 
HETATM   29  O   UNL     1      42.892 -14.416   7.777  1.00  0.00    -0.259 OA
BRANCH  28  30
HETATM   30  O   UNL     1      44.402 -15.267   6.290  1.00  0.00    -0.318 OA
BRANCH  30  31
HETATM   31  C   UNL     1      44.102 -16.656   6.499  1.00  0.00     0.174 C 
HETATM   32  C   UNL     1      44.489 -17.463   5.274  1.00  0.00     0.034 C 
ENDBRANCH  30  31
ENDBRANCH  28  30
ENDBRANCH   1  28
TORSDOF 7
ENDMDL
MODEL 3
REMARK VINA RESULT:      -8.1      2.484      3.955
REMARK  7 active torsions:
REMARK  status: ('A' for Active; 'I' for Inactive)
REMARK    1  A    between atoms: C_2  and  O_3 
REMARK    2  A    between atoms: O_3  and  C_4 
REMARK    3  A    between atoms: C_4  and  C_5 
REMARK    4  A    between atoms: C_6  and  C_7 
REMARK    5  A    between atoms: C_18  and  S_19 
REMARK    6  A    between atoms: S_19  and  C_20 
REMARK    7  A    between atoms: C_20  and  C_21 
ROOT
HETATM    1  C   UNL     1      39.756 -11.661   5.059  1.00  0.00     0.070 C 
HETATM    2  C   UNL     1      40.610 -12.923   5.211  1.00  0.00     0.204 C 
HETATM    3  N   UNL     1      40.612 -13.711   3.971  1.00  0.00    -0.082 N 
HETATM    4  C   UNL     1      40.172 -13.239   2.767  1.00  0.00     0.726 A 
HETATM    5  N   UNL     1      39.621 -12.013   2.705  1.00  0.00    -0.192 N 
HETATM    6  N   UNL     1      41.070 -14.973   3.869  1.00  0.00    -0.128 NA
HETATM    7  C   UNL     1      40.929 -15.185   2.554  1.00  0.00     0.226 A 
HETATM    8  N   UNL     1      40.379 -14.142   1.846  1.00  0.00    -0.035 NA
HETATM    9  C   UNL     1      39.325 -11.254   3.836  1.00  0.00     0.037 C 
HETATM   10  C   UNL     1      38.527  -9.998   3.581  1.00  0.00     0.070 C 
HETATM   11  H   UNL     1      39.216 -11.714   1.821  1.00  0.00     0.184 HD
ENDROOT
BRANCH   7  12
HETATM   12  S   UNL     1      41.452 -16.649   1.771  1.00  0.00    -0.083 SA
BRANCH  12  13
HETATM   13  C   UNL     1      43.174 -16.742   2.334  1.00  0.00     0.123 C 
BRANCH  13  14
HETATM   14  C   UNL     1      43.488 -18.092   2.936  1.00  0.00    -0.027 A 
HETATM   15  C   UNL     1      43.984 -18.252   4.240  1.00  0.00     0.041 A 
HETATM   16 CL   UNL     1      44.303 -16.902   5.271  1.00  0.00    -0.084 Cl
HETATM   17  C   UNL     1      44.240 -19.529   4.751  1.00  0.00     0.024 A 
HETATM   18  C   UNL     1      44.003 -20.661   3.971  1.00  0.00     0.002 A 
HETATM   19  C   UNL     1      43.507 -20.519   2.680  1.00  0.00     0.001 A 
HETATM   20  C   UNL     1      43.248 -19.247   2.167  1.00  0.00     0.009 A 
ENDBRANCH  13  14
ENDBRANCH  12  13
ENDBRANCH   7  12
BRANCH   2  21
HETATM   21  C   UNL     1      42.063 -12.635   5.598  1.00  0.00    -0.006 A 
HETATM   22  C   UNL     1      42.790 -13.475   6.462  1.00  0.00     0.042 A 
HETATM   23 CL   UNL     1      42.101 -14.886   7.182  1.00  0.00    -0.084 Cl
HETATM   24  C   UNL     1      44.122 -13.188   6.782  1.00  0.00     0.024 A 
HETATM   25  C   UNL     1      44.755 -12.070   6.242  1.00  0.00     0.002 A 
HETATM   26  C   UNL     1      44.058 -11.233   5.378  1.00  0.00     0.001 A 
HETATM   27  C   UNL     1      42.728 -11.511   5.057  1.00  0.00     0.011 A 
ENDBRANCH   2  21
BRANCH   1  28
HETATM   28  C   UNL     1      39.322 -10.979   6.307  1.00  0.00     0.293 C 
HETATM   29  O   UNL     1      38.522 -11.437   7.107  1.00  0.00    -0.259 OA
BRANCH  28  30
HETATM   30  O   UNL     1      39.973  -9.800   6.447  1.00  0.00    -0.318 OA
BRANCH  30  31
HETATM   31  C   UNL     1      40.794  -9.659   7.617  1.00  0.00     0.174 C 
HETATM   32  C   UNL     1      41.915  -8.673   7.351  1.00  0.00     0.034 C 
ENDBRANCH  30  31
ENDBRANCH  28  30
ENDBRANCH   1  28
TORSDOF 7
ENDMDL
MODEL 4
REMARK VINA RESULT:      -7.9      3.445      4.647
REMARK  7 active torsions:
REMARK  status: ('A' for Active; 'I' for Inactive)
REMARK    1  A    between atoms: C_2  and  O_3 
REMARK    2  A    between atoms: O_3  and  C_4 
REMARK    3  A    between atoms: C_4  and  C_5 
REMARK    4  A    between atoms: C_6  and  C_7 
REMARK    5  A    between atoms: C_18  and  S_19 
REMARK    6  A    between atoms: S_19  and  C_20 
REMARK    7  A    between atoms: C_20  and  C_21 
ROOT
HETATM    1  C   UNL     1      41.022 -10.691   0.211  1.00  0.00     0.070 C 
HETATM    2  C   UNL     1      40.983 -12.135  -0.297  1.00  0.00     0.204 C 
HETATM    3  N   UNL     1      41.027 -13.088   0.820  1.00  0.00    -0.082 N 
HETATM    4  C   UNL     1      40.823 -12.743   2.126  1.00  0.00     0.726 A 
HETATM    5  N   UNL     1      40.654 -11.446   2.442  1.00  0.00    -0.192 N 
HETATM    6  N   UNL     1      41.244 -14.411   0.688  1.00  0.00    -0.128 NA
HETATM    7  C   UNL     1      41.100 -14.816   1.956  1.00  0.00     0.226 A 
HETATM    8  N   UNL     1      40.843 -13.819   2.867  1.00  0.00    -0.035 NA
HETATM    9  C   UNL     1      40.837 -10.410   1.528  1.00  0.00     0.037 C 
HETATM   10  C   UNL     1      40.804  -9.019   2.112  1.00  0.00     0.070 C 
HETATM   11  H   UNL     1      40.595 -11.197   3.427  1.00  0.00     0.184 HD
ENDROOT
BRANCH   7  12
HETATM   12  S   UNL     1      41.175 -16.491   2.428  1.00  0.00    -0.083 SA
BRANCH  12  13
HETATM   13  C   UNL     1      42.938 -16.839   2.178  1.00  0.00     0.123 C 
BRANCH  13  14
HETATM   14  C   UNL     1      43.350 -18.126   2.854  1.00  0.00    -0.027 A 
HETATM   15  C   UNL     1      43.820 -18.180   4.177  1.00  0.00     0.041 A 
HETATM   16 CL   UNL     1      43.991 -16.761   5.147  1.00  0.00    -0.084 Cl
HETATM   17  C   UNL     1      44.170 -19.404   4.756  1.00  0.00     0.024 A 
HETATM   18  C   UNL     1      44.055 -20.588   4.028  1.00  0.00     0.002 A 
HETATM   19  C   UNL     1      43.586 -20.552   2.719  1.00  0.00     0.001 A 
HETATM   20  C   UNL     1      43.232 -19.332   2.137  1.00  0.00     0.009 A 
ENDBRANCH  13  14
ENDBRANCH  12  13
ENDBRANCH   7  12
BRANCH   2  21
HETATM   21  C   UNL     1      39.751 -12.452  -1.149  1.00  0.00    -0.006 A 
HETATM   22  C   UNL     1      39.840 -13.146  -2.369  1.00  0.00     0.042 A 
HETATM   23 CL   UNL     1      41.348 -13.677  -3.026  1.00  0.00    -0.084 Cl
HETATM   24  C   UNL     1      38.691 -13.430  -3.115  1.00  0.00     0.024 A 
HETATM   25  C   UNL     1      37.435 -13.038  -2.655  1.00  0.00     0.002 A 
HETATM   26  C   UNL     1      37.323 -12.361  -1.446  1.00  0.00     0.001 A 
HETATM   27  C   UNL     1      38.466 -12.071  -0.699  1.00  0.00     0.011 A 
ENDBRANCH   2  21
BRANCH   1  28
HETATM   28  C   UNL     1      41.389  -9.635  -0.769  1.00  0.00     0.293 C 
HETATM   29  O   UNL     1      42.532  -9.299  -1.033  1.00  0.00    -0.259 OA
BRANCH  28  30
HETATM   30  O   UNL     1      40.277  -9.133  -1.355  1.00  0.00    -0.318 OA
BRANCH  30  31
HETATM   31  C   UNL     1      40.433  -8.617  -2.686  1.00  0.00     0.174 C 
HETATM   32  C   UNL     1      40.236  -9.728  -3.700  1.00  0.00     0.034 C 
ENDBRANCH  30  31
ENDBRANCH  28  30
ENDBRANCH   1  28
TORSDOF 7
ENDMDL
MODEL 5
REMARK VINA RESULT:      -7.9      2.727      4.421
REMARK  7 active torsions:
REMARK  status: ('A' for Active; 'I' for Inactive)
REMARK    1  A    between atoms: C_2  and  O_3 
REMARK    2  A    between atoms: O_3  and  C_4 
REMARK    3  A    between atoms: C_4  and  C_5 
REMARK    4  A    between atoms: C_6  and  C_7 
REMARK    5  A    between atoms: C_18  and  S_19 
REMARK    6  A    between atoms: S_19  and  C_20 
REMARK    7  A    between atoms: C_20  and  C_21 
ROOT
HETATM    1  C   UNL     1      41.525 -10.314   5.338  1.00  0.00     0.070 C 
HETATM    2  C   UNL     1      42.067 -11.328   6.350  1.00  0.00     0.204 C 
HETATM    3  N   UNL     1      42.008 -12.693   5.812  1.00  0.00    -0.082 N 
HETATM    4  C   UNL     1      41.793 -12.985   4.496  1.00  0.00     0.726 A 
HETATM    5  N   UNL     1      41.530 -11.984   3.637  1.00  0.00    -0.192 N 
HETATM    6  N   UNL     1      42.187 -13.811   6.543  1.00  0.00    -0.128 NA
HETATM    7  C   UNL     1      42.123 -14.747   5.588  1.00  0.00     0.226 A 
HETATM    8  N   UNL     1      41.880 -14.278   4.319  1.00  0.00    -0.035 NA
HETATM    9  C   UNL     1      41.306 -10.671   4.044  1.00  0.00     0.037 C 
HETATM   10  C   UNL     1      40.828  -9.731   2.965  1.00  0.00     0.070 C 
HETATM   11  H   UNL     1      41.282 -12.227   2.680  1.00  0.00     0.184 HD
ENDROOT
BRANCH   7  12
HETATM   12  S   UNL     1      42.383 -16.440   5.905  1.00  0.00    -0.083 SA
BRANCH  12  13
HETATM   13  C   UNL     1      43.870 -16.749   4.913  1.00  0.00     0.123 C 
BRANCH  13  14
HETATM   14  C   UNL     1      43.768 -18.051   4.153  1.00  0.00    -0.027 A 
HETATM   15  C   UNL     1      43.379 -18.123   2.805  1.00  0.00     0.041 A 
HETATM   16 CL   UNL     1      42.956 -16.715   1.898  1.00  0.00    -0.084 Cl
HETATM   17  C   UNL     1      43.320 -19.356   2.148  1.00  0.00     0.024 A 
HETATM   18  C   UNL     1      43.650 -20.532   2.823  1.00  0.00     0.002 A 
HETATM   19  C   UNL     1      44.042 -20.477   4.156  1.00  0.00     0.001 A 
HETATM   20  C   UNL     1      44.105 -19.247   4.815  1.00  0.00     0.009 A 
ENDBRANCH  13  14
ENDBRANCH  12  13
ENDBRANCH   7  12
BRANCH   2  21
HETATM   21  C   UNL     1      43.506 -11.046   6.788  1.00  0.00    -0.006 A 
HETATM   22  C   UNL     1      43.808 -10.351   7.974  1.00  0.00     0.042 A 
HETATM   23 CL   UNL     1      42.583  -9.732   9.024  1.00  0.00    -0.084 Cl
HETATM   24  C   UNL     1      45.136 -10.125   8.351  1.00  0.00     0.024 A 
HETATM   25  C   UNL     1      46.185 -10.593   7.560  1.00  0.00     0.002 A 
HETATM   26  C   UNL     1      45.909 -11.291   6.391  1.00  0.00     0.001 A 
HETATM   27  C   UNL     1      44.586 -11.518   6.008  1.00  0.00     0.011 A 
ENDBRANCH   2  21
BRANCH   1  28
HETATM   28  C   UNL     1      41.140  -8.975   5.855  1.00  0.00     0.293 C 
HETATM   29  O   UNL     1      41.856  -7.987   5.827  1.00  0.00    -0.259 OA
BRANCH  28  30
HETATM   30  O   UNL     1      39.868  -9.000   6.318  1.00  0.00    -0.318 OA
BRANCH  30  31
HETATM   31  C   UNL     1      39.318  -7.743   6.742  1.00  0.00     0.174 C 
HETATM   32  C   UNL     1      39.161  -7.725   8.251  1.00  0.00     0.034 C 
ENDBRANCH  30  31
ENDBRANCH  28  30
ENDBRANCH   1  28
TORSDOF 7
ENDMDL
MODEL 6
REMARK VINA RESULT:      -7.8      3.744      7.267
REMARK  7 active torsions:
REMARK  status: ('A' for Active; 'I' for Inactive)
REMARK    1  A    between atoms: C_2  and  O_3 
REMARK    2  A    between atoms: O_3  and  C_4 
REMARK    3  A    between atoms: C_4  and  C_5 
REMARK    4  A    between atoms: C_6  and  C_7 
REMARK    5  A    between atoms: C_18  and  S_19 
REMARK    6  A    between atoms: S_19  and  C_20 
REMARK    7  A    between atoms: C_20  and  C_21 
ROOT
HETATM    1  C   UNL     1      41.249 -12.109   3.342  1.00  0.00     0.070 C 
HETATM    2  C   UNL     1      42.600 -12.612   3.859  1.00  0.00     0.204 C 
HETATM    3  N   UNL     1      43.049 -11.825   5.014  1.00  0.00    -0.082 N 
HETATM    4  C   UNL     1      42.245 -10.973   5.715  1.00  0.00     0.726 A 
HETATM    5  N   UNL     1      40.986 -10.760   5.290  1.00  0.00    -0.192 N 
HETATM    6  N   UNL     1      44.292 -11.870   5.533  1.00  0.00    -0.128 NA
HETATM    7  C   UNL     1      44.151 -11.058   6.589  1.00  0.00     0.226 A 
HETATM    8  N   UNL     1      42.909 -10.487   6.731  1.00  0.00    -0.035 NA
HETATM    9  C   UNL     1      40.503 -11.240   4.075  1.00  0.00     0.037 C 
HETATM   10  C   UNL     1      39.139 -10.733   3.675  1.00  0.00     0.070 C 
HETATM   11  H   UNL     1      40.431 -10.055   5.769  1.00  0.00     0.184 HD
ENDROOT
BRANCH   7  12
HETATM   12  S   UNL     1      45.426 -10.777   7.741  1.00  0.00    -0.083 SA
BRANCH  12  13
HETATM   13  C   UNL     1      44.979  -9.129   8.353  1.00  0.00     0.123 C 
BRANCH  13  14
HETATM   14  C   UNL     1      44.266  -9.206   9.684  1.00  0.00    -0.027 A 
HETATM   15  C   UNL     1      43.555  -8.128  10.235  1.00  0.00     0.041 A 
HETATM   16 CL   UNL     1      43.452  -6.597   9.441  1.00  0.00    -0.084 Cl
HETATM   17  C   UNL     1      42.900  -8.264  11.463  1.00  0.00     0.024 A 
HETATM   18  C   UNL     1      42.943  -9.474  12.156  1.00  0.00     0.002 A 
HETATM   19  C   UNL     1      43.639 -10.552  11.621  1.00  0.00     0.001 A 
HETATM   20  C   UNL     1      44.292 -10.422  10.393  1.00  0.00     0.009 A 
ENDBRANCH  13  14
ENDBRANCH  12  13
ENDBRANCH   7  12
BRANCH   2  21
HETATM   21  C   UNL     1      42.590 -14.090   4.260  1.00  0.00    -0.006 A 
HETATM   22  C   UNL     1      43.052 -15.104   3.401  1.00  0.00     0.042 A 
HETATM   23 CL   UNL     1      43.644 -14.775   1.811  1.00  0.00    -0.084 Cl
HETATM   24  C   UNL     1      43.042 -16.443   3.807  1.00  0.00     0.024 A 
HETATM   25  C   UNL     1      42.582 -16.794   5.076  1.00  0.00     0.002 A 
HETATM   26  C   UNL     1      42.132 -15.807   5.944  1.00  0.00     0.001 A 
HETATM   27  C   UNL     1      42.136 -14.469   5.543  1.00  0.00     0.011 A 
ENDBRANCH   2  21
BRANCH   1  28
HETATM   28  C   UNL     1      40.852 -12.513   1.967  1.00  0.00     0.293 C 
HETATM   29  O   UNL     1      41.285 -12.009   0.943  1.00  0.00    -0.259 OA
BRANCH  28  30
HETATM   30  O   UNL     1      39.979 -13.546   2.017  1.00  0.00    -0.318 OA
BRANCH  30  31
HETATM   31  C   UNL     1      40.057 -14.500   0.946  1.00  0.00     0.174 C 
HETATM   32  C   UNL     1      39.972 -15.911   1.498  1.00  0.00     0.034 C 
ENDBRANCH  30  31
ENDBRANCH  28  30
ENDBRANCH   1  28
TORSDOF 7
ENDMDL
MODEL 7
REMARK VINA RESULT:      -7.6      3.955      7.002
REMARK  7 active torsions:
REMARK  status: ('A' for Active; 'I' for Inactive)
REMARK    1  A    between atoms: C_2  and  O_3 
REMARK    2  A    between atoms: O_3  and  C_4 
REMARK    3  A    between atoms: C_4  and  C_5 
REMARK    4  A    between atoms: C_6  and  C_7 
REMARK    5  A    between atoms: C_18  and  S_19 
REMARK    6  A    between atoms: S_19  and  C_20 
REMARK    7  A    between atoms: C_20  and  C_21 
ROOT
HETATM    1  C   UNL     1      41.243 -12.527   4.393  1.00  0.00     0.070 C 
HETATM    2  C   UNL     1      40.890 -13.027   2.990  1.00  0.00     0.204 C 
HETATM    3  N   UNL     1      41.159 -11.996   1.979  1.00  0.00    -0.082 N 
HETATM    4  C   UNL     1      41.900 -10.873   2.214  1.00  0.00     0.726 A 
HETATM    5  N   UNL     1      42.348 -10.632   3.459  1.00  0.00    -0.192 N 
HETATM    6  N   UNL     1      40.735 -12.049   0.702  1.00  0.00    -0.128 NA
HETATM    7  C   UNL     1      41.307 -10.945   0.202  1.00  0.00     0.226 A 
HETATM    8  N   UNL     1      42.029 -10.198   1.102  1.00  0.00    -0.035 NA
HETATM    9  C   UNL     1      41.962 -11.386   4.566  1.00  0.00     0.037 C 
HETATM   10  C   UNL     1      42.404 -10.845   5.904  1.00  0.00     0.070 C 
HETATM   11  H   UNL     1      42.819  -9.747   3.636  1.00  0.00     0.184 HD
ENDROOT
BRANCH   7  12
HETATM   12  S   UNL     1      41.202 -10.505  -1.479  1.00  0.00    -0.083 SA
BRANCH  12  13
HETATM   13  C   UNL     1      40.707 -12.086  -2.217  1.00  0.00     0.123 C 
BRANCH  13  14
HETATM   14  C   UNL     1      39.222 -12.127  -2.497  1.00  0.00    -0.027 A 
HETATM   15  C   UNL     1      38.502 -13.324  -2.642  1.00  0.00     0.041 A 
HETATM   16 CL   UNL     1      39.266 -14.870  -2.533  1.00  0.00    -0.084 Cl
HETATM   17  C   UNL     1      37.125 -13.299  -2.882  1.00  0.00     0.024 A 
HETATM   18  C   UNL     1      36.447 -12.084  -2.980  1.00  0.00     0.002 A 
HETATM   19  C   UNL     1      37.145 -10.890  -2.834  1.00  0.00     0.001 A 
HETATM   20  C   UNL     1      38.520 -10.910  -2.591  1.00  0.00     0.009 A 
ENDBRANCH  13  14
ENDBRANCH  12  13
ENDBRANCH   7  12
BRANCH   2  21
HETATM   21  C   UNL     1      41.639 -14.300   2.587  1.00  0.00    -0.006 A 
HETATM   22  C   UNL     1      40.991 -15.542   2.457  1.00  0.00     0.042 A 
HETATM   23 CL   UNL     1      39.302 -15.745   2.764  1.00  0.00    -0.084 Cl
HETATM   24  C   UNL     1      41.705 -16.683   2.072  1.00  0.00     0.024 A 
HETATM   25  C   UNL     1      43.071 -16.605   1.804  1.00  0.00     0.002 A 
HETATM   26  C   UNL     1      43.728 -15.386   1.917  1.00  0.00     0.001 A 
HETATM   27  C   UNL     1      43.022 -14.245   2.303  1.00  0.00     0.011 A 
ENDBRANCH   2  21
BRANCH   1  28
HETATM   28  C   UNL     1      40.666 -13.268   5.546  1.00  0.00     0.293 C 
HETATM   29  O   UNL     1      39.541 -13.100   5.987  1.00  0.00    -0.259 OA
BRANCH  28  30
HETATM   30  O   UNL     1      41.552 -14.184   6.004  1.00  0.00    -0.318 OA
BRANCH  30  31
HETATM   31  C   UNL     1      41.030 -15.492   6.285  1.00  0.00     0.174 C 
HETATM   32  C   UNL     1      42.005 -16.554   5.814  1.00  0.00     0.034 C 
ENDBRANCH  30  31
ENDBRANCH  28  30
ENDBRANCH   1  28
TORSDOF 7
ENDMDL
MODEL 8
REMARK VINA RESULT:      -7.5      4.031      8.168
REMARK  7 active torsions:
REMARK  status: ('A' for Active; 'I' for Inactive)
REMARK    1  A    between atoms: C_2  and  O_3 
REMARK    2  A    between atoms: O_3  and  C_4 
REMARK    3  A    between atoms: C_4  and  C_5 
REMARK    4  A    between atoms: C_6  and  C_7 
REMARK    5  A    between atoms: C_18  and  S_19 
REMARK    6  A    between atoms: S_19  and  C_20 
REMARK    7  A    between atoms: C_20  and  C_21 
ROOT
HETATM    1  C   UNL     1      42.845 -12.829   3.446  1.00  0.00     0.070 C 
HETATM    2  C   UNL     1      43.294 -13.338   4.819  1.00  0.00     0.204 C 
HETATM    3  N   UNL     1      43.575 -12.220   5.730  1.00  0.00    -0.082 N 
HETATM    4  C   UNL     1      43.198 -10.929   5.491  1.00  0.00     0.726 A 
HETATM    5  N   UNL     1      42.611 -10.623   4.320  1.00  0.00    -0.192 N 
HETATM    6  N   UNL     1      44.207 -12.339   6.913  1.00  0.00    -0.128 NA
HETATM    7  C   UNL     1      44.128 -11.081   7.366  1.00  0.00     0.226 A 
HETATM    8  N   UNL     1      43.517 -10.187   6.519  1.00  0.00    -0.035 NA
HETATM    9  C   UNL     1      42.507 -11.525   3.263  1.00  0.00     0.037 C 
HETATM   10  C   UNL     1      42.002 -10.945   1.964  1.00  0.00     0.070 C 
HETATM   11  H   UNL     1      42.420  -9.644   4.120  1.00  0.00     0.184 HD
ENDROOT
BRANCH   7  12
HETATM   12  S   UNL     1      44.702 -10.605   8.940  1.00  0.00    -0.083 SA
BRANCH  12  13
HETATM   13  C   UNL     1      44.522  -8.803   8.840  1.00  0.00     0.123 C 
BRANCH  13  14
HETATM   14  C   UNL     1      43.804  -8.250  10.049  1.00  0.00    -0.027 A 
HETATM   15  C   UNL     1      42.910  -7.168   9.981  1.00  0.00     0.041 A 
HETATM   16 CL   UNL     1      42.569  -6.354   8.495  1.00  0.00    -0.084 Cl
HETATM   17  C   UNL     1      42.260  -6.711  11.131  1.00  0.00     0.024 A 
HETATM   18  C   UNL     1      42.490  -7.325  12.363  1.00  0.00     0.002 A 
HETATM   19  C   UNL     1      43.368  -8.399  12.446  1.00  0.00     0.001 A 
HETATM   20  C   UNL     1      44.017  -8.862  11.299  1.00  0.00     0.009 A 
ENDBRANCH  13  14
ENDBRANCH  12  13
ENDBRANCH   7  12
BRANCH   2  21
HETATM   21  C   UNL     1      42.275 -14.261   5.493  1.00  0.00    -0.006 A 
HETATM   22  C   UNL     1      42.647 -15.477   6.095  1.00  0.00     0.042 A 
HETATM   23 CL   UNL     1      44.279 -16.047   6.104  1.00  0.00    -0.084 Cl
HETATM   24  C   UNL     1      41.691 -16.288   6.716  1.00  0.00     0.024 A 
HETATM   25  C   UNL     1      40.352 -15.901   6.755  1.00  0.00     0.002 A 
HETATM   26  C   UNL     1      39.965 -14.698   6.175  1.00  0.00     0.001 A 
HETATM   27  C   UNL     1      40.914 -13.885   5.552  1.00  0.00     0.011 A 
ENDBRANCH   2  21
BRANCH   1  28
HETATM   28  C   UNL     1      42.913 -13.786   2.310  1.00  0.00     0.293 C 
HETATM   29  O   UNL     1      43.934 -14.081   1.710  1.00  0.00    -0.259 OA
BRANCH  28  30
HETATM   30  O   UNL     1      41.689 -14.313   2.069  1.00  0.00    -0.318 OA
BRANCH  30  31
HETATM   31  C   UNL     1      41.661 -15.662   1.577  1.00  0.00     0.174 C 
HETATM   32  C   UNL     1      41.695 -16.639   2.737  1.00  0.00     0.034 C 
ENDBRANCH  30  31
ENDBRANCH  28  30
ENDBRANCH   1  28
TORSDOF 7
ENDMDL
MODEL 9
REMARK VINA RESULT:      -7.3      3.546      5.424
REMARK  7 active torsions:
REMARK  status: ('A' for Active; 'I' for Inactive)
REMARK    1  A    between atoms: C_2  and  O_3 
REMARK    2  A    between atoms: O_3  and  C_4 
REMARK    3  A    between atoms: C_4  and  C_5 
REMARK    4  A    between atoms: C_6  and  C_7 
REMARK    5  A    between atoms: C_18  and  S_19 
REMARK    6  A    between atoms: S_19  and  C_20 
REMARK    7  A    between atoms: C_20  and  C_21 
ROOT
HETATM    1  C   UNL     1      39.134 -12.274  -1.019  1.00  0.00     0.070 C 
HETATM    2  C   UNL     1      38.875 -12.351   0.488  1.00  0.00     0.204 C 
HETATM    3  N   UNL     1      39.787 -13.305   1.132  1.00  0.00    -0.082 N 
HETATM    4  C   UNL     1      40.902 -13.817   0.533  1.00  0.00     0.726 A 
HETATM    5  N   UNL     1      41.154 -13.512  -0.752  1.00  0.00    -0.192 N 
HETATM    6  N   UNL     1      39.648 -13.763   2.392  1.00  0.00    -0.128 NA
HETATM    7  C   UNL     1      40.754 -14.510   2.509  1.00  0.00     0.226 A 
HETATM    8  N   UNL     1      41.547 -14.568   1.387  1.00  0.00    -0.035 NA
HETATM    9  C   UNL     1      40.252 -12.826  -1.563  1.00  0.00     0.037 C 
HETATM   10  C   UNL     1      40.620 -12.753  -3.025  1.00  0.00     0.070 C 
HETATM   11  H   UNL     1      41.937 -13.974  -1.210  1.00  0.00     0.184 HD
ENDROOT
BRANCH   7  12
HETATM   12  S   UNL     1      41.201 -15.311   3.989  1.00  0.00    -0.083 SA
BRANCH  12  13
HETATM   13  C   UNL     1      42.973 -15.581   3.711  1.00  0.00     0.123 C 
BRANCH  13  14
HETATM   14  C   UNL     1      43.296 -17.052   3.583  1.00  0.00    -0.027 A 
HETATM   15  C   UNL     1      43.873 -17.803   4.621  1.00  0.00     0.041 A 
HETATM   16 CL   UNL     1      44.289 -17.095   6.141  1.00  0.00    -0.084 Cl
HETATM   17  C   UNL     1      44.133 -19.166   4.451  1.00  0.00     0.024 A 
HETATM   18  C   UNL     1      43.820 -19.800   3.248  1.00  0.00     0.002 A 
HETATM   19  C   UNL     1      43.243 -19.072   2.213  1.00  0.00     0.001 A 
HETATM   20  C   UNL     1      42.979 -17.710   2.379  1.00  0.00     0.009 A 
ENDBRANCH  13  14
ENDBRANCH  12  13
ENDBRANCH   7  12
BRANCH   2  21
HETATM   21  C   UNL     1      39.008 -11.003   1.202  1.00  0.00    -0.006 A 
HETATM   22  C   UNL     1      37.891 -10.213   1.530  1.00  0.00     0.042 A 
HETATM   23 CL   UNL     1      36.275 -10.680   1.132  1.00  0.00    -0.084 Cl
HETATM   24  C   UNL     1      38.050  -8.993   2.196  1.00  0.00     0.024 A 
HETATM   25  C   UNL     1      39.320  -8.543   2.555  1.00  0.00     0.002 A 
HETATM   26  C   UNL     1      40.436  -9.313   2.250  1.00  0.00     0.001 A 
HETATM   27  C   UNL     1      40.284 -10.530   1.583  1.00  0.00     0.011 A 
ENDBRANCH   2  21
BRANCH   1  28
HETATM   28  C   UNL     1      38.064 -11.683  -1.865  1.00  0.00     0.293 C 
HETATM   29  O   UNL     1      37.281 -12.327  -2.545  1.00  0.00    -0.259 OA
BRANCH  28  30
HETATM   30  O   UNL     1      38.056 -10.336  -1.738  1.00  0.00    -0.318 OA
BRANCH  30  31
HETATM   31  C   UNL     1      39.046  -9.617  -2.490  1.00  0.00     0.174 C 
HETATM   32  C   UNL     1      39.733  -8.595  -1.603  1.00  0.00     0.034 C 
ENDBRANCH  30  31
ENDBRANCH  28  30
ENDBRANCH   1  28
TORSDOF 7
ENDMDL
MODEL 10
REMARK VINA RESULT:      -7.3      3.696      7.535
REMARK  7 active torsions:
REMARK  status: ('A' for Active; 'I' for Inactive)
REMARK    1  A    between atoms: C_2  and  O_3 
REMARK    2  A    between atoms: O_3  and  C_4 
REMARK    3  A    between atoms: C_4  and  C_5 
REMARK    4  A    between atoms: C_6  and  C_7 
REMARK    5  A    between atoms: C_18  and  S_19 
REMARK    6  A    between atoms: S_19  and  C_20 
REMARK    7  A    between atoms: C_20  and  C_21 
ROOT
HETATM    1  C   UNL     1      42.005 -15.438   2.749  1.00  0.00     0.070 C 
HETATM    2  C   UNL     1      42.820 -14.628   3.761  1.00  0.00     0.204 C 
HETATM    3  N   UNL     1      42.155 -13.357   4.077  1.00  0.00    -0.082 N 
HETATM    4  C   UNL     1      40.858 -13.075   3.756  1.00  0.00     0.726 A 
HETATM    5  N   UNL     1      40.154 -13.963   3.032  1.00  0.00    -0.192 N 
HETATM    6  N   UNL     1      42.733 -12.338   4.742  1.00  0.00    -0.128 NA
HETATM    7  C   UNL     1      41.703 -11.487   4.838  1.00  0.00     0.226 A 
HETATM    8  N   UNL     1      40.536 -11.905   4.242  1.00  0.00    -0.035 NA
HETATM    9  C   UNL     1      40.725 -15.093   2.449  1.00  0.00     0.037 C 
HETATM   10  C   UNL     1      39.827 -15.860   1.509  1.00  0.00     0.070 C 
HETATM   11  H   UNL     1      39.221 -13.697   2.723  1.00  0.00     0.184 HD
ENDROOT
BRANCH   7  12
HETATM   12  S   UNL     1      41.801  -9.978   5.702  1.00  0.00    -0.083 SA
BRANCH  12  13
HETATM   13  C   UNL     1      42.354 -10.552   7.332  1.00  0.00     0.123 C 
BRANCH  13  14
HETATM   14  C   UNL     1      43.777 -10.129   7.614  1.00  0.00    -0.027 A 
HETATM   15  C   UNL     1      44.106  -8.918   8.246  1.00  0.00     0.041 A 
HETATM   16 CL   UNL     1      42.897  -7.786   8.739  1.00  0.00    -0.084 Cl
HETATM   17  C   UNL     1      45.441  -8.588   8.498  1.00  0.00     0.024 A 
HETATM   18  C   UNL     1      46.465  -9.459   8.126  1.00  0.00     0.002 A 
HETATM   19  C   UNL     1      46.157 -10.664   7.504  1.00  0.00     0.001 A 
HETATM   20  C   UNL     1      44.824 -10.999   7.254  1.00  0.00     0.009 A 
ENDBRANCH  13  14
ENDBRANCH  12  13
ENDBRANCH   7  12
BRANCH   2  21
HETATM   21  C   UNL     1      43.080 -15.373   5.074  1.00  0.00    -0.006 A 
HETATM   22  C   UNL     1      42.065 -16.068   5.756  1.00  0.00     0.042 A 
HETATM   23 CL   UNL     1      40.433 -16.120   5.189  1.00  0.00    -0.084 Cl
HETATM   24  C   UNL     1      42.342 -16.750   6.946  1.00  0.00     0.024 A 
HETATM   25  C   UNL     1      43.634 -16.760   7.471  1.00  0.00     0.002 A 
HETATM   26  C   UNL     1      44.653 -16.089   6.807  1.00  0.00     0.001 A 
HETATM   27  C   UNL     1      44.382 -15.403   5.621  1.00  0.00     0.011 A 
ENDBRANCH   2  21
BRANCH   1  28
HETATM   28  C   UNL     1      42.709 -16.531   2.027  1.00  0.00     0.293 C 
HETATM   29  O   UNL     1      43.481 -16.364   1.097  1.00  0.00    -0.259 OA
BRANCH  28  30
HETATM   30  O   UNL     1      42.403 -17.729   2.577  1.00  0.00    -0.318 OA
BRANCH  30  31
HETATM   31  C   UNL     1      43.439 -18.723   2.561  1.00  0.00     0.174 C 
HETATM   32  C   UNL     1      44.233 -18.669   3.852  1.00  0.00     0.034 C 
ENDBRANCH  30  31
ENDBRANCH  28  30
ENDBRANCH   1  28
TORSDOF 7
ENDMDL
