MODEL 1
REMARK VINA RESULT:      -8.5      0.000      0.000
REMARK  5 active torsions:
REMARK  status: ('A' for Active; 'I' for Inactive)
REMARK    1  A    between atoms: C_7  and  C_8 
REMARK    2  A    between atoms: N_9  and  N_10 
REMARK       I    between atoms: N_10  and  C_11 
REMARK    3  A    between atoms: C_11  and  C_12 
REMARK    4  A    between atoms: C_12  and  N_13 
REMARK    5  A    between atoms: N_13  and  C_14 
ROOT
HETATM    1  N   UNL     1      41.695 -14.752   1.493  1.00  0.00    -0.246 N 
HETATM    2  C   UNL     1      41.121 -13.513   1.778  1.00  0.00     0.255 C 
HETATM    3  O   UNL     1      40.747 -13.132   2.885  1.00  0.00    -0.270 OA
HETATM    4  H   UNL     1      42.204 -14.855   0.621  1.00  0.00     0.192 HD
ENDROOT
BRANCH   1   5
HETATM    5  N   UNL     1      41.964 -15.747   2.406  1.00  0.00    -0.184 NA
HETATM    6  C   UNL     1      43.139 -15.789   2.951  1.00  0.00     0.153 C 
BRANCH   6   7
HETATM    7  C   UNL     1      43.481 -16.836   3.901  1.00  0.00     0.018 A 
HETATM    8  C   UNL     1      43.779 -16.697   5.250  1.00  0.00     0.018 A 
HETATM    9  C   UNL     1      43.833 -15.497   6.126  1.00  0.00     0.069 C 
HETATM   10  N   UNL     1      44.053 -17.948   5.747  1.00  0.00    -0.358 N 
HETATM   11  H   UNL     1      44.301 -18.150   6.706  1.00  0.00     0.166 HD
HETATM   12  C   UNL     1      43.944 -18.899   4.762  1.00  0.00     0.043 A 
HETATM   13  C   UNL     1      43.582 -18.235   3.592  1.00  0.00     0.004 A 
HETATM   14  C   UNL     1      44.136 -20.286   4.822  1.00  0.00     0.030 A 
HETATM   15  C   UNL     1      43.394 -19.000   2.420  1.00  0.00     0.014 A 
HETATM   16  C   UNL     1      43.580 -20.387   2.461  1.00  0.00     0.001 A 
HETATM   17  C   UNL     1      43.947 -21.018   3.646  1.00  0.00     0.002 A 
ENDBRANCH   6   7
ENDBRANCH   1   5
BRANCH   2  18
HETATM   18  C   UNL     1      40.969 -12.636   0.531  1.00  0.00     0.224 C 
BRANCH  18  19
HETATM   19  N   UNL     1      39.559 -12.439   0.186  1.00  0.00    -0.380 N 
HETATM   20  H   UNL     1      39.220 -11.481   0.283  1.00  0.00     0.160 HD
BRANCH  19  21
HETATM   21  C   UNL     1      39.054 -13.048  -0.975  1.00  0.00     0.050 A 
HETATM   22  C   UNL     1      37.907 -12.532  -1.617  1.00  0.00     0.060 A 
HETATM   23 CL   UNL     1      37.172 -11.068  -1.054  1.00  0.00    -0.082 Cl
HETATM   24  C   UNL     1      37.348 -13.160  -2.735  1.00  0.00     0.026 A 
HETATM   25  C   UNL     1      37.914 -14.334  -3.227  1.00  0.00     0.002 A 
HETATM   26  C   UNL     1      39.027 -14.878  -2.595  1.00  0.00     0.002 A 
HETATM   27  C   UNL     1      39.585 -14.246  -1.478  1.00  0.00     0.031 A 
ENDBRANCH  19  21
ENDBRANCH  18  19
ENDBRANCH   2  18
TORSDOF 5
ENDMDL
MODEL 2
REMARK VINA RESULT:      -8.3      1.604      1.991
REMARK  5 active torsions:
REMARK  status: ('A' for Active; 'I' for Inactive)
REMARK    1  A    between atoms: C_7  and  C_8 
REMARK    2  A    between atoms: N_9  and  N_10 
REMARK       I    between atoms: N_10  and  C_11 
REMARK    3  A    between atoms: C_11  and  C_12 
REMARK    4  A    between atoms: C_12  and  N_13 
REMARK    5  A    between atoms: N_13  and  C_14 
ROOT
HETATM    1  N   UNL     1      40.440 -14.537   2.455  1.00  0.00    -0.246 N 
HETATM    2  C   UNL     1      40.119 -13.240   2.858  1.00  0.00     0.255 C 
HETATM    3  O   UNL     1      40.315 -12.767   3.975  1.00  0.00    -0.270 OA
HETATM    4  H   UNL     1      40.484 -14.731   1.459  1.00  0.00     0.192 HD
ENDROOT
BRANCH   1   5
HETATM    5  N   UNL     1      41.054 -15.496   3.228  1.00  0.00    -0.184 NA
HETATM    6  C   UNL     1      42.322 -15.707   3.066  1.00  0.00     0.153 C 
BRANCH   6   7
HETATM    7  C   UNL     1      43.012 -16.726   3.839  1.00  0.00     0.018 A 
HETATM    8  C   UNL     1      43.580 -16.600   5.100  1.00  0.00     0.018 A 
HETATM    9  C   UNL     1      43.658 -15.444   6.032  1.00  0.00     0.069 C 
HETATM   10  N   UNL     1      44.132 -17.814   5.432  1.00  0.00    -0.358 N 
HETATM   11  H   UNL     1      44.613 -18.015   6.298  1.00  0.00     0.166 HD
HETATM   12  C   UNL     1      43.942 -18.728   4.425  1.00  0.00     0.043 A 
HETATM   13  C   UNL     1      43.238 -18.079   3.413  1.00  0.00     0.004 A 
HETATM   14  C   UNL     1      44.337 -20.070   4.338  1.00  0.00     0.030 A 
HETATM   15  C   UNL     1      42.904 -18.814   2.254  1.00  0.00     0.014 A 
HETATM   16  C   UNL     1      43.288 -20.157   2.151  1.00  0.00     0.001 A 
HETATM   17  C   UNL     1      43.996 -20.772   3.179  1.00  0.00     0.002 A 
ENDBRANCH   6   7
ENDBRANCH   1   5
BRANCH   2  18
HETATM   18  C   UNL     1      39.449 -12.428   1.746  1.00  0.00     0.224 C 
BRANCH  18  19
HETATM   19  N   UNL     1      39.259 -13.233   0.537  1.00  0.00    -0.380 N 
HETATM   20  H   UNL     1      38.302 -13.550   0.375  1.00  0.00     0.160 HD
BRANCH  19  21
HETATM   21  C   UNL     1      39.874 -12.819  -0.656  1.00  0.00     0.050 A 
HETATM   22  C   UNL     1      39.874 -13.655  -1.794  1.00  0.00     0.060 A 
HETATM   23 CL   UNL     1      39.012 -15.158  -1.776  1.00  0.00    -0.082 Cl
HETATM   24  C   UNL     1      40.536 -13.292  -2.971  1.00  0.00     0.026 A 
HETATM   25  C   UNL     1      41.234 -12.088  -3.031  1.00  0.00     0.002 A 
HETATM   26  C   UNL     1      41.273 -11.259  -1.915  1.00  0.00     0.002 A 
HETATM   27  C   UNL     1      40.608 -11.625  -0.739  1.00  0.00     0.031 A 
ENDBRANCH  19  21
ENDBRANCH  18  19
ENDBRANCH   2  18
TORSDOF 5
ENDMDL
MODEL 3
REMARK VINA RESULT:      -8.1      4.217      6.555
REMARK  5 active torsions:
REMARK  status: ('A' for Active; 'I' for Inactive)
REMARK    1  A    between atoms: C_7  and  C_8 
REMARK    2  A    between atoms: N_9  and  N_10 
REMARK       I    between atoms: N_10  and  C_11 
REMARK    3  A    between atoms: C_11  and  C_12 
REMARK    4  A    between atoms: C_12  and  N_13 
REMARK    5  A    between atoms: N_13  and  C_14 
ROOT
HETATM    1  N   UNL     1      41.607 -14.019   5.486  1.00  0.00    -0.246 N 
HETATM    2  C   UNL     1      40.974 -12.877   4.996  1.00  0.00     0.255 C 
HETATM    3  O   UNL     1      40.517 -12.740   3.863  1.00  0.00    -0.270 OA
HETATM    4  H   UNL     1      41.699 -14.121   6.493  1.00  0.00     0.192 HD
ENDROOT
BRANCH   1   5
HETATM    5  N   UNL     1      41.804 -15.194   4.797  1.00  0.00    -0.184 NA
HETATM    6  C   UNL     1      43.017 -15.608   4.608  1.00  0.00     0.153 C 
BRANCH   6   7
HETATM    7  C   UNL     1      43.280 -16.829   3.864  1.00  0.00     0.018 A 
HETATM    8  C   UNL     1      43.353 -16.988   2.486  1.00  0.00     0.018 A 
HETATM    9  C   UNL     1      43.204 -16.011   1.375  1.00  0.00     0.069 C 
HETATM   10  N   UNL     1      43.609 -18.314   2.232  1.00  0.00    -0.358 N 
HETATM   11  H   UNL     1      43.715 -18.718   1.312  1.00  0.00     0.166 HD
HETATM   12  C   UNL     1      43.704 -19.025   3.403  1.00  0.00     0.043 A 
HETATM   13  C   UNL     1      43.507 -18.123   4.446  1.00  0.00     0.004 A 
HETATM   14  C   UNL     1      43.949 -20.389   3.613  1.00  0.00     0.030 A 
HETATM   15  C   UNL     1      43.567 -18.609   5.771  1.00  0.00     0.014 A 
HETATM   16  C   UNL     1      43.813 -19.968   6.000  1.00  0.00     0.001 A 
HETATM   17  C   UNL     1      43.999 -20.843   4.934  1.00  0.00     0.002 A 
ENDBRANCH   6   7
ENDBRANCH   1   5
BRANCH   2  18
HETATM   18  C   UNL     1      40.916 -11.748   6.029  1.00  0.00     0.224 C 
BRANCH  18  19
HETATM   19  N   UNL     1      41.879 -10.689   5.718  1.00  0.00    -0.380 N 
HETATM   20  H   UNL     1      41.506  -9.740   5.758  1.00  0.00     0.160 HD
BRANCH  19  21
HETATM   21  C   UNL     1      43.167 -10.760   6.276  1.00  0.00     0.050 A 
HETATM   22  C   UNL     1      44.256 -11.240   5.515  1.00  0.00     0.060 A 
HETATM   23 CL   UNL     1      44.047 -11.637   3.842  1.00  0.00    -0.082 Cl
HETATM   24  C   UNL     1      45.531 -11.380   6.069  1.00  0.00     0.026 A 
HETATM   25  C   UNL     1      45.746 -11.064   7.408  1.00  0.00     0.002 A 
HETATM   26  C   UNL     1      44.684 -10.616   8.187  1.00  0.00     0.002 A 
HETATM   27  C   UNL     1      43.408 -10.474   7.629  1.00  0.00     0.031 A 
ENDBRANCH  19  21
ENDBRANCH  18  19
ENDBRANCH   2  18
TORSDOF 5
ENDMDL
MODEL 4
REMARK VINA RESULT:      -8.1      2.225      8.150
REMARK  5 active torsions:
REMARK  status: ('A' for Active; 'I' for Inactive)
REMARK    1  A    between atoms: C_7  and  C_8 
REMARK    2  A    between atoms: N_9  and  N_10 
REMARK       I    between atoms: N_10  and  C_11 
REMARK    3  A    between atoms: C_11  and  C_12 
REMARK    4  A    between atoms: C_12  and  N_13 
REMARK    5  A    between atoms: N_13  and  C_14 
ROOT
HETATM    1  N   UNL     1      40.875 -15.518   3.519  1.00  0.00    -0.246 N 
HETATM    2  C   UNL     1      41.831 -15.172   4.474  1.00  0.00     0.255 C 
HETATM    3  O   UNL     1      42.271 -14.041   4.671  1.00  0.00    -0.270 OA
HETATM    4  H   UNL     1      40.396 -16.408   3.623  1.00  0.00     0.192 HD
ENDROOT
BRANCH   1   5
HETATM    5  N   UNL     1      40.242 -14.652   2.656  1.00  0.00    -0.184 NA
HETATM    6  C   UNL     1      40.790 -14.408   1.508  1.00  0.00     0.153 C 
BRANCH   6   7
HETATM    7  C   UNL     1      40.176 -13.481   0.572  1.00  0.00     0.018 A 
HETATM    8  C   UNL     1      40.047 -12.104   0.698  1.00  0.00     0.018 A 
HETATM    9  C   UNL     1      40.480 -11.170   1.770  1.00  0.00     0.069 C 
HETATM   10  N   UNL     1      39.391 -11.643  -0.419  1.00  0.00    -0.358 N 
HETATM   11  H   UNL     1      39.161 -10.676  -0.598  1.00  0.00     0.166 HD
HETATM   12  C   UNL     1      39.087 -12.678  -1.269  1.00  0.00     0.043 A 
HETATM   13  C   UNL     1      39.570 -13.845  -0.679  1.00  0.00     0.004 A 
HETATM   14  C   UNL     1      38.429 -12.667  -2.505  1.00  0.00     0.030 A 
HETATM   15  C   UNL     1      39.391 -15.065  -1.367  1.00  0.00     0.014 A 
HETATM   16  C   UNL     1      38.737 -15.073  -2.605  1.00  0.00     0.001 A 
HETATM   17  C   UNL     1      38.262 -13.890  -3.162  1.00  0.00     0.002 A 
ENDBRANCH   6   7
ENDBRANCH   1   5
BRANCH   2  18
HETATM   18  C   UNL     1      42.327 -16.380   5.274  1.00  0.00     0.224 C 
BRANCH  18  19
HETATM   19  N   UNL     1      43.636 -16.835   4.799  1.00  0.00    -0.380 N 
HETATM   20  H   UNL     1      44.425 -16.574   5.392  1.00  0.00     0.160 HD
BRANCH  19  21
HETATM   21  C   UNL     1      43.763 -18.150   4.321  1.00  0.00     0.050 A 
HETATM   22  C   UNL     1      43.568 -18.440   2.953  1.00  0.00     0.060 A 
HETATM   23 CL   UNL     1      43.285 -17.161   1.818  1.00  0.00    -0.082 Cl
HETATM   24  C   UNL     1      43.625 -19.749   2.465  1.00  0.00     0.026 A 
HETATM   25  C   UNL     1      43.859 -20.806   3.341  1.00  0.00     0.002 A 
HETATM   26  C   UNL     1      44.027 -20.550   4.698  1.00  0.00     0.002 A 
HETATM   27  C   UNL     1      43.972 -19.238   5.183  1.00  0.00     0.031 A 
ENDBRANCH  19  21
ENDBRANCH  18  19
ENDBRANCH   2  18
TORSDOF 5
ENDMDL
MODEL 5
REMARK VINA RESULT:      -8.1      4.526      8.227
REMARK  5 active torsions:
REMARK  status: ('A' for Active; 'I' for Inactive)
REMARK    1  A    between atoms: C_7  and  C_8 
REMARK    2  A    between atoms: N_9  and  N_10 
REMARK       I    between atoms: N_10  and  C_11 
REMARK    3  A    between atoms: C_11  and  C_12 
REMARK    4  A    between atoms: C_12  and  N_13 
REMARK    5  A    between atoms: N_13  and  C_14 
ROOT
HETATM    1  N   UNL     1      42.322 -14.560   3.913  1.00  0.00    -0.246 N 
HETATM    2  C   UNL     1      41.612 -15.754   3.777  1.00  0.00     0.255 C 
HETATM    3  O   UNL     1      40.848 -16.234   4.612  1.00  0.00    -0.270 OA
HETATM    4  H   UNL     1      42.701 -14.131   3.075  1.00  0.00     0.192 HD
ENDROOT
BRANCH   1   5
HETATM    5  N   UNL     1      42.268 -13.706   4.991  1.00  0.00    -0.184 NA
HETATM    6  C   UNL     1      42.718 -12.499   4.850  1.00  0.00     0.153 C 
BRANCH   6   7
HETATM    7  C   UNL     1      42.707 -11.565   5.965  1.00  0.00     0.018 A 
HETATM    8  C   UNL     1      41.611 -10.933   6.536  1.00  0.00     0.018 A 
HETATM    9  C   UNL     1      40.160 -11.003   6.219  1.00  0.00     0.069 C 
HETATM   10  N   UNL     1      42.074 -10.133   7.552  1.00  0.00    -0.358 N 
HETATM   11  H   UNL     1      41.495  -9.554   8.145  1.00  0.00     0.166 HD
HETATM   12  C   UNL     1      43.440 -10.224   7.662  1.00  0.00     0.043 A 
HETATM   13  C   UNL     1      43.869 -11.119   6.684  1.00  0.00     0.004 A 
HETATM   14  C   UNL     1      44.319  -9.587   8.548  1.00  0.00     0.030 A 
HETATM   15  C   UNL     1      45.250 -11.398   6.592  1.00  0.00     0.014 A 
HETATM   16  C   UNL     1      46.143 -10.772   7.470  1.00  0.00     0.001 A 
HETATM   17  C   UNL     1      45.681  -9.879   8.432  1.00  0.00     0.002 A 
ENDBRANCH   6   7
ENDBRANCH   1   5
BRANCH   2  18
HETATM   18  C   UNL     1      41.898 -16.458   2.447  1.00  0.00     0.224 C 
BRANCH  18  19
HETATM   19  N   UNL     1      43.253 -17.013   2.418  1.00  0.00    -0.380 N 
HETATM   20  H   UNL     1      43.989 -16.371   2.713  1.00  0.00     0.160 HD
BRANCH  19  21
HETATM   21  C   UNL     1      43.466 -18.308   2.923  1.00  0.00     0.050 A 
HETATM   22  C   UNL     1      44.046 -18.496   4.197  1.00  0.00     0.060 A 
HETATM   23 CL   UNL     1      44.394 -17.136   5.211  1.00  0.00    -0.082 Cl
HETATM   24  C   UNL     1      44.327 -19.773   4.692  1.00  0.00     0.026 A 
HETATM   25  C   UNL     1      44.054 -20.895   3.913  1.00  0.00     0.002 A 
HETATM   26  C   UNL     1      43.509 -20.735   2.643  1.00  0.00     0.002 A 
HETATM   27  C   UNL     1      43.226 -19.456   2.152  1.00  0.00     0.031 A 
ENDBRANCH  19  21
ENDBRANCH  18  19
ENDBRANCH   2  18
TORSDOF 5
ENDMDL
MODEL 6
REMARK VINA RESULT:      -8.0      4.734      7.703
REMARK  5 active torsions:
REMARK  status: ('A' for Active; 'I' for Inactive)
REMARK    1  A    between atoms: C_7  and  C_8 
REMARK    2  A    between atoms: N_9  and  N_10 
REMARK       I    between atoms: N_10  and  C_11 
REMARK    3  A    between atoms: C_11  and  C_12 
REMARK    4  A    between atoms: C_12  and  N_13 
REMARK    5  A    between atoms: N_13  and  C_14 
ROOT
HETATM    1  N   UNL     1      41.482 -12.206   5.219  1.00  0.00    -0.246 N 
HETATM    2  C   UNL     1      41.891 -10.876   5.118  1.00  0.00     0.255 C 
HETATM    3  O   UNL     1      42.531 -10.390   4.188  1.00  0.00    -0.270 OA
HETATM    4  H   UNL     1      40.744 -12.431   5.879  1.00  0.00     0.192 HD
ENDROOT
BRANCH   1   5
HETATM    5  N   UNL     1      41.703 -13.193   4.285  1.00  0.00    -0.184 NA
HETATM    6  C   UNL     1      41.423 -14.419   4.599  1.00  0.00     0.153 C 
BRANCH   6   7
HETATM    7  C   UNL     1      41.662 -15.501   3.658  1.00  0.00     0.018 A 
HETATM    8  C   UNL     1      41.023 -15.732   2.446  1.00  0.00     0.018 A 
HETATM    9  C   UNL     1      39.948 -14.984   1.743  1.00  0.00     0.069 C 
HETATM   10  N   UNL     1      41.563 -16.873   1.903  1.00  0.00    -0.358 N 
HETATM   11  H   UNL     1      41.289 -17.280   1.019  1.00  0.00     0.166 HD
HETATM   12  C   UNL     1      42.533 -17.393   2.723  1.00  0.00     0.043 A 
HETATM   13  C   UNL     1      42.624 -16.553   3.831  1.00  0.00     0.004 A 
HETATM   14  C   UNL     1      43.332 -18.534   2.566  1.00  0.00     0.030 A 
HETATM   15  C   UNL     1      43.569 -16.867   4.833  1.00  0.00     0.014 A 
HETATM   16  C   UNL     1      44.377 -18.002   4.691  1.00  0.00     0.001 A 
HETATM   17  C   UNL     1      44.256 -18.822   3.574  1.00  0.00     0.002 A 
ENDBRANCH   6   7
ENDBRANCH   1   5
BRANCH   2  18
HETATM   18  C   UNL     1      41.474 -10.040   6.332  1.00  0.00     0.224 C 
BRANCH  18  19
HETATM   19  N   UNL     1      42.156 -10.488   7.548  1.00  0.00    -0.380 N 
HETATM   20  H   UNL     1      42.039 -11.478   7.769  1.00  0.00     0.160 HD
BRANCH  19  21
HETATM   21  C   UNL     1      43.474 -10.060   7.783  1.00  0.00     0.050 A 
HETATM   22  C   UNL     1      44.557 -10.957   7.645  1.00  0.00     0.060 A 
HETATM   23 CL   UNL     1      44.291 -12.568   7.069  1.00  0.00    -0.082 Cl
HETATM   24  C   UNL     1      45.869 -10.571   7.936  1.00  0.00     0.026 A 
HETATM   25  C   UNL     1      46.128  -9.282   8.394  1.00  0.00     0.002 A 
HETATM   26  C   UNL     1      45.076  -8.388   8.565  1.00  0.00     0.002 A 
HETATM   27  C   UNL     1      43.764  -8.776   8.270  1.00  0.00     0.031 A 
ENDBRANCH  19  21
ENDBRANCH  18  19
ENDBRANCH   2  18
TORSDOF 5
ENDMDL
MODEL 7
REMARK VINA RESULT:      -7.9      2.333      2.776
REMARK  5 active torsions:
REMARK  status: ('A' for Active; 'I' for Inactive)
REMARK    1  A    between atoms: C_7  and  C_8 
REMARK    2  A    between atoms: N_9  and  N_10 
REMARK       I    between atoms: N_10  and  C_11 
REMARK    3  A    between atoms: C_11  and  C_12 
REMARK    4  A    between atoms: C_12  and  N_13 
REMARK    5  A    between atoms: N_13  and  C_14 
ROOT
HETATM    1  N   UNL     1      41.035 -14.969   0.660  1.00  0.00    -0.246 N 
HETATM    2  C   UNL     1      40.185 -13.863   0.641  1.00  0.00     0.255 C 
HETATM    3  O   UNL     1      39.621 -13.375   1.618  1.00  0.00    -0.270 OA
HETATM    4  H   UNL     1      41.645 -15.117  -0.138  1.00  0.00     0.192 HD
ENDROOT
BRANCH   1   5
HETATM    5  N   UNL     1      41.408 -15.684   1.776  1.00  0.00    -0.184 NA
HETATM    6  C   UNL     1      42.662 -15.958   1.947  1.00  0.00     0.153 C 
BRANCH   6   7
HETATM    7  C   UNL     1      43.105 -16.732   3.095  1.00  0.00     0.018 A 
HETATM    8  C   UNL     1      43.385 -16.273   4.376  1.00  0.00     0.018 A 
HETATM    9  C   UNL     1      43.320 -14.911   4.967  1.00  0.00     0.069 C 
HETATM   10  N   UNL     1      43.781 -17.353   5.128  1.00  0.00    -0.358 N 
HETATM   11  H   UNL     1      44.046 -17.315   6.102  1.00  0.00     0.166 HD
HETATM   12  C   UNL     1      43.768 -18.502   4.377  1.00  0.00     0.043 A 
HETATM   13  C   UNL     1      43.343 -18.149   3.098  1.00  0.00     0.004 A 
HETATM   14  C   UNL     1      44.095 -19.817   4.734  1.00  0.00     0.030 A 
HETATM   15  C   UNL     1      43.234 -19.167   2.125  1.00  0.00     0.014 A 
HETATM   16  C   UNL     1      43.555 -20.487   2.464  1.00  0.00     0.001 A 
HETATM   17  C   UNL     1      43.981 -20.804   3.750  1.00  0.00     0.002 A 
ENDBRANCH   6   7
ENDBRANCH   1   5
BRANCH   2  18
HETATM   18  C   UNL     1      39.986 -13.299  -0.769  1.00  0.00     0.224 C 
BRANCH  18  19
HETATM   19  N   UNL     1      41.213 -12.679  -1.274  1.00  0.00    -0.380 N 
HETATM   20  H   UNL     1      41.813 -13.296  -1.823  1.00  0.00     0.160 HD
BRANCH  19  21
HETATM   21  C   UNL     1      41.141 -11.394  -1.837  1.00  0.00     0.050 A 
HETATM   22  C   UNL     1      41.243 -10.245  -1.023  1.00  0.00     0.060 A 
HETATM   23 CL   UNL     1      41.578 -10.398   0.670  1.00  0.00    -0.082 Cl
HETATM   24  C   UNL     1      41.109  -8.958  -1.552  1.00  0.00     0.026 A 
HETATM   25  C   UNL     1      40.848  -8.789  -2.909  1.00  0.00     0.002 A 
HETATM   26  C   UNL     1      40.715  -9.905  -3.728  1.00  0.00     0.002 A 
HETATM   27  C   UNL     1      40.853 -11.193  -3.196  1.00  0.00     0.031 A 
ENDBRANCH  19  21
ENDBRANCH  18  19
ENDBRANCH   2  18
TORSDOF 5
ENDMDL
MODEL 8
REMARK VINA RESULT:      -7.8      5.947      9.097
REMARK  5 active torsions:
REMARK  status: ('A' for Active; 'I' for Inactive)
REMARK    1  A    between atoms: C_7  and  C_8 
REMARK    2  A    between atoms: N_9  and  N_10 
REMARK       I    between atoms: N_10  and  C_11 
REMARK    3  A    between atoms: C_11  and  C_12 
REMARK    4  A    between atoms: C_12  and  N_13 
REMARK    5  A    between atoms: N_13  and  C_14 
ROOT
HETATM    1  N   UNL     1      43.801 -12.188   7.547  1.00  0.00    -0.246 N 
HETATM    2  C   UNL     1      44.546 -11.023   7.366  1.00  0.00     0.255 C 
HETATM    3  O   UNL     1      45.487 -10.886   6.587  1.00  0.00    -0.270 OA
HETATM    4  H   UNL     1      42.897 -12.112   8.005  1.00  0.00     0.192 HD
ENDROOT
BRANCH   1   5
HETATM    5  N   UNL     1      43.974 -13.373   6.868  1.00  0.00    -0.184 NA
HETATM    6  C   UNL     1      42.971 -13.863   6.210  1.00  0.00     0.153 C 
BRANCH   6   7
HETATM    7  C   UNL     1      43.094 -15.125   5.497  1.00  0.00     0.018 A 
HETATM    8  C   UNL     1      43.233 -16.397   6.036  1.00  0.00     0.018 A 
HETATM    9  C   UNL     1      43.290 -16.868   7.445  1.00  0.00     0.069 C 
HETATM   10  N   UNL     1      43.325 -17.284   4.990  1.00  0.00    -0.358 N 
HETATM   11  H   UNL     1      43.432 -18.284   5.085  1.00  0.00     0.166 HD
HETATM   12  C   UNL     1      43.251 -16.628   3.785  1.00  0.00     0.043 A 
HETATM   13  C   UNL     1      43.101 -15.272   4.068  1.00  0.00     0.004 A 
HETATM   14  C   UNL     1      43.304 -17.132   2.479  1.00  0.00     0.030 A 
HETATM   15  C   UNL     1      42.989 -14.372   2.986  1.00  0.00     0.014 A 
HETATM   16  C   UNL     1      43.038 -14.857   1.673  1.00  0.00     0.001 A 
HETATM   17  C   UNL     1      43.195 -16.218   1.427  1.00  0.00     0.002 A 
ENDBRANCH   6   7
ENDBRANCH   1   5
BRANCH   2  18
HETATM   18  C   UNL     1      44.086  -9.883   8.280  1.00  0.00     0.224 C 
BRANCH  18  19
HETATM   19  N   UNL     1      43.182 -10.369   9.325  1.00  0.00    -0.380 N 
HETATM   20  H   UNL     1      43.366 -11.320   9.648  1.00  0.00     0.160 HD
BRANCH  19  21
HETATM   21  C   UNL     1      42.861  -9.515  10.394  1.00  0.00     0.050 A 
HETATM   22  C   UNL     1      41.594  -8.895  10.465  1.00  0.00     0.060 A 
HETATM   23 CL   UNL     1      40.370  -9.269   9.298  1.00  0.00    -0.082 Cl
HETATM   24  C   UNL     1      41.276  -7.991  11.483  1.00  0.00     0.026 A 
HETATM   25  C   UNL     1      42.228  -7.669  12.447  1.00  0.00     0.002 A 
HETATM   26  C   UNL     1      43.493  -8.244  12.384  1.00  0.00     0.002 A 
HETATM   27  C   UNL     1      43.808  -9.150  11.365  1.00  0.00     0.031 A 
ENDBRANCH  19  21
ENDBRANCH  18  19
ENDBRANCH   2  18
TORSDOF 5
ENDMDL
MODEL 9
REMARK VINA RESULT:      -7.6      6.074      9.270
REMARK  5 active torsions:
REMARK  status: ('A' for Active; 'I' for Inactive)
REMARK    1  A    between atoms: C_7  and  C_8 
REMARK    2  A    between atoms: N_9  and  N_10 
REMARK       I    between atoms: N_10  and  C_11 
REMARK    3  A    between atoms: C_11  and  C_12 
REMARK    4  A    between atoms: C_12  and  N_13 
REMARK    5  A    between atoms: N_13  and  C_14 
ROOT
HETATM    1  N   UNL     1      43.539 -12.091   7.466  1.00  0.00    -0.246 N 
HETATM    2  C   UNL     1      44.519 -11.152   7.792  1.00  0.00     0.255 C 
HETATM    3  O   UNL     1      45.428 -10.778   7.055  1.00  0.00    -0.270 OA
HETATM    4  H   UNL     1      42.699 -12.123   8.034  1.00  0.00     0.192 HD
ENDROOT
BRANCH   1   5
HETATM    5  N   UNL     1      43.409 -12.736   6.257  1.00  0.00    -0.184 NA
HETATM    6  C   UNL     1      42.709 -13.826   6.207  1.00  0.00     0.153 C 
BRANCH   6   7
HETATM    7  C   UNL     1      42.562 -14.560   4.960  1.00  0.00     0.018 A 
HETATM    8  C   UNL     1      41.859 -14.178   3.825  1.00  0.00     0.018 A 
HETATM    9  C   UNL     1      41.073 -12.953   3.522  1.00  0.00     0.069 C 
HETATM   10  N   UNL     1      41.985 -15.185   2.899  1.00  0.00    -0.358 N 
HETATM   11  H   UNL     1      41.576 -15.177   1.975  1.00  0.00     0.166 HD
HETATM   12  C   UNL     1      42.749 -16.212   3.395  1.00  0.00     0.043 A 
HETATM   13  C   UNL     1      43.132 -15.850   4.685  1.00  0.00     0.004 A 
HETATM   14  C   UNL     1      43.128 -17.423   2.802  1.00  0.00     0.030 A 
HETATM   15  C   UNL     1      43.943 -16.744   5.418  1.00  0.00     0.014 A 
HETATM   16  C   UNL     1      44.332 -17.958   4.841  1.00  0.00     0.001 A 
HETATM   17  C   UNL     1      43.928 -18.291   3.552  1.00  0.00     0.002 A 
ENDBRANCH   6   7
ENDBRANCH   1   5
BRANCH   2  18
HETATM   18  C   UNL     1      44.370 -10.622   9.222  1.00  0.00     0.224 C 
BRANCH  18  19
HETATM   19  N   UNL     1      42.976 -10.297   9.529  1.00  0.00    -0.380 N 
HETATM   20  H   UNL     1      42.319 -11.071   9.422  1.00  0.00     0.160 HD
BRANCH  19  21
HETATM   21  C   UNL     1      42.694  -9.537  10.677  1.00  0.00     0.050 A 
HETATM   22  C   UNL     1      41.374  -9.118  10.956  1.00  0.00     0.060 A 
HETATM   23 CL   UNL     1      40.060  -9.634   9.952  1.00  0.00    -0.082 Cl
HETATM   24  C   UNL     1      41.081  -8.306  12.055  1.00  0.00     0.026 A 
HETATM   25  C   UNL     1      42.106  -7.876  12.894  1.00  0.00     0.002 A 
HETATM   26  C   UNL     1      43.418  -8.252  12.625  1.00  0.00     0.002 A 
HETATM   27  C   UNL     1      43.708  -9.066  11.524  1.00  0.00     0.031 A 
ENDBRANCH  19  21
ENDBRANCH  18  19
ENDBRANCH   2  18
TORSDOF 5
ENDMDL
MODEL 10
REMARK VINA RESULT:      -7.6      3.142      8.884
REMARK  5 active torsions:
REMARK  status: ('A' for Active; 'I' for Inactive)
REMARK    1  A    between atoms: C_7  and  C_8 
REMARK    2  A    between atoms: N_9  and  N_10 
REMARK       I    between atoms: N_10  and  C_11 
REMARK    3  A    between atoms: C_11  and  C_12 
REMARK    4  A    between atoms: C_12  and  N_13 
REMARK    5  A    between atoms: N_13  and  C_14 
ROOT
HETATM    1  N   UNL     1      40.324 -14.456   2.064  1.00  0.00    -0.246 N 
HETATM    2  C   UNL     1      41.104 -13.920   3.089  1.00  0.00     0.255 C 
HETATM    3  O   UNL     1      41.518 -12.764   3.147  1.00  0.00    -0.270 OA
HETATM    4  H   UNL     1      39.822 -15.320   2.246  1.00  0.00     0.192 HD
ENDROOT
BRANCH   1   5
HETATM    5  N   UNL     1      39.862 -13.777   0.960  1.00  0.00    -0.184 NA
HETATM    6  C   UNL     1      40.435 -13.988  -0.183  1.00  0.00     0.153 C 
BRANCH   6   7
HETATM    7  C   UNL     1      40.002 -13.276  -1.375  1.00  0.00     0.018 A 
HETATM    8  C   UNL     1      39.265 -13.773  -2.443  1.00  0.00     0.018 A 
HETATM    9  C   UNL     1      38.697 -15.122  -2.703  1.00  0.00     0.069 C 
HETATM   10  N   UNL     1      39.101 -12.750  -3.346  1.00  0.00    -0.358 N 
HETATM   11  H   UNL     1      38.601 -12.824  -4.222  1.00  0.00     0.166 HD
HETATM   12  C   UNL     1      39.709 -11.602  -2.901  1.00  0.00     0.043 A 
HETATM   13  C   UNL     1      40.279 -11.896  -1.664  1.00  0.00     0.004 A 
HETATM   14  C   UNL     1      39.792 -10.336  -3.495  1.00  0.00     0.030 A 
HETATM   15  C   UNL     1      40.964 -10.867  -0.982  1.00  0.00     0.014 A 
HETATM   16  C   UNL     1      41.056  -9.595  -1.559  1.00  0.00     0.001 A 
HETATM   17  C   UNL     1      40.479  -9.337  -2.799  1.00  0.00     0.002 A 
ENDBRANCH   6   7
ENDBRANCH   1   5
BRANCH   2  18
HETATM   18  C   UNL     1      41.437 -14.949   4.174  1.00  0.00     0.224 C 
BRANCH  18  19
HETATM   19  N   UNL     1      42.847 -15.340   4.124  1.00  0.00    -0.380 N 
HETATM   20  H   UNL     1      43.422 -14.981   4.888  1.00  0.00     0.160 HD
BRANCH  19  21
HETATM   21  C   UNL     1      43.171 -16.673   3.819  1.00  0.00     0.050 A 
HETATM   22  C   UNL     1      44.054 -17.406   4.643  1.00  0.00     0.060 A 
HETATM   23 CL   UNL     1      44.659 -16.714   6.111  1.00  0.00    -0.082 Cl
HETATM   24  C   UNL     1      44.441 -18.711   4.323  1.00  0.00     0.026 A 
HETATM   25  C   UNL     1      43.970 -19.309   3.157  1.00  0.00     0.002 A 
HETATM   26  C   UNL     1      43.122 -18.598   2.314  1.00  0.00     0.002 A 
HETATM   27  C   UNL     1      42.734 -17.293   2.638  1.00  0.00     0.031 A 
ENDBRANCH  19  21
ENDBRANCH  18  19
ENDBRANCH   2  18
TORSDOF 5
ENDMDL
