MODEL 1
REMARK VINA RESULT:      -9.4      0.000      0.000
REMARK  4 active torsions:
REMARK  status: ('A' for Active; 'I' for Inactive)
REMARK    1  A    between atoms: C_2  and  C_3 
REMARK    2  A    between atoms: C_7  and  C_8 
REMARK       I    between atoms: C_8  and  N_9 
REMARK    3  A    between atoms: N_9  and  C_10 
REMARK    4  A    between atoms: C_10  and  C_11 
ROOT
HETATM    1  C   UNL     1      43.553 -12.474   5.014  1.00  0.00     0.270 C 
HETATM    2  N   UNL     1      43.072 -13.754   5.127  1.00  0.00    -0.351 N 
HETATM    3  O   UNL     1      43.729 -11.925   3.932  1.00  0.00    -0.266 OA
HETATM    4  H   UNL     1      42.856 -14.135   6.036  1.00  0.00     0.163 HD
ENDROOT
BRANCH   1   5
HETATM    5  C   UNL     1      43.848 -11.812   6.256  1.00  0.00     0.120 A 
HETATM    6  N   UNL     1      45.070 -11.946   6.854  1.00  0.00    -0.272 N 
HETATM    7  N   UNL     1      45.201 -11.264   7.999  1.00  0.00    -0.174 NA
HETATM    8  H   UNL     1      45.855 -12.495   6.514  1.00  0.00     0.189 HD
HETATM    9  C   UNL     1      44.015 -10.661   8.175  1.00  0.00     0.089 A 
HETATM   10  C   UNL     1      43.136 -10.983   7.100  1.00  0.00     0.071 A 
BRANCH   9  11
HETATM   11  C   UNL     1      43.760  -9.802   9.339  1.00  0.00    -0.005 A 
HETATM   12  C   UNL     1      43.739 -10.352  10.633  1.00  0.00     0.017 A 
HETATM   13  C   UNL     1      43.507  -9.548  11.751  1.00  0.00     0.043 A 
HETATM   14  C   UNL     1      43.290  -8.188  11.580  1.00  0.00     0.116 A 
HETATM   15  C   UNL     1      43.300  -7.619  10.313  1.00  0.00     0.043 A 
HETATM   16  F   UNL     1      43.066  -7.414  12.650  1.00  0.00    -0.206 F 
HETATM   17  C   UNL     1      43.534  -8.423   9.193  1.00  0.00     0.017 A 
ENDBRANCH   9  11
ENDBRANCH   1   5
BRANCH   2  18
HETATM   18  C   UNL     1      42.698 -14.529   3.966  1.00  0.00     0.161 C 
BRANCH  18  19
HETATM   19  C   UNL     1      43.183 -15.953   4.071  1.00  0.00    -0.040 A 
HETATM   20  C   UNL     1      42.933 -16.871   3.039  1.00  0.00     0.018 A 
HETATM   21  C   UNL     1      43.346 -18.207   3.143  1.00  0.00    -0.024 A 
HETATM   22  C   UNL     1      43.978 -18.634   4.315  1.00  0.00     0.075 A 
HETATM   23  C   UNL     1      43.074 -19.165   2.020  1.00  0.00     0.043 C 
HETATM   24  O   UNL     1      44.400 -19.922   4.521  1.00  0.00    -0.351 OA
HETATM   25  C   UNL     1      44.235 -17.732   5.345  1.00  0.00     0.038 A 
HETATM   26  C   UNL     1      43.820 -20.883   3.635  1.00  0.00     0.176 C 
HETATM   27  C   UNL     1      43.898 -20.435   2.186  1.00  0.00     0.031 C 
HETATM   28  C   UNL     1      43.837 -16.398   5.227  1.00  0.00     0.011 A 
ENDBRANCH  18  19
ENDBRANCH   2  18
TORSDOF 4
ENDMDL
MODEL 2
REMARK VINA RESULT:      -9.2      4.037      9.861
REMARK  4 active torsions:
REMARK  status: ('A' for Active; 'I' for Inactive)
REMARK    1  A    between atoms: C_2  and  C_3 
REMARK    2  A    between atoms: C_7  and  C_8 
REMARK       I    between atoms: C_8  and  N_9 
REMARK    3  A    between atoms: N_9  and  C_10 
REMARK    4  A    between atoms: C_10  and  C_11 
ROOT
HETATM    1  C   UNL     1      42.856 -12.855   3.069  1.00  0.00     0.270 C 
HETATM    2  N   UNL     1      43.271 -12.460   4.316  1.00  0.00    -0.351 N 
HETATM    3  O   UNL     1      42.375 -12.077   2.253  1.00  0.00    -0.266 OA
HETATM    4  H   UNL     1      43.745 -13.113   4.922  1.00  0.00     0.163 HD
ENDROOT
BRANCH   1   5
HETATM    5  C   UNL     1      43.016 -14.254   2.778  1.00  0.00     0.120 A 
HETATM    6  N   UNL     1      43.047 -14.708   1.490  1.00  0.00    -0.272 N 
HETATM    7  N   UNL     1      43.211 -16.033   1.376  1.00  0.00    -0.174 NA
HETATM    8  H   UNL     1      42.961 -14.147   0.647  1.00  0.00     0.189 HD
HETATM    9  C   UNL     1      43.282 -16.479   2.639  1.00  0.00     0.089 A 
HETATM   10  C   UNL     1      43.161 -15.390   3.551  1.00  0.00     0.071 A 
BRANCH   9  11
HETATM   11  C   UNL     1      43.468 -17.904   2.937  1.00  0.00    -0.005 A 
HETATM   12  C   UNL     1      43.078 -18.879   2.002  1.00  0.00     0.017 A 
HETATM   13  C   UNL     1      43.256 -20.240   2.265  1.00  0.00     0.043 A 
HETATM   14  C   UNL     1      43.823 -20.632   3.470  1.00  0.00     0.116 A 
HETATM   15  C   UNL     1      44.212 -19.691   4.414  1.00  0.00     0.043 A 
HETATM   16  F   UNL     1      43.995 -21.936   3.726  1.00  0.00    -0.206 F 
HETATM   17  C   UNL     1      44.036 -18.329   4.151  1.00  0.00     0.017 A 
ENDBRANCH   9  11
ENDBRANCH   1   5
BRANCH   2  18
HETATM   18  C   UNL     1      43.206 -11.078   4.734  1.00  0.00     0.161 C 
BRANCH  18  19
HETATM   19  C   UNL     1      43.719 -10.902   6.141  1.00  0.00    -0.040 A 
HETATM   20  C   UNL     1      42.916 -10.303   7.125  1.00  0.00     0.018 A 
HETATM   21  C   UNL     1      43.396 -10.100   8.427  1.00  0.00    -0.024 A 
HETATM   22  C   UNL     1      44.712 -10.462   8.730  1.00  0.00     0.075 A 
HETATM   23  C   UNL     1      42.513  -9.465   9.461  1.00  0.00     0.043 C 
HETATM   24  O   UNL     1      45.280 -10.286   9.965  1.00  0.00    -0.351 OA
HETATM   25  C   UNL     1      45.517 -11.062   7.765  1.00  0.00     0.038 A 
HETATM   26  C   UNL     1      44.582  -9.367  10.811  1.00  0.00     0.176 C 
HETATM   27  C   UNL     1      43.092  -9.660  10.855  1.00  0.00     0.031 C 
HETATM   28  C   UNL     1      45.027 -11.278   6.475  1.00  0.00     0.011 A 
ENDBRANCH  18  19
ENDBRANCH   2  18
TORSDOF 4
ENDMDL
MODEL 3
REMARK VINA RESULT:      -8.9      1.610      2.204
REMARK  4 active torsions:
REMARK  status: ('A' for Active; 'I' for Inactive)
REMARK    1  A    between atoms: C_2  and  C_3 
REMARK    2  A    between atoms: C_7  and  C_8 
REMARK       I    between atoms: C_8  and  N_9 
REMARK    3  A    between atoms: N_9  and  C_10 
REMARK    4  A    between atoms: C_10  and  C_11 
ROOT
HETATM    1  C   UNL     1      43.581 -11.829   4.095  1.00  0.00     0.270 C 
HETATM    2  N   UNL     1      42.737 -12.864   3.782  1.00  0.00    -0.351 N 
HETATM    3  O   UNL     1      44.539 -11.520   3.396  1.00  0.00    -0.266 OA
HETATM    4  H   UNL     1      41.909 -13.026   4.335  1.00  0.00     0.163 HD
ENDROOT
BRANCH   1   5
HETATM    5  C   UNL     1      43.274 -11.126   5.311  1.00  0.00     0.120 A 
HETATM    6  N   UNL     1      42.106 -10.429   5.448  1.00  0.00    -0.272 N 
HETATM    7  N   UNL     1      41.955  -9.835   6.638  1.00  0.00    -0.174 NA
HETATM    8  H   UNL     1      41.373 -10.332   4.751  1.00  0.00     0.189 HD
HETATM    9  C   UNL     1      43.072 -10.139   7.317  1.00  0.00     0.089 A 
HETATM   10  C   UNL     1      43.928 -10.948   6.515  1.00  0.00     0.071 A 
BRANCH   9  11
HETATM   11  C   UNL     1      43.284  -9.665   8.691  1.00  0.00    -0.005 A 
HETATM   12  C   UNL     1      44.481  -9.967   9.366  1.00  0.00     0.017 A 
HETATM   13  C   UNL     1      44.703  -9.517  10.670  1.00  0.00     0.043 A 
HETATM   14  C   UNL     1      43.726  -8.764  11.306  1.00  0.00     0.116 A 
HETATM   15  C   UNL     1      42.533  -8.456  10.665  1.00  0.00     0.043 A 
HETATM   16  F   UNL     1      43.935  -8.331  12.557  1.00  0.00    -0.206 F 
HETATM   17  C   UNL     1      42.310  -8.905   9.360  1.00  0.00     0.017 A 
ENDBRANCH   9  11
ENDBRANCH   1   5
BRANCH   2  18
HETATM   18  C   UNL     1      42.900 -13.637   2.572  1.00  0.00     0.161 C 
BRANCH  18  19
HETATM   19  C   UNL     1      43.077 -15.104   2.873  1.00  0.00    -0.040 A 
HETATM   20  C   UNL     1      43.257 -15.546   4.193  1.00  0.00     0.018 A 
HETATM   21  C   UNL     1      43.461 -16.904   4.480  1.00  0.00    -0.024 A 
HETATM   22  C   UNL     1      43.527 -17.819   3.426  1.00  0.00     0.075 A 
HETATM   23  C   UNL     1      43.641 -17.351   5.902  1.00  0.00     0.043 C 
HETATM   24  O   UNL     1      43.742 -19.162   3.601  1.00  0.00    -0.351 OA
HETATM   25  C   UNL     1      43.346 -17.394   2.112  1.00  0.00     0.038 A 
HETATM   26  C   UNL     1      44.272 -19.513   4.882  1.00  0.00     0.176 C 
HETATM   27  C   UNL     1      43.495 -18.862   6.013  1.00  0.00     0.031 C 
HETATM   28  C   UNL     1      43.125 -16.043   1.834  1.00  0.00     0.011 A 
ENDBRANCH  18  19
ENDBRANCH   2  18
TORSDOF 4
ENDMDL
MODEL 4
REMARK VINA RESULT:      -8.9      7.146     10.464
REMARK  4 active torsions:
REMARK  status: ('A' for Active; 'I' for Inactive)
REMARK    1  A    between atoms: C_2  and  C_3 
REMARK    2  A    between atoms: C_7  and  C_8 
REMARK       I    between atoms: C_8  and  N_9 
REMARK    3  A    between atoms: N_9  and  C_10 
REMARK    4  A    between atoms: C_10  and  C_11 
ROOT
HETATM    1  C   UNL     1      40.425 -14.277   0.853  1.00  0.00     0.270 C 
HETATM    2  N   UNL     1      40.393 -14.129  -0.510  1.00  0.00    -0.351 N 
HETATM    3  O   UNL     1      39.672 -13.667   1.604  1.00  0.00    -0.266 OA
HETATM    4  H   UNL     1      40.967 -14.717  -1.096  1.00  0.00     0.163 HD
ENDROOT
BRANCH   1   5
HETATM    5  C   UNL     1      41.411 -15.196   1.353  1.00  0.00     0.120 A 
HETATM    6  N   UNL     1      42.729 -15.072   1.012  1.00  0.00    -0.272 N 
HETATM    7  N   UNL     1      43.530 -15.994   1.562  1.00  0.00    -0.174 NA
HETATM    8  H   UNL     1      43.134 -14.366   0.404  1.00  0.00     0.189 HD
HETATM    9  C   UNL     1      42.710 -16.769   2.289  1.00  0.00     0.089 A 
HETATM   10  C   UNL     1      41.368 -16.300   2.182  1.00  0.00     0.071 A 
BRANCH   9  11
HETATM   11  C   UNL     1      43.221 -17.910   3.060  1.00  0.00    -0.005 A 
HETATM   12  C   UNL     1      43.557 -17.753   4.417  1.00  0.00     0.017 A 
HETATM   13  C   UNL     1      44.036 -18.830   5.167  1.00  0.00     0.043 A 
HETATM   14  C   UNL     1      44.186 -20.069   4.561  1.00  0.00     0.116 A 
HETATM   15  C   UNL     1      43.867 -20.251   3.221  1.00  0.00     0.043 A 
HETATM   16  F   UNL     1      44.646 -21.104   5.277  1.00  0.00    -0.206 F 
HETATM   17  C   UNL     1      43.386 -19.175   2.470  1.00  0.00     0.017 A 
ENDBRANCH   9  11
ENDBRANCH   1   5
BRANCH   2  18
HETATM   18  C   UNL     1      39.431 -13.267  -1.158  1.00  0.00     0.161 C 
BRANCH  18  19
HETATM   19  C   UNL     1      40.081 -12.017  -1.695  1.00  0.00    -0.040 A 
HETATM   20  C   UNL     1      40.645 -11.073  -0.822  1.00  0.00     0.018 A 
HETATM   21  C   UNL     1      41.219  -9.889  -1.307  1.00  0.00    -0.024 A 
HETATM   22  C   UNL     1      41.186  -9.632  -2.681  1.00  0.00     0.075 A 
HETATM   23  C   UNL     1      41.823  -8.902  -0.351  1.00  0.00     0.043 C 
HETATM   24  O   UNL     1      41.700  -8.496  -3.251  1.00  0.00    -0.351 OA
HETATM   25  C   UNL     1      40.633 -10.562  -3.558  1.00  0.00     0.038 A 
HETATM   26  C   UNL     1      41.927  -7.424  -2.331  1.00  0.00     0.176 C 
HETATM   27  C   UNL     1      42.680  -7.888  -1.097  1.00  0.00     0.031 C 
HETATM   28  C   UNL     1      40.079 -11.748  -3.070  1.00  0.00     0.011 A 
ENDBRANCH  18  19
ENDBRANCH   2  18
TORSDOF 4
ENDMDL
MODEL 5
REMARK VINA RESULT:      -8.7      4.110     10.008
REMARK  4 active torsions:
REMARK  status: ('A' for Active; 'I' for Inactive)
REMARK    1  A    between atoms: C_2  and  C_3 
REMARK    2  A    between atoms: C_7  and  C_8 
REMARK       I    between atoms: C_8  and  N_9 
REMARK    3  A    between atoms: N_9  and  C_10 
REMARK    4  A    between atoms: C_10  and  C_11 
ROOT
HETATM    1  C   UNL     1      43.994 -11.406   7.509  1.00  0.00     0.270 C 
HETATM    2  N   UNL     1      43.167 -10.316   7.401  1.00  0.00    -0.351 N 
HETATM    3  O   UNL     1      45.036 -11.385   8.155  1.00  0.00    -0.266 OA
HETATM    4  H   UNL     1      42.275 -10.402   6.937  1.00  0.00     0.163 HD
ENDROOT
BRANCH   1   5
HETATM    5  C   UNL     1      43.562 -12.583   6.806  1.00  0.00     0.120 A 
HETATM    6  N   UNL     1      42.234 -12.876   6.670  1.00  0.00    -0.272 N 
HETATM    7  N   UNL     1      41.985 -13.998   5.983  1.00  0.00    -0.174 NA
HETATM    8  H   UNL     1      41.453 -12.334   7.029  1.00  0.00     0.189 HD
HETATM    9  C   UNL     1      43.196 -14.477   5.658  1.00  0.00     0.089 A 
HETATM   10  C   UNL     1      44.214 -13.615   6.161  1.00  0.00     0.071 A 
BRANCH   9  11
HETATM   11  C   UNL     1      43.346 -15.716   4.885  1.00  0.00    -0.005 A 
HETATM   12  C   UNL     1      43.825 -16.883   5.505  1.00  0.00     0.017 A 
HETATM   13  C   UNL     1      43.966 -18.073   4.785  1.00  0.00     0.043 A 
HETATM   14  C   UNL     1      43.630 -18.099   3.439  1.00  0.00     0.116 A 
HETATM   15  C   UNL     1      43.159 -16.959   2.800  1.00  0.00     0.043 A 
HETATM   16  F   UNL     1      43.764 -19.237   2.746  1.00  0.00    -0.206 F 
HETATM   17  C   UNL     1      43.017 -15.768   3.520  1.00  0.00     0.017 A 
ENDBRANCH   9  11
ENDBRANCH   1   5
BRANCH   2  18
HETATM   18  C   UNL     1      43.453  -9.075   8.083  1.00  0.00     0.161 C 
BRANCH  18  19
HETATM   19  C   UNL     1      43.089  -9.151   9.544  1.00  0.00    -0.040 A 
HETATM   20  C   UNL     1      41.791  -9.510   9.940  1.00  0.00     0.018 A 
HETATM   21  C   UNL     1      41.431  -9.547  11.295  1.00  0.00    -0.024 A 
HETATM   22  C   UNL     1      42.373  -9.176  12.259  1.00  0.00     0.075 A 
HETATM   23  C   UNL     1      40.038  -9.945  11.690  1.00  0.00     0.043 C 
HETATM   24  O   UNL     1      42.113  -9.159  13.604  1.00  0.00    -0.351 OA
HETATM   25  C   UNL     1      43.666  -8.821  11.880  1.00  0.00     0.038 A 
HETATM   26  C   UNL     1      40.722  -9.173  13.938  1.00  0.00     0.176 C 
HETATM   27  C   UNL     1      39.970 -10.253  13.179  1.00  0.00     0.031 C 
HETATM   28  C   UNL     1      44.023  -8.804  10.530  1.00  0.00     0.011 A 
ENDBRANCH  18  19
ENDBRANCH   2  18
TORSDOF 4
ENDMDL
MODEL 6
REMARK VINA RESULT:      -8.7      4.128     10.603
REMARK  4 active torsions:
REMARK  status: ('A' for Active; 'I' for Inactive)
REMARK    1  A    between atoms: C_2  and  C_3 
REMARK    2  A    between atoms: C_7  and  C_8 
REMARK       I    between atoms: C_8  and  N_9 
REMARK    3  A    between atoms: N_9  and  C_10 
REMARK    4  A    between atoms: C_10  and  C_11 
ROOT
HETATM    1  C   UNL     1      44.368 -11.106   7.949  1.00  0.00     0.270 C 
HETATM    2  N   UNL     1      43.517 -10.132   8.407  1.00  0.00    -0.351 N 
HETATM    3  O   UNL     1      45.559 -11.133   8.235  1.00  0.00    -0.266 OA
HETATM    4  H   UNL     1      42.527 -10.198   8.223  1.00  0.00     0.163 HD
ENDROOT
BRANCH   1   5
HETATM    5  C   UNL     1      43.770 -12.100   7.098  1.00  0.00     0.120 A 
HETATM    6  N   UNL     1      42.448 -12.035   6.758  1.00  0.00    -0.272 N 
HETATM    7  N   UNL     1      42.037 -13.023   5.953  1.00  0.00    -0.174 NA
HETATM    8  H   UNL     1      41.780 -11.328   7.052  1.00  0.00     0.189 HD
HETATM    9  C   UNL     1      43.127 -13.782   5.758  1.00  0.00     0.089 A 
HETATM   10  C   UNL     1      44.238 -13.234   6.464  1.00  0.00     0.071 A 
BRANCH   9  11
HETATM   11  C   UNL     1      43.082 -14.981   4.912  1.00  0.00    -0.005 A 
HETATM   12  C   UNL     1      42.837 -14.863   3.532  1.00  0.00     0.017 A 
HETATM   13  C   UNL     1      42.800 -15.993   2.711  1.00  0.00     0.043 A 
HETATM   14  C   UNL     1      43.005 -17.248   3.267  1.00  0.00     0.116 A 
HETATM   15  C   UNL     1      43.243 -17.393   4.628  1.00  0.00     0.043 A 
HETATM   16  F   UNL     1      42.969 -18.333   2.483  1.00  0.00    -0.206 F 
HETATM   17  C   UNL     1      43.282 -16.263   5.450  1.00  0.00     0.017 A 
ENDBRANCH   9  11
ENDBRANCH   1   5
BRANCH   2  18
HETATM   18  C   UNL     1      43.967  -9.090   9.300  1.00  0.00     0.161 C 
BRANCH  18  19
HETATM   19  C   UNL     1      43.100  -9.002  10.530  1.00  0.00    -0.040 A 
HETATM   20  C   UNL     1      43.519  -8.264  11.648  1.00  0.00     0.018 A 
HETATM   21  C   UNL     1      42.737  -8.206  12.812  1.00  0.00    -0.024 A 
HETATM   22  C   UNL     1      41.545  -8.934  12.866  1.00  0.00     0.075 A 
HETATM   23  C   UNL     1      43.205  -7.402  13.990  1.00  0.00     0.043 C 
HETATM   24  O   UNL     1      40.723  -8.958  13.963  1.00  0.00    -0.351 OA
HETATM   25  C   UNL     1      41.116  -9.666  11.762  1.00  0.00     0.038 A 
HETATM   26  C   UNL     1      41.340  -8.512  15.174  1.00  0.00     0.176 C 
HETATM   27  C   UNL     1      42.070  -7.194  14.983  1.00  0.00     0.031 C 
HETATM   28  C   UNL     1      41.890  -9.705  10.600  1.00  0.00     0.011 A 
ENDBRANCH  18  19
ENDBRANCH   2  18
TORSDOF 4
ENDMDL
MODEL 7
REMARK VINA RESULT:      -8.5      4.047     10.098
REMARK  4 active torsions:
REMARK  status: ('A' for Active; 'I' for Inactive)
REMARK    1  A    between atoms: C_2  and  C_3 
REMARK    2  A    between atoms: C_7  and  C_8 
REMARK       I    between atoms: C_8  and  N_9 
REMARK    3  A    between atoms: N_9  and  C_10 
REMARK    4  A    between atoms: C_10  and  C_11 
ROOT
HETATM    1  C   UNL     1      43.032 -13.142   6.062  1.00  0.00     0.270 C 
HETATM    2  N   UNL     1      44.113 -12.307   6.196  1.00  0.00    -0.351 N 
HETATM    3  O   UNL     1      41.876 -12.735   6.058  1.00  0.00    -0.266 OA
HETATM    4  H   UNL     1      45.049 -12.671   6.102  1.00  0.00     0.163 HD
ENDROOT
BRANCH   1   5
HETATM    5  C   UNL     1      43.344 -14.540   5.930  1.00  0.00     0.120 A 
HETATM    6  N   UNL     1      43.887 -15.242   6.969  1.00  0.00    -0.272 N 
HETATM    7  N   UNL     1      44.113 -16.535   6.702  1.00  0.00    -0.174 NA
HETATM    8  H   UNL     1      44.123 -14.880   7.889  1.00  0.00     0.189 HD
HETATM    9  C   UNL     1      43.713 -16.696   5.431  1.00  0.00     0.089 A 
HETATM   10  C   UNL     1      43.224 -15.463   4.911  1.00  0.00     0.071 A 
BRANCH   9  11
HETATM   11  C   UNL     1      43.798 -18.001   4.763  1.00  0.00    -0.005 A 
HETATM   12  C   UNL     1      43.949 -19.176   5.522  1.00  0.00     0.017 A 
HETATM   13  C   UNL     1      44.023 -20.426   4.904  1.00  0.00     0.043 A 
HETATM   14  C   UNL     1      43.949 -20.508   3.520  1.00  0.00     0.116 A 
HETATM   15  C   UNL     1      43.806 -19.363   2.746  1.00  0.00     0.043 A 
HETATM   16  F   UNL     1      44.020 -21.705   2.924  1.00  0.00    -0.206 F 
HETATM   17  C   UNL     1      43.730 -18.112   3.364  1.00  0.00     0.017 A 
ENDBRANCH   9  11
ENDBRANCH   1   5
BRANCH   2  18
HETATM   18  C   UNL     1      43.956 -10.874   6.300  1.00  0.00     0.161 C 
BRANCH  18  19
HETATM   19  C   UNL     1      44.023 -10.413   7.735  1.00  0.00    -0.040 A 
HETATM   20  C   UNL     1      42.860 -10.010   8.411  1.00  0.00     0.018 A 
HETATM   21  C   UNL     1      42.916  -9.544   9.733  1.00  0.00    -0.024 A 
HETATM   22  C   UNL     1      44.158  -9.441  10.365  1.00  0.00     0.075 A 
HETATM   23  C   UNL     1      41.655  -9.129  10.434  1.00  0.00     0.043 C 
HETATM   24  O   UNL     1      44.319  -8.979  11.645  1.00  0.00    -0.351 OA
HETATM   25  C   UNL     1      45.319  -9.842   9.706  1.00  0.00     0.038 A 
HETATM   26  C   UNL     1      43.198  -8.254  12.158  1.00  0.00     0.176 C 
HETATM   27  C   UNL     1      41.893  -8.998  11.932  1.00  0.00     0.031 C 
HETATM   28  C   UNL     1      45.254 -10.322   8.396  1.00  0.00     0.011 A 
ENDBRANCH  18  19
ENDBRANCH   2  18
TORSDOF 4
ENDMDL
MODEL 8
REMARK VINA RESULT:      -8.5      4.127     10.089
REMARK  4 active torsions:
REMARK  status: ('A' for Active; 'I' for Inactive)
REMARK    1  A    between atoms: C_2  and  C_3 
REMARK    2  A    between atoms: C_7  and  C_8 
REMARK       I    between atoms: C_8  and  N_9 
REMARK    3  A    between atoms: N_9  and  C_10 
REMARK    4  A    between atoms: C_10  and  C_11 
ROOT
HETATM    1  C   UNL     1      42.712 -11.356   6.445  1.00  0.00     0.270 C 
HETATM    2  N   UNL     1      41.459 -10.944   6.825  1.00  0.00    -0.351 N 
HETATM    3  O   UNL     1      43.659 -10.585   6.340  1.00  0.00    -0.266 OA
HETATM    4  H   UNL     1      40.732 -11.624   6.988  1.00  0.00     0.163 HD
ENDROOT
BRANCH   1   5
HETATM    5  C   UNL     1      42.845 -12.761   6.169  1.00  0.00     0.120 A 
HETATM    6  N   UNL     1      42.736 -13.689   7.165  1.00  0.00    -0.272 N 
HETATM    7  N   UNL     1      42.873 -14.957   6.755  1.00  0.00    -0.174 NA
HETATM    8  H   UNL     1      42.564 -13.505   8.150  1.00  0.00     0.189 HD
HETATM    9  C   UNL     1      43.092 -14.867   5.434  1.00  0.00     0.089 A 
HETATM   10  C   UNL     1      43.084 -13.501   5.028  1.00  0.00     0.071 A 
BRANCH   9  11
HETATM   11  C   UNL     1      43.291 -16.066   4.610  1.00  0.00    -0.005 A 
HETATM   12  C   UNL     1      44.045 -17.146   5.102  1.00  0.00     0.017 A 
HETATM   13  C   UNL     1      44.237 -18.297   4.334  1.00  0.00     0.043 A 
HETATM   14  C   UNL     1      43.677 -18.372   3.067  1.00  0.00     0.116 A 
HETATM   15  C   UNL     1      42.932 -17.318   2.553  1.00  0.00     0.043 A 
HETATM   16  F   UNL     1      43.859 -19.474   2.327  1.00  0.00    -0.206 F 
HETATM   17  C   UNL     1      42.738 -16.166   3.322  1.00  0.00     0.017 A 
ENDBRANCH   9  11
ENDBRANCH   1   5
BRANCH   2  18
HETATM   18  C   UNL     1      41.185  -9.569   7.170  1.00  0.00     0.161 C 
BRANCH  18  19
HETATM   19  C   UNL     1      41.145  -9.370   8.664  1.00  0.00    -0.040 A 
HETATM   20  C   UNL     1      42.323  -9.101   9.380  1.00  0.00     0.018 A 
HETATM   21  C   UNL     1      42.304  -8.952  10.775  1.00  0.00    -0.024 A 
HETATM   22  C   UNL     1      41.097  -9.119  11.460  1.00  0.00     0.075 A 
HETATM   23  C   UNL     1      43.576  -8.655  11.514  1.00  0.00     0.043 C 
HETATM   24  O   UNL     1      40.978  -9.014  12.821  1.00  0.00    -0.351 OA
HETATM   25  C   UNL     1      39.921  -9.383  10.760  1.00  0.00     0.038 A 
HETATM   26  C   UNL     1      42.217  -9.104  13.531  1.00  0.00     0.176 C 
HETATM   27  C   UNL     1      43.277  -8.194  12.933  1.00  0.00     0.031 C 
HETATM   28  C   UNL     1      39.943  -9.512   9.370  1.00  0.00     0.011 A 
ENDBRANCH  18  19
ENDBRANCH   2  18
TORSDOF 4
ENDMDL
MODEL 9
REMARK VINA RESULT:      -8.3      1.588      2.442
REMARK  4 active torsions:
REMARK  status: ('A' for Active; 'I' for Inactive)
REMARK    1  A    between atoms: C_2  and  C_3 
REMARK    2  A    between atoms: C_7  and  C_8 
REMARK       I    between atoms: C_8  and  N_9 
REMARK    3  A    between atoms: N_9  and  C_10 
REMARK    4  A    between atoms: C_10  and  C_11 
ROOT
HETATM    1  C   UNL     1      42.432 -10.892   6.578  1.00  0.00     0.270 C 
HETATM    2  N   UNL     1      42.595 -12.250   6.459  1.00  0.00    -0.351 N 
HETATM    3  O   UNL     1      42.078 -10.183   5.643  1.00  0.00    -0.266 OA
HETATM    4  H   UNL     1      42.797 -12.808   7.275  1.00  0.00     0.163 HD
ENDROOT
BRANCH   1   5
HETATM    5  C   UNL     1      42.711 -10.347   7.879  1.00  0.00     0.120 A 
HETATM    6  N   UNL     1      43.631 -10.929   8.705  1.00  0.00    -0.272 N 
HETATM    7  N   UNL     1      43.791 -10.304   9.879  1.00  0.00    -0.174 NA
HETATM    8  H   UNL     1      44.183 -11.760   8.509  1.00  0.00     0.189 HD
HETATM    9  C   UNL     1      42.935  -9.272   9.836  1.00  0.00     0.089 A 
HETATM   10  C   UNL     1      42.236  -9.266   8.594  1.00  0.00     0.071 A 
BRANCH   9  11
HETATM   11  C   UNL     1      42.817  -8.330  10.957  1.00  0.00    -0.005 A 
HETATM   12  C   UNL     1      42.297  -7.041  10.746  1.00  0.00     0.017 A 
HETATM   13  C   UNL     1      42.169  -6.136  11.803  1.00  0.00     0.043 A 
HETATM   14  C   UNL     1      42.565  -6.516  13.077  1.00  0.00     0.116 A 
HETATM   15  C   UNL     1      43.087  -7.782  13.314  1.00  0.00     0.043 A 
HETATM   16  F   UNL     1      42.444  -5.651  14.093  1.00  0.00    -0.206 F 
HETATM   17  C   UNL     1      43.214  -8.689  12.257  1.00  0.00     0.017 A 
ENDBRANCH   9  11
ENDBRANCH   1   5
BRANCH   2  18
HETATM   18  C   UNL     1      42.315 -12.942   5.222  1.00  0.00     0.161 C 
BRANCH  18  19
HETATM   19  C   UNL     1      42.929 -14.319   5.208  1.00  0.00    -0.040 A 
HETATM   20  C   UNL     1      42.750 -15.170   4.106  1.00  0.00     0.018 A 
HETATM   21  C   UNL     1      43.285 -16.467   4.098  1.00  0.00    -0.024 A 
HETATM   22  C   UNL     1      43.969 -16.927   5.227  1.00  0.00     0.075 A 
HETATM   23  C   UNL     1      43.086 -17.352   2.902  1.00  0.00     0.043 C 
HETATM   24  O   UNL     1      44.510 -18.182   5.325  1.00  0.00    -0.351 OA
HETATM   25  C   UNL     1      44.157 -16.090   6.325  1.00  0.00     0.038 A 
HETATM   26  C   UNL     1      44.007 -19.119   4.367  1.00  0.00     0.176 C 
HETATM   27  C   UNL     1      44.024 -18.549   2.959  1.00  0.00     0.031 C 
HETATM   28  C   UNL     1      43.638 -14.794   6.320  1.00  0.00     0.011 A 
ENDBRANCH  18  19
ENDBRANCH   2  18
TORSDOF 4
ENDMDL
MODEL 10
REMARK VINA RESULT:      -8.1      4.017      9.871
REMARK  4 active torsions:
REMARK  status: ('A' for Active; 'I' for Inactive)
REMARK    1  A    between atoms: C_2  and  C_3 
REMARK    2  A    between atoms: C_7  and  C_8 
REMARK       I    between atoms: C_8  and  N_9 
REMARK    3  A    between atoms: N_9  and  C_10 
REMARK    4  A    between atoms: C_10  and  C_11 
ROOT
HETATM    1  C   UNL     1      42.475 -12.548   4.537  1.00  0.00     0.270 C 
HETATM    2  N   UNL     1      41.638 -12.109   5.531  1.00  0.00    -0.351 N 
HETATM    3  O   UNL     1      42.882 -11.816   3.643  1.00  0.00    -0.266 OA
HETATM    4  H   UNL     1      41.400 -12.720   6.299  1.00  0.00     0.163 HD
ENDROOT
BRANCH   1   5
HETATM    5  C   UNL     1      42.843 -13.937   4.605  1.00  0.00     0.120 A 
HETATM    6  N   UNL     1      43.362 -14.473   5.750  1.00  0.00    -0.272 N 
HETATM    7  N   UNL     1      43.647 -15.779   5.666  1.00  0.00    -0.174 NA
HETATM    8  H   UNL     1      43.539 -13.985   6.623  1.00  0.00     0.189 HD
HETATM    9  C   UNL     1      43.314 -16.122   4.412  1.00  0.00     0.089 A 
HETATM   10  C   UNL     1      42.806 -14.989   3.712  1.00  0.00     0.071 A 
BRANCH   9  11
HETATM   11  C   UNL     1      43.479 -17.499   3.927  1.00  0.00    -0.005 A 
HETATM   12  C   UNL     1      43.992 -18.492   4.780  1.00  0.00     0.017 A 
HETATM   13  C   UNL     1      44.146 -19.809   4.337  1.00  0.00     0.043 A 
HETATM   14  C   UNL     1      43.791 -20.137   3.037  1.00  0.00     0.116 A 
HETATM   15  C   UNL     1      43.287 -19.174   2.171  1.00  0.00     0.043 A 
HETATM   16  F   UNL     1      43.939 -21.397   2.609  1.00  0.00    -0.206 F 
HETATM   17  C   UNL     1      43.131 -17.857   2.614  1.00  0.00     0.017 A 
ENDBRANCH   9  11
ENDBRANCH   1   5
BRANCH   2  18
HETATM   18  C   UNL     1      41.213 -10.731   5.613  1.00  0.00     0.161 C 
BRANCH  18  19
HETATM   19  C   UNL     1      41.693 -10.078   6.885  1.00  0.00    -0.040 A 
HETATM   20  C   UNL     1      42.911 -10.461   7.469  1.00  0.00     0.018 A 
HETATM   21  C   UNL     1      43.349  -9.888   8.672  1.00  0.00    -0.024 A 
HETATM   22  C   UNL     1      42.533  -8.954   9.316  1.00  0.00     0.075 A 
HETATM   23  C   UNL     1      44.660 -10.310   9.269  1.00  0.00     0.043 C 
HETATM   24  O   UNL     1      42.862  -8.353  10.503  1.00  0.00    -0.351 OA
HETATM   25  C   UNL     1      41.324  -8.562   8.745  1.00  0.00     0.038 A 
HETATM   26  C   UNL     1      43.898  -9.016  11.234  1.00  0.00     0.176 C 
HETATM   27  C   UNL     1      45.095  -9.334  10.354  1.00  0.00     0.031 C 
HETATM   28  C   UNL     1      40.903  -9.123   7.537  1.00  0.00     0.011 A 
ENDBRANCH  18  19
ENDBRANCH   2  18
TORSDOF 4
ENDMDL
