MODEL 1
REMARK VINA RESULT:      -8.2      0.000      0.000
REMARK  3 active torsions:
REMARK  status: ('A' for Active; 'I' for Inactive)
REMARK    1  A    between atoms: C_4  and  N_5 
REMARK       I    between atoms: N_5  and  C_6 
REMARK    2  A    between atoms: C_6  and  C_7 
REMARK    3  A    between atoms: C_7  and  C_8 
ROOT
HETATM    1  C   UNL     1      41.520 -15.986   5.414  1.00  0.00     0.286 C 
HETATM    2  N   UNL     1      42.375 -15.008   4.615  1.00  0.00    -0.056 N 
HETATM    3  H   UNL     1      42.949 -14.505   5.327  1.00  0.00     0.278 HD
HETATM    4  H   UNL     1      43.046 -15.502   4.015  1.00  0.00     0.278 HD
HETATM    5  C   UNL     1      41.605 -13.973   3.843  1.00  0.00     0.209 C 
HETATM    6  C   UNL     1      40.611 -13.254   4.788  1.00  0.00     0.115 C 
HETATM    7  N   UNL     1      39.821 -14.180   5.598  1.00  0.00    -0.353 N 
HETATM    8  C   UNL     1      40.357 -15.311   6.168  1.00  0.00     0.249 C 
HETATM    9  O   UNL     1      39.837 -15.799   7.165  1.00  0.00    -0.271 OA
HETATM   10  C   UNL     1      40.934 -14.620   2.629  1.00  0.00     0.035 C 
HETATM   11  C   UNL     1      40.068 -13.612   1.879  1.00  0.00     0.002 C 
HETATM   12  C   UNL     1      39.038 -12.970   2.804  1.00  0.00     0.002 C 
HETATM   13  C   UNL     1      39.700 -12.300   4.007  1.00  0.00     0.027 C 
HETATM   14  H   UNL     1      39.080 -13.784   6.173  1.00  0.00     0.163 HD
ENDROOT
BRANCH   1  15
HETATM   15  C   UNL     1      42.374 -16.849   6.356  1.00  0.00     0.146 C 
BRANCH  15  16
HETATM   16  C   UNL     1      43.844 -16.695   6.072  1.00  0.00     0.224 C 
HETATM   17  N   UNL     1      44.508 -17.470   5.178  1.00  0.00    -0.327 N 
HETATM   18  H   UNL     1      45.490 -17.211   5.127  1.00  0.00     0.169 HD
HETATM   19  O   UNL     1      44.456 -15.766   6.620  1.00  0.00    -0.273 OA
BRANCH  17  20
HETATM   20  C   UNL     1      44.143 -18.526   4.317  1.00  0.00     0.034 A 
HETATM   21  C   UNL     1      44.234 -19.888   4.600  1.00  0.00     0.029 A 
HETATM   22  C   UNL     1      43.842 -20.843   3.652  1.00  0.00     0.002 A 
HETATM   23  C   UNL     1      43.343 -20.448   2.415  1.00  0.00     0.000 A 
HETATM   24  C   UNL     1      43.233 -19.095   2.123  1.00  0.00     0.002 A 
HETATM   25  C   UNL     1      43.632 -18.143   3.066  1.00  0.00     0.029 A 
ENDBRANCH  17  20
ENDBRANCH  15  16
ENDBRANCH   1  15
TORSDOF 3
ENDMDL
MODEL 2
REMARK VINA RESULT:      -7.7      1.628      2.028
REMARK  3 active torsions:
REMARK  status: ('A' for Active; 'I' for Inactive)
REMARK    1  A    between atoms: C_4  and  N_5 
REMARK       I    between atoms: N_5  and  C_6 
REMARK    2  A    between atoms: C_6  and  C_7 
REMARK    3  A    between atoms: C_7  and  C_8 
ROOT
HETATM    1  C   UNL     1      41.938 -15.397   5.651  1.00  0.00     0.286 C 
HETATM    2  N   UNL     1      43.289 -14.690   5.628  1.00  0.00    -0.056 N 
HETATM    3  H   UNL     1      43.630 -14.725   6.613  1.00  0.00     0.278 HD
HETATM    4  H   UNL     1      43.977 -15.217   5.076  1.00  0.00     0.278 HD
HETATM    5  C   UNL     1      43.245 -13.244   5.216  1.00  0.00     0.209 C 
HETATM    6  C   UNL     1      42.199 -12.492   6.076  1.00  0.00     0.115 C 
HETATM    7  N   UNL     1      40.914 -13.186   6.149  1.00  0.00    -0.353 N 
HETATM    8  C   UNL     1      40.813 -14.551   6.282  1.00  0.00     0.249 C 
HETATM    9  O   UNL     1      39.808 -15.045   6.780  1.00  0.00    -0.271 OA
HETATM   10  C   UNL     1      42.989 -13.138   3.712  1.00  0.00     0.035 C 
HETATM   11  C   UNL     1      42.845 -11.681   3.282  1.00  0.00     0.002 C 
HETATM   12  C   UNL     1      41.753 -10.973   4.080  1.00  0.00     0.002 C 
HETATM   13  C   UNL     1      42.013 -11.052   5.584  1.00  0.00     0.027 C 
HETATM   14  H   UNL     1      40.148 -12.705   6.617  1.00  0.00     0.163 HD
ENDROOT
BRANCH   1  15
HETATM   15  C   UNL     1      42.033 -16.784   6.306  1.00  0.00     0.146 C 
BRANCH  15  16
HETATM   16  C   UNL     1      43.462 -17.186   6.550  1.00  0.00     0.224 C 
HETATM   17  N   UNL     1      44.158 -17.988   5.706  1.00  0.00    -0.327 N 
HETATM   18  H   UNL     1      45.105 -18.142   6.045  1.00  0.00     0.169 HD
HETATM   19  O   UNL     1      44.053 -16.698   7.525  1.00  0.00    -0.273 OA
BRANCH  17  20
HETATM   20  C   UNL     1      43.867 -18.635   4.487  1.00  0.00     0.034 A 
HETATM   21  C   UNL     1      43.443 -18.022   3.309  1.00  0.00     0.029 A 
HETATM   22  C   UNL     1      43.180 -18.782   2.162  1.00  0.00     0.002 A 
HETATM   23  C   UNL     1      43.351 -20.163   2.174  1.00  0.00     0.000 A 
HETATM   24  C   UNL     1      43.786 -20.788   3.335  1.00  0.00     0.002 A 
HETATM   25  C   UNL     1      44.040 -20.029   4.482  1.00  0.00     0.029 A 
ENDBRANCH  17  20
ENDBRANCH  15  16
ENDBRANCH   1  15
TORSDOF 3
ENDMDL
MODEL 3
REMARK VINA RESULT:      -7.7      2.742      3.737
REMARK  3 active torsions:
REMARK  status: ('A' for Active; 'I' for Inactive)
REMARK    1  A    between atoms: C_4  and  N_5 
REMARK       I    between atoms: N_5  and  C_6 
REMARK    2  A    between atoms: C_6  and  C_7 
REMARK    3  A    between atoms: C_7  and  C_8 
ROOT
HETATM    1  C   UNL     1      40.226 -15.043   1.927  1.00  0.00     0.286 C 
HETATM    2  N   UNL     1      41.105 -14.948   0.685  1.00  0.00    -0.056 N 
HETATM    3  H   UNL     1      41.964 -14.445   0.998  1.00  0.00     0.278 HD
HETATM    4  H   UNL     1      41.421 -15.876   0.379  1.00  0.00     0.278 HD
HETATM    5  C   UNL     1      40.515 -14.165  -0.456  1.00  0.00     0.209 C 
HETATM    6  C   UNL     1      40.056 -12.776   0.052  1.00  0.00     0.115 C 
HETATM    7  N   UNL     1      39.255 -12.849   1.273  1.00  0.00    -0.353 N 
HETATM    8  C   UNL     1      39.550 -13.709   2.304  1.00  0.00     0.249 C 
HETATM    9  O   UNL     1      39.176 -13.451   3.443  1.00  0.00    -0.271 OA
HETATM   10  C   UNL     1      39.396 -14.973  -1.118  1.00  0.00     0.035 C 
HETATM   11  C   UNL     1      38.715 -14.164  -2.219  1.00  0.00     0.002 C 
HETATM   12  C   UNL     1      38.194 -12.832  -1.686  1.00  0.00     0.002 C 
HETATM   13  C   UNL     1      39.309 -12.007  -1.044  1.00  0.00     0.027 C 
HETATM   14  H   UNL     1      38.838 -11.984   1.612  1.00  0.00     0.163 HD
ENDROOT
BRANCH   1  15
HETATM   15  C   UNL     1      40.988 -15.644   3.118  1.00  0.00     0.146 C 
BRANCH  15  16
HETATM   16  C   UNL     1      42.443 -15.258   3.099  1.00  0.00     0.224 C 
HETATM   17  N   UNL     1      43.448 -16.169   3.095  1.00  0.00    -0.327 N 
HETATM   18  H   UNL     1      44.356 -15.711   3.079  1.00  0.00     0.169 HD
HETATM   19  O   UNL     1      42.733 -14.056   3.001  1.00  0.00    -0.273 OA
BRANCH  17  20
HETATM   20  C   UNL     1      43.510 -17.578   3.100  1.00  0.00     0.034 A 
HETATM   21  C   UNL     1      43.085 -18.426   2.078  1.00  0.00     0.029 A 
HETATM   22  C   UNL     1      43.196 -19.817   2.211  1.00  0.00     0.002 A 
HETATM   23  C   UNL     1      43.745 -20.376   3.360  1.00  0.00     0.000 A 
HETATM   24  C   UNL     1      44.185 -19.545   4.382  1.00  0.00     0.002 A 
HETATM   25  C   UNL     1      44.066 -18.158   4.252  1.00  0.00     0.029 A 
ENDBRANCH  17  20
ENDBRANCH  15  16
ENDBRANCH   1  15
TORSDOF 3
ENDMDL
MODEL 4
REMARK VINA RESULT:      -7.5      2.152      3.507
REMARK  3 active torsions:
REMARK  status: ('A' for Active; 'I' for Inactive)
REMARK    1  A    between atoms: C_4  and  N_5 
REMARK       I    between atoms: N_5  and  C_6 
REMARK    2  A    between atoms: C_6  and  C_7 
REMARK    3  A    between atoms: C_7  and  C_8 
ROOT
HETATM    1  C   UNL     1      42.060 -13.567   3.066  1.00  0.00     0.286 C 
HETATM    2  N   UNL     1      40.562 -13.814   3.211  1.00  0.00    -0.056 N 
HETATM    3  H   UNL     1      40.482 -14.789   3.576  1.00  0.00     0.278 HD
HETATM    4  H   UNL     1      40.152 -13.211   3.934  1.00  0.00     0.278 HD
HETATM    5  C   UNL     1      39.778 -13.747   1.930  1.00  0.00     0.209 C 
HETATM    6  C   UNL     1      40.431 -14.673   0.873  1.00  0.00     0.115 C 
HETATM    7  N   UNL     1      41.876 -14.483   0.762  1.00  0.00    -0.353 N 
HETATM    8  C   UNL     1      42.686 -14.287   1.855  1.00  0.00     0.249 C 
HETATM    9  O   UNL     1      43.876 -14.577   1.795  1.00  0.00    -0.271 OA
HETATM   10  C   UNL     1      39.652 -12.293   1.472  1.00  0.00     0.035 C 
HETATM   11  C   UNL     1      38.942 -12.203   0.124  1.00  0.00     0.002 C 
HETATM   12  C   UNL     1      39.644 -13.055  -0.930  1.00  0.00     0.002 C 
HETATM   13  C   UNL     1      39.753 -14.515  -0.492  1.00  0.00     0.027 C 
HETATM   14  H   UNL     1      42.359 -14.988   0.021  1.00  0.00     0.163 HD
ENDROOT
BRANCH   1  15
HETATM   15  C   UNL     1      42.817 -13.888   4.364  1.00  0.00     0.146 C 
BRANCH  15  16
HETATM   16  C   UNL     1      42.001 -14.755   5.284  1.00  0.00     0.224 C 
HETATM   17  N   UNL     1      42.065 -16.110   5.273  1.00  0.00    -0.327 N 
HETATM   18  H   UNL     1      41.440 -16.512   5.967  1.00  0.00     0.169 HD
HETATM   19  O   UNL     1      41.298 -14.203   6.145  1.00  0.00    -0.273 OA
BRANCH  17  20
HETATM   20  C   UNL     1      42.796 -17.062   4.532  1.00  0.00     0.034 A 
HETATM   21  C   UNL     1      43.930 -17.749   4.964  1.00  0.00     0.029 A 
HETATM   22  C   UNL     1      44.571 -18.670   4.124  1.00  0.00     0.002 A 
HETATM   23  C   UNL     1      44.079 -18.924   2.847  1.00  0.00     0.000 A 
HETATM   24  C   UNL     1      42.943 -18.258   2.407  1.00  0.00     0.002 A 
HETATM   25  C   UNL     1      42.309 -17.334   3.242  1.00  0.00     0.029 A 
ENDBRANCH  17  20
ENDBRANCH  15  16
ENDBRANCH   1  15
TORSDOF 3
ENDMDL
MODEL 5
REMARK VINA RESULT:      -7.3      2.424      3.264
REMARK  3 active torsions:
REMARK  status: ('A' for Active; 'I' for Inactive)
REMARK    1  A    between atoms: C_4  and  N_5 
REMARK       I    between atoms: N_5  and  C_6 
REMARK    2  A    between atoms: C_6  and  C_7 
REMARK    3  A    between atoms: C_7  and  C_8 
ROOT
HETATM    1  C   UNL     1      41.337 -14.717   4.214  1.00  0.00     0.286 C 
HETATM    2  N   UNL     1      42.663 -14.115   3.759  1.00  0.00    -0.056 N 
HETATM    3  H   UNL     1      43.353 -14.894   3.832  1.00  0.00     0.278 HD
HETATM    4  H   UNL     1      42.635 -13.859   2.765  1.00  0.00     0.278 HD
HETATM    5  C   UNL     1      43.172 -12.981   4.606  1.00  0.00     0.209 C 
HETATM    6  C   UNL     1      43.197 -13.415   6.092  1.00  0.00     0.115 C 
HETATM    7  N   UNL     1      41.950 -14.041   6.527  1.00  0.00    -0.353 N 
HETATM    8  C   UNL     1      41.247 -14.922   5.739  1.00  0.00     0.249 C 
HETATM    9  O   UNL     1      40.502 -15.747   6.258  1.00  0.00    -0.271 OA
HETATM   10  C   UNL     1      42.335 -11.725   4.351  1.00  0.00     0.035 C 
HETATM   11  C   UNL     1      42.769 -10.584   5.266  1.00  0.00     0.002 C 
HETATM   12  C   UNL     1      42.711 -10.998   6.734  1.00  0.00     0.002 C 
HETATM   13  C   UNL     1      43.563 -12.238   7.004  1.00  0.00     0.027 C 
HETATM   14  H   UNL     1      41.858 -14.265   7.516  1.00  0.00     0.163 HD
ENDROOT
BRANCH   1  15
HETATM   15  C   UNL     1      41.009 -16.011   3.452  1.00  0.00     0.146 C 
BRANCH  15  16
HETATM   16  C   UNL     1      41.835 -16.144   2.201  1.00  0.00     0.224 C 
HETATM   17  N   UNL     1      42.772 -17.110   2.034  1.00  0.00    -0.327 N 
HETATM   18  H   UNL     1      43.219 -17.032   1.123  1.00  0.00     0.169 HD
HETATM   19  O   UNL     1      41.590 -15.385   1.251  1.00  0.00    -0.273 OA
BRANCH  17  20
HETATM   20  C   UNL     1      43.248 -18.177   2.823  1.00  0.00     0.034 A 
HETATM   21  C   UNL     1      43.741 -18.085   4.124  1.00  0.00     0.029 A 
HETATM   22  C   UNL     1      44.191 -19.227   4.800  1.00  0.00     0.002 A 
HETATM   23  C   UNL     1      44.141 -20.476   4.190  1.00  0.00     0.000 A 
HETATM   24  C   UNL     1      43.640 -20.588   2.900  1.00  0.00     0.002 A 
HETATM   25  C   UNL     1      43.199 -19.447   2.223  1.00  0.00     0.029 A 
ENDBRANCH  17  20
ENDBRANCH  15  16
ENDBRANCH   1  15
TORSDOF 3
ENDMDL
MODEL 6
REMARK VINA RESULT:      -7.3      3.283      4.561
REMARK  3 active torsions:
REMARK  status: ('A' for Active; 'I' for Inactive)
REMARK    1  A    between atoms: C_4  and  N_5 
REMARK       I    between atoms: N_5  and  C_6 
REMARK    2  A    between atoms: C_6  and  C_7 
REMARK    3  A    between atoms: C_7  and  C_8 
ROOT
HETATM    1  C   UNL     1      43.210 -12.898   3.858  1.00  0.00     0.286 C 
HETATM    2  N   UNL     1      42.676 -13.414   5.190  1.00  0.00    -0.056 N 
HETATM    3  H   UNL     1      41.652 -13.548   5.038  1.00  0.00     0.278 HD
HETATM    4  H   UNL     1      43.050 -14.344   5.408  1.00  0.00     0.278 HD
HETATM    5  C   UNL     1      42.839 -12.470   6.350  1.00  0.00     0.209 C 
HETATM    6  C   UNL     1      42.259 -11.083   5.975  1.00  0.00     0.115 C 
HETATM    7  N   UNL     1      42.723 -10.601   4.675  1.00  0.00    -0.353 N 
HETATM    8  C   UNL     1      42.853 -11.424   3.581  1.00  0.00     0.249 C 
HETATM    9  O   UNL     1      42.797 -10.953   2.451  1.00  0.00    -0.271 OA
HETATM   10  C   UNL     1      44.307 -12.422   6.779  1.00  0.00     0.035 C 
HETATM   11  C   UNL     1      44.518 -11.400   7.893  1.00  0.00     0.002 C 
HETATM   12  C   UNL     1      44.017 -10.019   7.480  1.00  0.00     0.002 C 
HETATM   13  C   UNL     1      42.545 -10.052   7.073  1.00  0.00     0.027 C 
HETATM   14  H   UNL     1      42.460  -9.655   4.406  1.00  0.00     0.163 HD
ENDROOT
BRANCH   1  15
HETATM   15  C   UNL     1      42.793 -13.806   2.689  1.00  0.00     0.146 C 
BRANCH  15  16
HETATM   16  C   UNL     1      41.509 -14.533   2.981  1.00  0.00     0.224 C 
HETATM   17  N   UNL     1      41.467 -15.835   3.362  1.00  0.00    -0.327 N 
HETATM   18  H   UNL     1      40.509 -16.141   3.512  1.00  0.00     0.169 HD
HETATM   19  O   UNL     1      40.448 -13.891   2.950  1.00  0.00    -0.273 OA
BRANCH  17  20
HETATM   20  C   UNL     1      42.437 -16.831   3.596  1.00  0.00     0.034 A 
HETATM   21  C   UNL     1      43.188 -16.994   4.759  1.00  0.00     0.029 A 
HETATM   22  C   UNL     1      44.130 -18.026   4.864  1.00  0.00     0.002 A 
HETATM   23  C   UNL     1      44.324 -18.916   3.812  1.00  0.00     0.000 A 
HETATM   24  C   UNL     1      43.575 -18.776   2.651  1.00  0.00     0.002 A 
HETATM   25  C   UNL     1      42.641 -17.741   2.545  1.00  0.00     0.029 A 
ENDBRANCH  17  20
ENDBRANCH  15  16
ENDBRANCH   1  15
TORSDOF 3
ENDMDL
MODEL 7
REMARK VINA RESULT:      -7.3      2.296      6.102
REMARK  3 active torsions:
REMARK  status: ('A' for Active; 'I' for Inactive)
REMARK    1  A    between atoms: C_4  and  N_5 
REMARK       I    between atoms: N_5  and  C_6 
REMARK    2  A    between atoms: C_6  and  C_7 
REMARK    3  A    between atoms: C_7  and  C_8 
ROOT
HETATM    1  C   UNL     1      42.097 -16.762   5.980  1.00  0.00     0.286 C 
HETATM    2  N   UNL     1      43.574 -17.079   6.188  1.00  0.00    -0.056 N 
HETATM    3  H   UNL     1      44.072 -16.181   6.007  1.00  0.00     0.278 HD
HETATM    4  H   UNL     1      43.771 -17.316   7.167  1.00  0.00     0.278 HD
HETATM    5  C   UNL     1      44.143 -18.107   5.249  1.00  0.00     0.209 C 
HETATM    6  C   UNL     1      43.823 -17.707   3.787  1.00  0.00     0.115 C 
HETATM    7  N   UNL     1      42.420 -17.350   3.586  1.00  0.00    -0.353 N 
HETATM    8  C   UNL     1      41.704 -16.610   4.497  1.00  0.00     0.249 C 
HETATM    9  O   UNL     1      40.731 -15.961   4.129  1.00  0.00    -0.271 OA
HETATM   10  C   UNL     1      43.631 -19.498   5.627  1.00  0.00     0.035 C 
HETATM   11  C   UNL     1      44.117 -20.549   4.632  1.00  0.00     0.002 C 
HETATM   12  C   UNL     1      43.724 -20.185   3.204  1.00  0.00     0.002 C 
HETATM   13  C   UNL     1      44.252 -18.806   2.808  1.00  0.00     0.027 C 
HETATM   14  H   UNL     1      42.115 -17.169   2.631  1.00  0.00     0.163 HD
ENDROOT
BRANCH   1  15
HETATM   15  C   UNL     1      41.655 -15.544   6.806  1.00  0.00     0.146 C 
BRANCH  15  16
HETATM   16  C   UNL     1      42.818 -14.903   7.516  1.00  0.00     0.224 C 
HETATM   17  N   UNL     1      43.387 -13.743   7.102  1.00  0.00    -0.327 N 
HETATM   18  H   UNL     1      44.155 -13.474   7.712  1.00  0.00     0.169 HD
HETATM   19  O   UNL     1      43.220 -15.417   8.571  1.00  0.00    -0.273 OA
BRANCH  17  20
HETATM   20  C   UNL     1      43.149 -12.845   6.041  1.00  0.00     0.034 A 
HETATM   21  C   UNL     1      43.192 -13.147   4.680  1.00  0.00     0.029 A 
HETATM   22  C   UNL     1      42.941 -12.157   3.720  1.00  0.00     0.002 A 
HETATM   23  C   UNL     1      42.630 -10.858   4.108  1.00  0.00     0.000 A 
HETATM   24  C   UNL     1      42.569 -10.544   5.459  1.00  0.00     0.002 A 
HETATM   25  C   UNL     1      42.828 -11.530   6.416  1.00  0.00     0.029 A 
ENDBRANCH  17  20
ENDBRANCH  15  16
ENDBRANCH   1  15
TORSDOF 3
ENDMDL
MODEL 8
REMARK VINA RESULT:      -7.2      2.806      6.548
REMARK  3 active torsions:
REMARK  status: ('A' for Active; 'I' for Inactive)
REMARK    1  A    between atoms: C_4  and  N_5 
REMARK       I    between atoms: N_5  and  C_6 
REMARK    2  A    between atoms: C_6  and  C_7 
REMARK    3  A    between atoms: C_7  and  C_8 
ROOT
HETATM    1  C   UNL     1      42.323 -14.313   2.841  1.00  0.00     0.286 C 
HETATM    2  N   UNL     1      41.487 -15.572   2.641  1.00  0.00    -0.056 N 
HETATM    3  H   UNL     1      40.583 -15.377   3.125  1.00  0.00     0.278 HD
HETATM    4  H   UNL     1      41.249 -15.710   1.651  1.00  0.00     0.278 HD
HETATM    5  C   UNL     1      42.062 -16.823   3.247  1.00  0.00     0.209 C 
HETATM    6  C   UNL     1      42.401 -16.568   4.737  1.00  0.00     0.115 C 
HETATM    7  N   UNL     1      43.159 -15.336   4.948  1.00  0.00    -0.353 N 
HETATM    8  C   UNL     1      42.887 -14.171   4.269  1.00  0.00     0.249 C 
HETATM    9  O   UNL     1      43.199 -13.091   4.758  1.00  0.00    -0.271 OA
HETATM   10  C   UNL     1      43.259 -17.299   2.422  1.00  0.00     0.035 C 
HETATM   11  C   UNL     1      43.921 -18.513   3.067  1.00  0.00     0.002 C 
HETATM   12  C   UNL     1      44.325 -18.222   4.510  1.00  0.00     0.002 C 
HETATM   13  C   UNL     1      43.131 -17.769   5.349  1.00  0.00     0.027 C 
HETATM   14  H   UNL     1      43.500 -15.151   5.890  1.00  0.00     0.163 HD
ENDROOT
BRANCH   1  15
HETATM   15  C   UNL     1      41.562 -13.050   2.410  1.00  0.00     0.146 C 
BRANCH  15  16
HETATM   16  C   UNL     1      40.092 -13.319   2.237  1.00  0.00     0.224 C 
HETATM   17  N   UNL     1      39.484 -13.351   1.025  1.00  0.00    -0.327 N 
HETATM   18  H   UNL     1      38.491 -13.549   1.118  1.00  0.00     0.169 HD
HETATM   19  O   UNL     1      39.422 -13.603   3.242  1.00  0.00    -0.273 OA
BRANCH  17  20
HETATM   20  C   UNL     1      39.918 -13.182  -0.307  1.00  0.00     0.034 A 
HETATM   21  C   UNL     1      40.640 -12.099  -0.807  1.00  0.00     0.029 A 
HETATM   22  C   UNL     1      41.006 -12.047  -2.159  1.00  0.00     0.002 A 
HETATM   23  C   UNL     1      40.668 -13.083  -3.023  1.00  0.00     0.000 A 
HETATM   24  C   UNL     1      39.961 -14.175  -2.538  1.00  0.00     0.002 A 
HETATM   25  C   UNL     1      39.588 -14.222  -1.192  1.00  0.00     0.029 A 
ENDBRANCH  17  20
ENDBRANCH  15  16
ENDBRANCH   1  15
TORSDOF 3
ENDMDL
MODEL 9
REMARK VINA RESULT:      -7.0      4.038      5.131
REMARK  3 active torsions:
REMARK  status: ('A' for Active; 'I' for Inactive)
REMARK    1  A    between atoms: C_4  and  N_5 
REMARK       I    between atoms: N_5  and  C_6 
REMARK    2  A    between atoms: C_6  and  C_7 
REMARK    3  A    between atoms: C_7  and  C_8 
ROOT
HETATM    1  C   UNL     1      43.471 -12.187   5.256  1.00  0.00     0.286 C 
HETATM    2  N   UNL     1      43.831 -12.702   6.646  1.00  0.00    -0.056 N 
HETATM    3  H   UNL     1      42.949 -13.117   7.018  1.00  0.00     0.278 HD
HETATM    4  H   UNL     1      44.505 -13.474   6.595  1.00  0.00     0.278 HD
HETATM    5  C   UNL     1      44.277 -11.646   7.620  1.00  0.00     0.209 C 
HETATM    6  C   UNL     1      43.231 -10.505   7.663  1.00  0.00     0.115 C 
HETATM    7  N   UNL     1      42.838 -10.038   6.335  1.00  0.00    -0.353 N 
HETATM    8  C   UNL     1      42.632 -10.893   5.278  1.00  0.00     0.249 C 
HETATM    9  O   UNL     1      41.897 -10.560   4.355  1.00  0.00    -0.271 OA
HETATM   10  C   UNL     1      45.686 -11.168   7.260  1.00  0.00     0.035 C 
HETATM   11  C   UNL     1      46.128 -10.030   8.175  1.00  0.00     0.002 C 
HETATM   12  C   UNL     1      45.129  -8.876   8.146  1.00  0.00     0.002 C 
HETATM   13  C   UNL     1      43.723  -9.338   8.527  1.00  0.00     0.027 C 
HETATM   14  H   UNL     1      42.226  -9.225   6.286  1.00  0.00     0.163 HD
ENDROOT
BRANCH   1  15
HETATM   15  C   UNL     1      42.801 -13.276   4.403  1.00  0.00     0.146 C 
BRANCH  15  16
HETATM   16  C   UNL     1      41.835 -14.100   5.211  1.00  0.00     0.224 C 
HETATM   17  N   UNL     1      41.746 -15.449   5.104  1.00  0.00    -0.327 N 
HETATM   18  H   UNL     1      41.038 -15.820   5.733  1.00  0.00     0.169 HD
HETATM   19  O   UNL     1      41.148 -13.527   6.071  1.00  0.00    -0.273 OA
BRANCH  17  20
HETATM   20  C   UNL     1      42.409 -16.429   4.336  1.00  0.00     0.034 A 
HETATM   21  C   UNL     1      42.119 -16.779   3.018  1.00  0.00     0.029 A 
HETATM   22  C   UNL     1      42.853 -17.779   2.366  1.00  0.00     0.002 A 
HETATM   23  C   UNL     1      43.893 -18.433   3.019  1.00  0.00     0.000 A 
HETATM   24  C   UNL     1      44.203 -18.087   4.327  1.00  0.00     0.002 A 
HETATM   25  C   UNL     1      43.466 -17.095   4.980  1.00  0.00     0.029 A 
ENDBRANCH  17  20
ENDBRANCH  15  16
ENDBRANCH   1  15
TORSDOF 3
ENDMDL
MODEL 10
REMARK VINA RESULT:      -7.0     13.750     16.574
REMARK  3 active torsions:
REMARK  status: ('A' for Active; 'I' for Inactive)
REMARK    1  A    between atoms: C_4  and  N_5 
REMARK       I    between atoms: N_5  and  C_6 
REMARK    2  A    between atoms: C_6  and  C_7 
REMARK    3  A    between atoms: C_7  and  C_8 
ROOT
HETATM    1  C   UNL     1      48.478 -29.965   1.418  1.00  0.00     0.286 C 
HETATM    2  N   UNL     1      49.981 -29.722   1.506  1.00  0.00    -0.056 N 
HETATM    3  H   UNL     1      50.352 -29.976   0.564  1.00  0.00     0.278 HD
HETATM    4  H   UNL     1      50.192 -28.725   1.629  1.00  0.00     0.278 HD
HETATM    5  C   UNL     1      50.705 -30.567   2.518  1.00  0.00     0.209 C 
HETATM    6  C   UNL     1      50.358 -32.059   2.292  1.00  0.00     0.115 C 
HETATM    7  N   UNL     1      48.922 -32.298   2.153  1.00  0.00    -0.353 N 
HETATM    8  C   UNL     1      48.094 -31.458   1.448  1.00  0.00     0.249 C 
HETATM    9  O   UNL     1      47.047 -31.886   0.974  1.00  0.00    -0.271 OA
HETATM   10  C   UNL     1      50.385 -30.074   3.931  1.00  0.00     0.035 C 
HETATM   11  C   UNL     1      51.031 -30.972   4.983  1.00  0.00     0.002 C 
HETATM   12  C   UNL     1      50.616 -32.429   4.799  1.00  0.00     0.002 C 
HETATM   13  C   UNL     1      50.953 -32.938   3.398  1.00  0.00     0.027 C 
HETATM   14  H   UNL     1      48.612 -33.267   2.098  1.00  0.00     0.163 HD
ENDROOT
BRANCH   1  15
HETATM   15  C   UNL     1      47.857 -29.248   0.209  1.00  0.00     0.146 C 
BRANCH  15  16
HETATM   16  C   UNL     1      46.790 -28.274   0.629  1.00  0.00     0.224 C 
HETATM   17  N   UNL     1      45.680 -28.029  -0.112  1.00  0.00    -0.327 N 
HETATM   18  H   UNL     1      45.082 -27.342   0.341  1.00  0.00     0.169 HD
HETATM   19  O   UNL     1      46.892 -27.731   1.740  1.00  0.00    -0.273 OA
BRANCH  17  20
HETATM   20  C   UNL     1      45.182 -28.510  -1.340  1.00  0.00     0.034 A 
HETATM   21  C   UNL     1      44.342 -29.609  -1.515  1.00  0.00     0.029 A 
HETATM   22  C   UNL     1      43.921 -29.990  -2.797  1.00  0.00     0.002 A 
HETATM   23  C   UNL     1      44.323 -29.270  -3.917  1.00  0.00     0.000 A 
HETATM   24  C   UNL     1      45.148 -28.164  -3.759  1.00  0.00     0.002 A 
HETATM   25  C   UNL     1      45.575 -27.790  -2.481  1.00  0.00     0.029 A 
ENDBRANCH  17  20
ENDBRANCH  15  16
ENDBRANCH   1  15
TORSDOF 3
ENDMDL
