MODEL 1
REMARK VINA RESULT:      -8.4      0.000      0.000
REMARK  5 active torsions:
REMARK  status: ('A' for Active; 'I' for Inactive)
REMARK    1  A    between atoms: C_3  and  N_4 
REMARK       I    between atoms: N_4  and  C_5 
REMARK       I    between atoms: C_5  and  N_6 
REMARK    2  A    between atoms: N_6  and  C_7 
REMARK    3  A    between atoms: C_7  and  C_8 
REMARK       I    between atoms: C_8  and  N_9 
REMARK    4  A    between atoms: N_9  and  C_10 
REMARK    5  A    between atoms: C_19  and  C_20 
ROOT
HETATM    1  N   UNL     1      41.130 -13.700   2.822  1.00  0.00    -0.309 N 
HETATM    2  C   UNL     1      42.321 -14.139   3.349  1.00  0.00     0.321 C 
HETATM    3  N   UNL     1      42.368 -13.982   4.709  1.00  0.00    -0.334 N 
HETATM    4  O   UNL     1      43.243 -14.640   2.718  1.00  0.00    -0.247 OA
HETATM    5  H   UNL     1      40.328 -13.916   3.392  1.00  0.00     0.170 HD
HETATM    6  H   UNL     1      41.641 -13.427   5.135  1.00  0.00     0.164 HD
ENDROOT
BRANCH   1   7
HETATM    7  C   UNL     1      40.901 -13.522   1.438  1.00  0.00     0.043 A 
HETATM    8  C   UNL     1      40.266 -14.532   0.691  1.00  0.00    -0.035 A 
HETATM    9  C   UNL     1      39.913 -15.870   1.278  1.00  0.00     0.050 C 
HETATM   10  C   UNL     1      40.021 -14.310  -0.673  1.00  0.00     0.010 A 
HETATM   11  C   UNL     1      40.357 -13.095  -1.273  1.00  0.00     0.016 A 
HETATM   12  C   UNL     1      40.957 -12.071  -0.532  1.00  0.00     0.019 A 
HETATM   13  C   UNL     1      41.242 -12.307   0.822  1.00  0.00     0.046 A 
BRANCH  12  14
HETATM   14  C   UNL     1      41.235 -10.788  -1.171  1.00  0.00     0.179 A 
HETATM   15  O   UNL     1      42.043  -9.913  -0.487  1.00  0.00    -0.302 OA
HETATM   16  C   UNL     1      42.087  -8.808  -1.280  1.00  0.00     0.163 A 
HETATM   17  C   UNL     1      41.319  -9.051  -2.389  1.00  0.00     0.144 A 
HETATM   18  N   UNL     1      40.779 -10.310  -2.316  1.00  0.00    -0.234 NA
ENDBRANCH  12  14
ENDBRANCH   1   7
BRANCH   3  19
HETATM   19  C   UNL     1      43.172 -14.821   5.589  1.00  0.00     0.227 C 
BRANCH  19  20
HETATM   20  C   UNL     1      43.044 -16.358   5.562  1.00  0.00     0.239 C 
HETATM   21  N   UNL     1      43.960 -16.978   4.740  1.00  0.00    -0.326 N 
HETATM   22  H   UNL     1      44.718 -16.387   4.392  1.00  0.00     0.169 HD
HETATM   23  O   UNL     1      42.083 -16.899   6.109  1.00  0.00    -0.271 OA
BRANCH  21  24
HETATM   24  C   UNL     1      43.931 -18.287   4.224  1.00  0.00     0.034 A 
HETATM   25  C   UNL     1      44.137 -19.436   4.988  1.00  0.00     0.029 A 
HETATM   26  C   UNL     1      44.015 -20.702   4.407  1.00  0.00     0.002 A 
HETATM   27  C   UNL     1      43.694 -20.829   3.057  1.00  0.00     0.000 A 
HETATM   28  C   UNL     1      43.500 -19.689   2.283  1.00  0.00     0.002 A 
HETATM   29  C   UNL     1      43.616 -18.424   2.865  1.00  0.00     0.029 A 
ENDBRANCH  21  24
ENDBRANCH  19  20
ENDBRANCH   3  19
TORSDOF 5
ENDMDL
MODEL 2
REMARK VINA RESULT:      -8.3      5.741      9.772
REMARK  5 active torsions:
REMARK  status: ('A' for Active; 'I' for Inactive)
REMARK    1  A    between atoms: C_3  and  N_4 
REMARK       I    between atoms: N_4  and  C_5 
REMARK       I    between atoms: C_5  and  N_6 
REMARK    2  A    between atoms: N_6  and  C_7 
REMARK    3  A    between atoms: C_7  and  C_8 
REMARK       I    between atoms: C_8  and  N_9 
REMARK    4  A    between atoms: N_9  and  C_10 
REMARK    5  A    between atoms: C_19  and  C_20 
ROOT
HETATM    1  N   UNL     1      42.767 -13.013   6.621  1.00  0.00    -0.309 N 
HETATM    2  C   UNL     1      43.809 -12.233   7.063  1.00  0.00     0.321 C 
HETATM    3  N   UNL     1      43.390 -11.270   7.943  1.00  0.00    -0.334 N 
HETATM    4  O   UNL     1      44.986 -12.366   6.753  1.00  0.00    -0.247 OA
HETATM    5  H   UNL     1      42.088 -13.228   7.334  1.00  0.00     0.170 HD
HETATM    6  H   UNL     1      42.395 -11.125   8.029  1.00  0.00     0.164 HD
ENDROOT
BRANCH   1   7
HETATM    7  C   UNL     1      42.867 -13.918   5.539  1.00  0.00     0.043 A 
HETATM    8  C   UNL     1      42.808 -13.447   4.215  1.00  0.00    -0.035 A 
HETATM    9  C   UNL     1      42.521 -12.009   3.881  1.00  0.00     0.050 C 
HETATM   10  C   UNL     1      42.947 -14.366   3.164  1.00  0.00     0.010 A 
HETATM   11  C   UNL     1      43.184 -15.718   3.421  1.00  0.00     0.016 A 
HETATM   12  C   UNL     1      43.280 -16.192   4.734  1.00  0.00     0.019 A 
HETATM   13  C   UNL     1      43.098 -15.281   5.786  1.00  0.00     0.046 A 
BRANCH  12  14
HETATM   14  C   UNL     1      43.596 -17.597   4.971  1.00  0.00     0.179 A 
HETATM   15  O   UNL     1      44.139 -18.299   3.923  1.00  0.00    -0.302 OA
HETATM   16  C   UNL     1      44.280 -19.564   4.405  1.00  0.00     0.163 A 
HETATM   17  C   UNL     1      43.828 -19.578   5.698  1.00  0.00     0.144 A 
HETATM   18  N   UNL     1      43.393 -18.327   6.054  1.00  0.00    -0.234 NA
ENDBRANCH  12  14
ENDBRANCH   1   7
BRANCH   3  19
HETATM   19  C   UNL     1      44.242 -10.701   8.979  1.00  0.00     0.227 C 
BRANCH  19  20
HETATM   20  C   UNL     1      43.807 -10.702  10.459  1.00  0.00     0.239 C 
HETATM   21  N   UNL     1      42.727  -9.887  10.721  1.00  0.00    -0.326 N 
HETATM   22  H   UNL     1      42.233  -9.524   9.904  1.00  0.00     0.169 HD
HETATM   23  O   UNL     1      44.509 -11.263  11.300  1.00  0.00    -0.271 OA
BRANCH  21  24
HETATM   24  C   UNL     1      42.282  -9.394  11.963  1.00  0.00     0.034 A 
HETATM   25  C   UNL     1      41.143  -9.852  12.625  1.00  0.00     0.029 A 
HETATM   26  C   UNL     1      40.816  -9.359  13.892  1.00  0.00     0.002 A 
HETATM   27  C   UNL     1      41.619  -8.397  14.501  1.00  0.00     0.000 A 
HETATM   28  C   UNL     1      42.750  -7.923  13.843  1.00  0.00     0.002 A 
HETATM   29  C   UNL     1      43.080  -8.421  12.580  1.00  0.00     0.029 A 
ENDBRANCH  21  24
ENDBRANCH  19  20
ENDBRANCH   3  19
TORSDOF 5
ENDMDL
MODEL 3
REMARK VINA RESULT:      -8.1      5.491      9.250
REMARK  5 active torsions:
REMARK  status: ('A' for Active; 'I' for Inactive)
REMARK    1  A    between atoms: C_3  and  N_4 
REMARK       I    between atoms: N_4  and  C_5 
REMARK       I    between atoms: C_5  and  N_6 
REMARK    2  A    between atoms: N_6  and  C_7 
REMARK    3  A    between atoms: C_7  and  C_8 
REMARK       I    between atoms: C_8  and  N_9 
REMARK    4  A    between atoms: N_9  and  C_10 
REMARK    5  A    between atoms: C_19  and  C_20 
ROOT
HETATM    1  N   UNL     1      41.927 -13.169   6.473  1.00  0.00    -0.309 N 
HETATM    2  C   UNL     1      42.973 -12.277   6.474  1.00  0.00     0.321 C 
HETATM    3  N   UNL     1      42.830 -11.323   7.447  1.00  0.00    -0.334 N 
HETATM    4  O   UNL     1      43.945 -12.310   5.731  1.00  0.00    -0.247 OA
HETATM    5  H   UNL     1      41.604 -13.419   7.394  1.00  0.00     0.170 HD
HETATM    6  H   UNL     1      41.937 -11.270   7.914  1.00  0.00     0.164 HD
ENDROOT
BRANCH   1   7
HETATM    7  C   UNL     1      41.694 -14.104   5.438  1.00  0.00     0.043 A 
HETATM    8  C   UNL     1      40.713 -13.848   4.462  1.00  0.00    -0.035 A 
HETATM    9  C   UNL     1      39.798 -12.656   4.529  1.00  0.00     0.050 C 
HETATM   10  C   UNL     1      40.530 -14.778   3.427  1.00  0.00     0.010 A 
HETATM   11  C   UNL     1      41.334 -15.916   3.337  1.00  0.00     0.016 A 
HETATM   12  C   UNL     1      42.336 -16.163   4.282  1.00  0.00     0.019 A 
HETATM   13  C   UNL     1      42.491 -15.256   5.342  1.00  0.00     0.046 A 
BRANCH  12  14
HETATM   14  C   UNL     1      43.204 -17.326   4.123  1.00  0.00     0.179 A 
HETATM   15  O   UNL     1      43.183 -17.959   2.905  1.00  0.00    -0.302 OA
HETATM   16  C   UNL     1      44.031 -19.012   3.059  1.00  0.00     0.163 A 
HETATM   17  C   UNL     1      44.523 -18.976   4.338  1.00  0.00     0.144 A 
HETATM   18  N   UNL     1      43.995 -17.904   5.011  1.00  0.00    -0.234 NA
ENDBRANCH  12  14
ENDBRANCH   1   7
BRANCH   3  19
HETATM   19  C   UNL     1      43.954 -10.634   8.070  1.00  0.00     0.227 C 
BRANCH  19  20
HETATM   20  C   UNL     1      44.068 -10.520   9.605  1.00  0.00     0.239 C 
HETATM   21  N   UNL     1      42.936 -10.020  10.210  1.00  0.00    -0.326 N 
HETATM   22  H   UNL     1      42.105  -9.953   9.618  1.00  0.00     0.169 HD
HETATM   23  O   UNL     1      45.154 -10.711  10.150  1.00  0.00    -0.271 OA
BRANCH  21  24
HETATM   24  C   UNL     1      42.799  -9.482  11.504  1.00  0.00     0.034 A 
HETATM   25  C   UNL     1      43.530  -8.394  11.982  1.00  0.00     0.029 A 
HETATM   26  C   UNL     1      43.274  -7.877  13.256  1.00  0.00     0.002 A 
HETATM   27  C   UNL     1      42.295  -8.450  14.065  1.00  0.00     0.000 A 
HETATM   28  C   UNL     1      41.570  -9.544  13.602  1.00  0.00     0.002 A 
HETATM   29  C   UNL     1      41.819 -10.056  12.327  1.00  0.00     0.029 A 
ENDBRANCH  21  24
ENDBRANCH  19  20
ENDBRANCH   3  19
TORSDOF 5
ENDMDL
MODEL 4
REMARK VINA RESULT:      -8.1      2.025      8.438
REMARK  5 active torsions:
REMARK  status: ('A' for Active; 'I' for Inactive)
REMARK    1  A    between atoms: C_3  and  N_4 
REMARK       I    between atoms: N_4  and  C_5 
REMARK       I    between atoms: C_5  and  N_6 
REMARK    2  A    between atoms: N_6  and  C_7 
REMARK    3  A    between atoms: C_7  and  C_8 
REMARK       I    between atoms: C_8  and  N_9 
REMARK    4  A    between atoms: N_9  and  C_10 
REMARK    5  A    between atoms: C_19  and  C_20 
ROOT
HETATM    1  N   UNL     1      42.205 -14.188   4.205  1.00  0.00    -0.309 N 
HETATM    2  C   UNL     1      42.383 -13.669   2.945  1.00  0.00     0.321 C 
HETATM    3  N   UNL     1      41.348 -12.850   2.577  1.00  0.00    -0.334 N 
HETATM    4  O   UNL     1      43.348 -13.867   2.217  1.00  0.00    -0.247 OA
HETATM    5  H   UNL     1      41.807 -13.535   4.862  1.00  0.00     0.170 HD
HETATM    6  H   UNL     1      40.524 -12.858   3.160  1.00  0.00     0.164 HD
ENDROOT
BRANCH   1   7
HETATM    7  C   UNL     1      42.987 -15.237   4.741  1.00  0.00     0.043 A 
HETATM    8  C   UNL     1      43.624 -15.079   5.985  1.00  0.00    -0.035 A 
HETATM    9  C   UNL     1      43.612 -13.779   6.741  1.00  0.00     0.050 C 
HETATM   10  C   UNL     1      44.364 -16.152   6.507  1.00  0.00     0.010 A 
HETATM   11  C   UNL     1      44.431 -17.372   5.829  1.00  0.00     0.016 A 
HETATM   12  C   UNL     1      43.772 -17.551   4.608  1.00  0.00     0.019 A 
HETATM   13  C   UNL     1      43.068 -16.465   4.065  1.00  0.00     0.046 A 
BRANCH  12  14
HETATM   14  C   UNL     1      43.806 -18.857   3.957  1.00  0.00     0.179 A 
HETATM   15  O   UNL     1      43.450 -18.903   2.632  1.00  0.00    -0.302 OA
HETATM   16  C   UNL     1      43.523 -20.223   2.310  1.00  0.00     0.163 A 
HETATM   17  C   UNL     1      43.913 -20.911   3.430  1.00  0.00     0.144 A 
HETATM   18  N   UNL     1      44.090 -20.040   4.475  1.00  0.00    -0.234 NA
ENDBRANCH  12  14
ENDBRANCH   1   7
BRANCH   3  19
HETATM   19  C   UNL     1      41.487 -11.753   1.629  1.00  0.00     0.227 C 
BRANCH  19  20
HETATM   20  C   UNL     1      40.762 -11.778   0.267  1.00  0.00     0.239 C 
HETATM   21  N   UNL     1      39.696 -12.650   0.222  1.00  0.00    -0.326 N 
HETATM   22  H   UNL     1      39.396 -13.036   1.119  1.00  0.00     0.169 HD
HETATM   23  O   UNL     1      41.249 -11.183  -0.694  1.00  0.00    -0.271 OA
BRANCH  21  24
HETATM   24  C   UNL     1      39.034 -13.168  -0.908  1.00  0.00     0.034 A 
HETATM   25  C   UNL     1      37.926 -12.571  -1.510  1.00  0.00     0.029 A 
HETATM   26  C   UNL     1      37.378 -13.116  -2.676  1.00  0.00     0.002 A 
HETATM   27  C   UNL     1      37.927 -14.264  -3.242  1.00  0.00     0.000 A 
HETATM   28  C   UNL     1      39.024 -14.875  -2.641  1.00  0.00     0.002 A 
HETATM   29  C   UNL     1      39.576 -14.328  -1.481  1.00  0.00     0.029 A 
ENDBRANCH  21  24
ENDBRANCH  19  20
ENDBRANCH   3  19
TORSDOF 5
ENDMDL
MODEL 5
REMARK VINA RESULT:      -8.0      5.623      8.640
REMARK  5 active torsions:
REMARK  status: ('A' for Active; 'I' for Inactive)
REMARK    1  A    between atoms: C_3  and  N_4 
REMARK       I    between atoms: N_4  and  C_5 
REMARK       I    between atoms: C_5  and  N_6 
REMARK    2  A    between atoms: N_6  and  C_7 
REMARK    3  A    between atoms: C_7  and  C_8 
REMARK       I    between atoms: C_8  and  N_9 
REMARK    4  A    between atoms: N_9  and  C_10 
REMARK    5  A    between atoms: C_19  and  C_20 
ROOT
HETATM    1  N   UNL     1      43.062 -13.709   6.722  1.00  0.00    -0.309 N 
HETATM    2  C   UNL     1      43.745 -12.521   6.830  1.00  0.00     0.321 C 
HETATM    3  N   UNL     1      43.342 -11.796   7.921  1.00  0.00    -0.334 N 
HETATM    4  O   UNL     1      44.630 -12.131   6.080  1.00  0.00    -0.247 OA
HETATM    5  H   UNL     1      42.891 -14.162   7.605  1.00  0.00     0.170 HD
HETATM    6  H   UNL     1      42.509 -12.106   8.399  1.00  0.00     0.164 HD
ENDROOT
BRANCH   1   7
HETATM    7  C   UNL     1      43.101 -14.536   5.576  1.00  0.00     0.043 A 
HETATM    8  C   UNL     1      43.666 -15.823   5.652  1.00  0.00    -0.035 A 
HETATM    9  C   UNL     1      44.350 -16.333   6.890  1.00  0.00     0.050 C 
HETATM   10  C   UNL     1      43.657 -16.633   4.506  1.00  0.00     0.010 A 
HETATM   11  C   UNL     1      43.060 -16.194   3.323  1.00  0.00     0.016 A 
HETATM   12  C   UNL     1      42.465 -14.930   3.246  1.00  0.00     0.019 A 
HETATM   13  C   UNL     1      42.511 -14.102   4.378  1.00  0.00     0.046 A 
BRANCH  12  14
HETATM   14  C   UNL     1      41.790 -14.526   2.016  1.00  0.00     0.179 A 
HETATM   15  O   UNL     1      41.786 -13.186   1.719  1.00  0.00    -0.302 OA
HETATM   16  C   UNL     1      41.060 -13.099   0.571  1.00  0.00     0.163 A 
HETATM   17  C   UNL     1      40.662 -14.364   0.225  1.00  0.00     0.144 A 
HETATM   18  N   UNL     1      41.127 -15.268   1.146  1.00  0.00    -0.234 NA
ENDBRANCH  12  14
ENDBRANCH   1   7
BRANCH   3  19
HETATM   19  C   UNL     1      44.200 -10.846   8.618  1.00  0.00     0.227 C 
BRANCH  19  20
HETATM   20  C   UNL     1      44.108 -10.662  10.147  1.00  0.00     0.239 C 
HETATM   21  N   UNL     1      42.950 -10.042  10.563  1.00  0.00    -0.326 N 
HETATM   22  H   UNL     1      42.219  -9.941   9.856  1.00  0.00     0.169 HD
HETATM   23  O   UNL     1      45.088 -10.909  10.850  1.00  0.00    -0.271 OA
BRANCH  21  24
HETATM   24  C   UNL     1      42.681  -9.428  11.801  1.00  0.00     0.034 A 
HETATM   25  C   UNL     1      41.794  -9.935  12.751  1.00  0.00     0.029 A 
HETATM   26  C   UNL     1      41.644  -9.298  13.988  1.00  0.00     0.002 A 
HETATM   27  C   UNL     1      42.371  -8.146  14.279  1.00  0.00     0.000 A 
HETATM   28  C   UNL     1      43.248  -7.624  13.332  1.00  0.00     0.002 A 
HETATM   29  C   UNL     1      43.403  -8.264  12.100  1.00  0.00     0.029 A 
ENDBRANCH  21  24
ENDBRANCH  19  20
ENDBRANCH   3  19
TORSDOF 5
ENDMDL
MODEL 6
REMARK VINA RESULT:      -7.8      5.021      8.047
REMARK  5 active torsions:
REMARK  status: ('A' for Active; 'I' for Inactive)
REMARK    1  A    between atoms: C_3  and  N_4 
REMARK       I    between atoms: N_4  and  C_5 
REMARK       I    between atoms: C_5  and  N_6 
REMARK    2  A    between atoms: N_6  and  C_7 
REMARK    3  A    between atoms: C_7  and  C_8 
REMARK       I    between atoms: C_8  and  N_9 
REMARK    4  A    between atoms: N_9  and  C_10 
REMARK    5  A    between atoms: C_19  and  C_20 
ROOT
HETATM    1  N   UNL     1      43.005 -10.951   6.023  1.00  0.00    -0.309 N 
HETATM    2  C   UNL     1      42.264 -12.090   5.815  1.00  0.00     0.321 C 
HETATM    3  N   UNL     1      41.447 -11.977   4.722  1.00  0.00    -0.334 N 
HETATM    4  O   UNL     1      42.317 -13.113   6.487  1.00  0.00    -0.247 OA
HETATM    5  H   UNL     1      43.339 -10.522   5.175  1.00  0.00     0.170 HD
HETATM    6  H   UNL     1      41.346 -11.059   4.315  1.00  0.00     0.164 HD
ENDROOT
BRANCH   1   7
HETATM    7  C   UNL     1      43.746 -10.700   7.201  1.00  0.00     0.043 A 
HETATM    8  C   UNL     1      45.144 -10.859   7.204  1.00  0.00    -0.035 A 
HETATM    9  C   UNL     1      45.898 -11.406   6.023  1.00  0.00     0.050 C 
HETATM   10  C   UNL     1      45.855 -10.567   8.378  1.00  0.00     0.010 A 
HETATM   11  C   UNL     1      45.198 -10.084   9.512  1.00  0.00     0.016 A 
HETATM   12  C   UNL     1      43.813  -9.890   9.509  1.00  0.00     0.019 A 
HETATM   13  C   UNL     1      43.095 -10.222   8.350  1.00  0.00     0.046 A 
BRANCH  12  14
HETATM   14  C   UNL     1      43.164  -9.320  10.687  1.00  0.00     0.179 A 
HETATM   15  O   UNL     1      43.974  -8.710  11.611  1.00  0.00    -0.302 OA
HETATM   16  C   UNL     1      43.123  -8.326  12.602  1.00  0.00     0.163 A 
HETATM   17  C   UNL     1      41.857  -8.711  12.245  1.00  0.00     0.144 A 
HETATM   18  N   UNL     1      41.887  -9.343  11.028  1.00  0.00    -0.234 NA
ENDBRANCH  12  14
ENDBRANCH   1   7
BRANCH   3  19
HETATM   19  C   UNL     1      41.004 -13.115   3.926  1.00  0.00     0.227 C 
BRANCH  19  20
HETATM   20  C   UNL     1      42.016 -14.124   3.345  1.00  0.00     0.239 C 
HETATM   21  N   UNL     1      41.728 -15.437   3.649  1.00  0.00    -0.326 N 
HETATM   22  H   UNL     1      40.807 -15.609   4.057  1.00  0.00     0.169 HD
HETATM   23  O   UNL     1      43.050 -13.715   2.819  1.00  0.00    -0.271 OA
BRANCH  21  24
HETATM   24  C   UNL     1      42.575 -16.559   3.579  1.00  0.00     0.034 A 
HETATM   25  C   UNL     1      43.485 -16.918   4.573  1.00  0.00     0.029 A 
HETATM   26  C   UNL     1      44.234 -18.093   4.454  1.00  0.00     0.002 A 
HETATM   27  C   UNL     1      44.087 -18.911   3.336  1.00  0.00     0.000 A 
HETATM   28  C   UNL     1      43.193 -18.554   2.331  1.00  0.00     0.002 A 
HETATM   29  C   UNL     1      42.439 -17.385   2.453  1.00  0.00     0.029 A 
ENDBRANCH  21  24
ENDBRANCH  19  20
ENDBRANCH   3  19
TORSDOF 5
ENDMDL
MODEL 7
REMARK VINA RESULT:      -7.7      2.346      9.585
REMARK  5 active torsions:
REMARK  status: ('A' for Active; 'I' for Inactive)
REMARK    1  A    between atoms: C_3  and  N_4 
REMARK       I    between atoms: N_4  and  C_5 
REMARK       I    between atoms: C_5  and  N_6 
REMARK    2  A    between atoms: N_6  and  C_7 
REMARK    3  A    between atoms: C_7  and  C_8 
REMARK       I    between atoms: C_8  and  N_9 
REMARK    4  A    between atoms: N_9  and  C_10 
REMARK    5  A    between atoms: C_19  and  C_20 
ROOT
HETATM    1  N   UNL     1      42.543 -14.877   1.431  1.00  0.00    -0.309 N 
HETATM    2  C   UNL     1      41.241 -14.844   0.992  1.00  0.00     0.321 C 
HETATM    3  N   UNL     1      41.090 -14.033  -0.101  1.00  0.00    -0.334 N 
HETATM    4  O   UNL     1      40.305 -15.469   1.475  1.00  0.00    -0.247 OA
HETATM    5  H   UNL     1      43.223 -14.884   0.688  1.00  0.00     0.170 HD
HETATM    6  H   UNL     1      41.867 -13.437  -0.345  1.00  0.00     0.164 HD
ENDROOT
BRANCH   1   7
HETATM    7  C   UNL     1      42.941 -15.435   2.668  1.00  0.00     0.043 A 
HETATM    8  C   UNL     1      42.968 -14.638   3.827  1.00  0.00    -0.035 A 
HETATM    9  C   UNL     1      42.699 -13.158   3.798  1.00  0.00     0.050 C 
HETATM   10  C   UNL     1      43.333 -15.230   5.046  1.00  0.00     0.010 A 
HETATM   11  C   UNL     1      43.621 -16.594   5.122  1.00  0.00     0.016 A 
HETATM   12  C   UNL     1      43.564 -17.403   3.982  1.00  0.00     0.019 A 
HETATM   13  C   UNL     1      43.241 -16.804   2.755  1.00  0.00     0.046 A 
BRANCH  12  14
HETATM   14  C   UNL     1      43.805 -18.838   4.105  1.00  0.00     0.179 A 
HETATM   15  O   UNL     1      43.668 -19.593   2.966  1.00  0.00    -0.302 OA
HETATM   16  C   UNL     1      43.897 -20.869   3.380  1.00  0.00     0.163 A 
HETATM   17  C   UNL     1      44.158 -20.837   4.725  1.00  0.00     0.144 A 
HETATM   18  N   UNL     1      44.098 -19.546   5.182  1.00  0.00    -0.234 NA
ENDBRANCH  12  14
ENDBRANCH   1   7
BRANCH   3  19
HETATM   19  C   UNL     1      40.048 -14.219  -1.104  1.00  0.00     0.227 C 
BRANCH  19  20
HETATM   20  C   UNL     1      40.004 -13.350  -2.378  1.00  0.00     0.239 C 
HETATM   21  N   UNL     1      40.087 -11.997  -2.131  1.00  0.00    -0.326 N 
HETATM   22  H   UNL     1      40.346 -11.733  -1.178  1.00  0.00     0.169 HD
HETATM   23  O   UNL     1      39.742 -13.872  -3.462  1.00  0.00    -0.271 OA
BRANCH  21  24
HETATM   24  C   UNL     1      39.753 -10.928  -2.984  1.00  0.00     0.034 A 
HETATM   25  C   UNL     1      38.449 -10.500  -3.230  1.00  0.00     0.029 A 
HETATM   26  C   UNL     1      38.213  -9.379  -4.033  1.00  0.00     0.002 A 
HETATM   27  C   UNL     1      39.279  -8.686  -4.604  1.00  0.00     0.000 A 
HETATM   28  C   UNL     1      40.583  -9.114  -4.376  1.00  0.00     0.002 A 
HETATM   29  C   UNL     1      40.819 -10.229  -3.568  1.00  0.00     0.029 A 
ENDBRANCH  21  24
ENDBRANCH  19  20
ENDBRANCH   3  19
TORSDOF 5
ENDMDL
MODEL 8
REMARK VINA RESULT:      -7.7      5.839      9.166
REMARK  5 active torsions:
REMARK  status: ('A' for Active; 'I' for Inactive)
REMARK    1  A    between atoms: C_3  and  N_4 
REMARK       I    between atoms: N_4  and  C_5 
REMARK       I    between atoms: C_5  and  N_6 
REMARK    2  A    between atoms: N_6  and  C_7 
REMARK    3  A    between atoms: C_7  and  C_8 
REMARK       I    between atoms: C_8  and  N_9 
REMARK    4  A    between atoms: N_9  and  C_10 
REMARK    5  A    between atoms: C_19  and  C_20 
ROOT
HETATM    1  N   UNL     1      43.170  -9.543   7.161  1.00  0.00    -0.309 N 
HETATM    2  C   UNL     1      43.058 -10.625   6.320  1.00  0.00     0.321 C 
HETATM    3  N   UNL     1      42.509 -10.280   5.113  1.00  0.00    -0.334 N 
HETATM    4  O   UNL     1      43.416 -11.769   6.571  1.00  0.00    -0.247 OA
HETATM    5  H   UNL     1      43.445  -8.693   6.696  1.00  0.00     0.170 HD
HETATM    6  H   UNL     1      42.101  -9.361   5.038  1.00  0.00     0.164 HD
ENDROOT
BRANCH   1   7
HETATM    7  C   UNL     1      43.477  -9.646   8.537  1.00  0.00     0.043 A 
HETATM    8  C   UNL     1      44.817  -9.637   8.966  1.00  0.00    -0.035 A 
HETATM    9  C   UNL     1      45.973  -9.639   8.004  1.00  0.00     0.050 C 
HETATM   10  C   UNL     1      45.088  -9.704  10.341  1.00  0.00     0.010 A 
HETATM   11  C   UNL     1      44.050  -9.735  11.275  1.00  0.00     0.016 A 
HETATM   12  C   UNL     1      42.713  -9.709  10.862  1.00  0.00     0.019 A 
HETATM   13  C   UNL     1      42.441  -9.685   9.485  1.00  0.00     0.046 A 
BRANCH  12  14
HETATM   14  C   UNL     1      41.651  -9.673  11.862  1.00  0.00     0.179 A 
HETATM   15  O   UNL     1      42.000  -9.272  13.128  1.00  0.00    -0.302 OA
HETATM   16  C   UNL     1      40.848  -9.382  13.845  1.00  0.00     0.163 A 
HETATM   17  C   UNL     1      39.867  -9.835  13.002  1.00  0.00     0.144 A 
HETATM   18  N   UNL     1      40.381 -10.020  11.743  1.00  0.00    -0.234 NA
ENDBRANCH  12  14
ENDBRANCH   1   7
BRANCH   3  19
HETATM   19  C   UNL     1      42.774 -10.999   3.874  1.00  0.00     0.227 C 
BRANCH  19  20
HETATM   20  C   UNL     1      42.214 -12.417   3.638  1.00  0.00     0.239 C 
HETATM   21  N   UNL     1      43.166 -13.411   3.717  1.00  0.00    -0.326 N 
HETATM   22  H   UNL     1      44.074 -13.130   4.091  1.00  0.00     0.169 HD
HETATM   23  O   UNL     1      41.054 -12.557   3.251  1.00  0.00    -0.271 OA
BRANCH  21  24
HETATM   24  C   UNL     1      43.092 -14.735   3.245  1.00  0.00     0.034 A 
HETATM   25  C   UNL     1      43.195 -15.095   1.901  1.00  0.00     0.029 A 
HETATM   26  C   UNL     1      43.186 -16.444   1.529  1.00  0.00     0.002 A 
HETATM   27  C   UNL     1      43.064 -17.440   2.496  1.00  0.00     0.000 A 
HETATM   28  C   UNL     1      42.945 -17.090   3.838  1.00  0.00     0.002 A 
HETATM   29  C   UNL     1      42.961 -15.744   4.210  1.00  0.00     0.029 A 
ENDBRANCH  21  24
ENDBRANCH  19  20
ENDBRANCH   3  19
TORSDOF 5
ENDMDL
MODEL 9
REMARK VINA RESULT:      -7.5      2.473      3.456
REMARK  5 active torsions:
REMARK  status: ('A' for Active; 'I' for Inactive)
REMARK    1  A    between atoms: C_3  and  N_4 
REMARK       I    between atoms: N_4  and  C_5 
REMARK       I    between atoms: C_5  and  N_6 
REMARK    2  A    between atoms: N_6  and  C_7 
REMARK    3  A    between atoms: C_7  and  C_8 
REMARK       I    between atoms: C_8  and  N_9 
REMARK    4  A    between atoms: N_9  and  C_10 
REMARK    5  A    between atoms: C_19  and  C_20 
ROOT
HETATM    1  N   UNL     1      40.018 -12.795   4.940  1.00  0.00    -0.309 N 
HETATM    2  C   UNL     1      41.351 -13.056   5.146  1.00  0.00     0.321 C 
HETATM    3  N   UNL     1      41.612 -13.395   6.447  1.00  0.00    -0.334 N 
HETATM    4  O   UNL     1      42.229 -13.026   4.292  1.00  0.00    -0.247 OA
HETATM    5  H   UNL     1      39.400 -13.411   5.444  1.00  0.00     0.170 HD
HETATM    6  H   UNL     1      40.873 -13.249   7.119  1.00  0.00     0.164 HD
ENDROOT
BRANCH   1   7
HETATM    7  C   UNL     1      39.507 -12.197   3.765  1.00  0.00     0.043 A 
HETATM    8  C   UNL     1      39.008 -10.882   3.800  1.00  0.00    -0.035 A 
HETATM    9  C   UNL     1      38.881 -10.099   5.077  1.00  0.00     0.050 C 
HETATM   10  C   UNL     1      38.541 -10.304   2.609  1.00  0.00     0.010 A 
HETATM   11  C   UNL     1      38.609 -11.001   1.400  1.00  0.00     0.016 A 
HETATM   12  C   UNL     1      39.135 -12.296   1.348  1.00  0.00     0.019 A 
HETATM   13  C   UNL     1      39.563 -12.891   2.545  1.00  0.00     0.046 A 
BRANCH  12  14
HETATM   14  C   UNL     1      39.256 -12.973   0.060  1.00  0.00     0.179 A 
HETATM   15  O   UNL     1      38.740 -12.324  -1.036  1.00  0.00    -0.302 OA
HETATM   16  C   UNL     1      38.945 -13.191  -2.065  1.00  0.00     0.163 A 
HETATM   17  C   UNL     1      39.563 -14.307  -1.563  1.00  0.00     0.144 A 
HETATM   18  N   UNL     1      39.758 -14.165  -0.213  1.00  0.00    -0.234 NA
ENDBRANCH  12  14
ENDBRANCH   1   7
BRANCH   3  19
HETATM   19  C   UNL     1      42.725 -14.245   6.851  1.00  0.00     0.227 C 
BRANCH  19  20
HETATM   20  C   UNL     1      42.812 -15.716   6.394  1.00  0.00     0.239 C 
HETATM   21  N   UNL     1      43.496 -15.890   5.211  1.00  0.00    -0.326 N 
HETATM   22  H   UNL     1      44.013 -15.077   4.870  1.00  0.00     0.169 HD
HETATM   23  O   UNL     1      42.161 -16.577   6.986  1.00  0.00    -0.271 OA
BRANCH  21  24
HETATM   24  C   UNL     1      43.488 -17.004   4.349  1.00  0.00     0.034 A 
HETATM   25  C   UNL     1      42.825 -17.040   3.122  1.00  0.00     0.029 A 
HETATM   26  C   UNL     1      42.932 -18.163   2.295  1.00  0.00     0.002 A 
HETATM   27  C   UNL     1      43.694 -19.260   2.692  1.00  0.00     0.000 A 
HETATM   28  C   UNL     1      44.348 -19.238   3.921  1.00  0.00     0.002 A 
HETATM   29  C   UNL     1      44.246 -18.115   4.744  1.00  0.00     0.029 A 
ENDBRANCH  21  24
ENDBRANCH  19  20
ENDBRANCH   3  19
TORSDOF 5
ENDMDL
MODEL 10
REMARK VINA RESULT:      -7.3      7.089      9.921
REMARK  5 active torsions:
REMARK  status: ('A' for Active; 'I' for Inactive)
REMARK    1  A    between atoms: C_3  and  N_4 
REMARK       I    between atoms: N_4  and  C_5 
REMARK       I    between atoms: C_5  and  N_6 
REMARK    2  A    between atoms: N_6  and  C_7 
REMARK    3  A    between atoms: C_7  and  C_8 
REMARK       I    between atoms: C_8  and  N_9 
REMARK    4  A    between atoms: N_9  and  C_10 
REMARK    5  A    between atoms: C_19  and  C_20 
ROOT
HETATM    1  N   UNL     1      42.717 -10.332   8.987  1.00  0.00    -0.309 N 
HETATM    2  C   UNL     1      42.861  -9.764   7.743  1.00  0.00     0.321 C 
HETATM    3  N   UNL     1      43.176 -10.695   6.789  1.00  0.00    -0.334 N 
HETATM    4  O   UNL     1      42.709  -8.580   7.474  1.00  0.00    -0.247 OA
HETATM    5  H   UNL     1      42.260 -11.230   8.974  1.00  0.00     0.170 HD
HETATM    6  H   UNL     1      43.434 -11.616   7.110  1.00  0.00     0.164 HD
ENDROOT
BRANCH   1   7
HETATM    7  C   UNL     1      42.629  -9.587  10.185  1.00  0.00     0.043 A 
HETATM    8  C   UNL     1      43.796  -9.243  10.891  1.00  0.00    -0.035 A 
HETATM    9  C   UNL     1      45.159  -9.737  10.490  1.00  0.00     0.050 C 
HETATM   10  C   UNL     1      43.678  -8.472  12.058  1.00  0.00     0.010 A 
HETATM   11  C   UNL     1      42.432  -8.013  12.490  1.00  0.00     0.016 A 
HETATM   12  C   UNL     1      41.268  -8.320  11.776  1.00  0.00     0.019 A 
HETATM   13  C   UNL     1      41.380  -9.127  10.634  1.00  0.00     0.046 A 
BRANCH  12  14
HETATM   14  C   UNL     1      39.988  -7.770  12.215  1.00  0.00     0.179 A 
HETATM   15  O   UNL     1      39.092  -7.420  11.236  1.00  0.00    -0.302 OA
HETATM   16  C   UNL     1      38.034  -6.903  11.919  1.00  0.00     0.163 A 
HETATM   17  C   UNL     1      38.326  -6.959  13.257  1.00  0.00     0.144 A 
HETATM   18  N   UNL     1      39.569  -7.510  13.441  1.00  0.00    -0.234 NA
ENDBRANCH  12  14
ENDBRANCH   1   7
BRANCH   3  19
HETATM   19  C   UNL     1      42.841 -10.547   5.378  1.00  0.00     0.227 C 
BRANCH  19  20
HETATM   20  C   UNL     1      43.330 -11.570   4.331  1.00  0.00     0.239 C 
HETATM   21  N   UNL     1      42.470 -12.630   4.146  1.00  0.00    -0.326 N 
HETATM   22  H   UNL     1      41.546 -12.535   4.573  1.00  0.00     0.169 HD
HETATM   23  O   UNL     1      44.468 -11.474   3.872  1.00  0.00    -0.271 OA
BRANCH  21  24
HETATM   24  C   UNL     1      42.730 -13.876   3.545  1.00  0.00     0.034 A 
HETATM   25  C   UNL     1      42.906 -14.063   2.174  1.00  0.00     0.029 A 
HETATM   26  C   UNL     1      43.237 -15.325   1.670  1.00  0.00     0.002 A 
HETATM   27  C   UNL     1      43.386 -16.410   2.532  1.00  0.00     0.000 A 
HETATM   28  C   UNL     1      43.198 -16.236   3.900  1.00  0.00     0.002 A 
HETATM   29  C   UNL     1      42.874 -14.975   4.404  1.00  0.00     0.029 A 
ENDBRANCH  21  24
ENDBRANCH  19  20
ENDBRANCH   3  19
TORSDOF 5
ENDMDL
