MODEL 1
REMARK VINA RESULT:      -8.0      0.000      0.000
REMARK  4 active torsions:
REMARK  status: ('A' for Active; 'I' for Inactive)
REMARK    1  A    between atoms: C_7  and  C_8 
REMARK    2  A    between atoms: N_9  and  N_10 
REMARK       I    between atoms: N_10  and  C_11 
REMARK    3  A    between atoms: C_11  and  C_12 
REMARK    4  A    between atoms: C_12  and  C_13 
ROOT
HETATM    1  N   UNL     1      42.428 -10.732   3.557  1.00  0.00    -0.247 N 
HETATM    2  C   UNL     1      43.573 -11.260   4.148  1.00  0.00     0.241 C 
HETATM    3  O   UNL     1      44.595 -11.572   3.538  1.00  0.00    -0.271 OA
HETATM    4  H   UNL     1      41.699 -10.295   4.102  1.00  0.00     0.192 HD
ENDROOT
BRANCH   1   5
HETATM    5  N   UNL     1      42.349 -10.685   2.213  1.00  0.00    -0.184 NA
HETATM    6  C   UNL     1      41.586 -11.478   1.525  1.00  0.00     0.153 C 
BRANCH   6   7
HETATM    7  C   UNL     1      40.743 -12.612   1.896  1.00  0.00     0.018 A 
HETATM    8  C   UNL     1      39.366 -12.751   2.078  1.00  0.00     0.018 A 
HETATM    9  C   UNL     1      38.196 -11.839   1.990  1.00  0.00     0.069 C 
HETATM   10  N   UNL     1      39.130 -14.045   2.492  1.00  0.00    -0.358 N 
HETATM   11  H   UNL     1      38.218 -14.423   2.708  1.00  0.00     0.166 HD
HETATM   12  C   UNL     1      40.299 -14.727   2.691  1.00  0.00     0.043 A 
HETATM   13  C   UNL     1      41.328 -13.878   2.302  1.00  0.00     0.004 A 
HETATM   14  C   UNL     1      40.514 -16.016   3.194  1.00  0.00     0.030 A 
HETATM   15  C   UNL     1      42.654 -14.360   2.404  1.00  0.00     0.014 A 
HETATM   16  C   UNL     1      42.893 -15.644   2.910  1.00  0.00     0.001 A 
HETATM   17  C   UNL     1      41.835 -16.457   3.304  1.00  0.00     0.002 A 
ENDBRANCH   6   7
ENDBRANCH   1   5
BRANCH   2  18
HETATM   18  C   UNL     1      43.433 -11.459   5.647  1.00  0.00     0.145 C 
BRANCH  18  19
HETATM   19  C   UNL     1      42.479 -12.559   6.016  1.00  0.00    -0.021 A 
HETATM   20  C   UNL     1      42.774 -13.935   6.311  1.00  0.00    -0.001 A 
HETATM   21  C   UNL     1      41.560 -14.586   6.540  1.00  0.00     0.042 A 
HETATM   22  C   UNL     1      43.957 -14.700   6.411  1.00  0.00     0.014 A 
HETATM   23  C   UNL     1      41.469 -15.952   6.833  1.00  0.00     0.030 A 
HETATM   24  N   UNL     1      40.569 -13.640   6.432  1.00  0.00    -0.365 N 
HETATM   25  C   UNL     1      42.656 -16.685   6.900  1.00  0.00     0.002 A 
HETATM   26  C   UNL     1      43.885 -16.068   6.697  1.00  0.00     0.001 A 
HETATM   27  H   UNL     1      39.586 -13.825   6.577  1.00  0.00     0.165 HD
HETATM   28  C   UNL     1      41.105 -12.426   6.103  1.00  0.00     0.097 A 
ENDBRANCH  18  19
ENDBRANCH   2  18
TORSDOF 4
ENDMDL
MODEL 2
REMARK VINA RESULT:      -7.8      2.763      4.883
REMARK  4 active torsions:
REMARK  status: ('A' for Active; 'I' for Inactive)
REMARK    1  A    between atoms: C_7  and  C_8 
REMARK    2  A    between atoms: N_9  and  N_10 
REMARK       I    between atoms: N_10  and  C_11 
REMARK    3  A    between atoms: C_11  and  C_12 
REMARK    4  A    between atoms: C_12  and  C_13 
ROOT
HETATM    1  N   UNL     1      41.265 -14.042   1.812  1.00  0.00    -0.247 N 
HETATM    2  C   UNL     1      41.176 -15.428   1.716  1.00  0.00     0.241 C 
HETATM    3  O   UNL     1      40.148 -16.078   1.900  1.00  0.00    -0.271 OA
HETATM    4  H   UNL     1      42.059 -13.532   1.453  1.00  0.00     0.192 HD
ENDROOT
BRANCH   1   5
HETATM    5  N   UNL     1      40.208 -13.350   2.278  1.00  0.00    -0.184 NA
HETATM    6  C   UNL     1      40.192 -12.792   3.449  1.00  0.00     0.153 C 
BRANCH   6   7
HETATM    7  C   UNL     1      41.136 -12.803   4.565  1.00  0.00     0.018 A 
HETATM    8  C   UNL     1      42.118 -11.904   4.984  1.00  0.00     0.018 A 
HETATM    9  C   UNL     1      42.627 -10.597   4.493  1.00  0.00     0.069 C 
HETATM   10  N   UNL     1      42.755 -12.463   6.072  1.00  0.00    -0.358 N 
HETATM   11  H   UNL     1      43.519 -12.032   6.576  1.00  0.00     0.166 HD
HETATM   12  C   UNL     1      42.304 -13.730   6.319  1.00  0.00     0.043 A 
HETATM   13  C   UNL     1      41.273 -13.970   5.418  1.00  0.00     0.004 A 
HETATM   14  C   UNL     1      42.742 -14.675   7.255  1.00  0.00     0.030 A 
HETATM   15  C   UNL     1      40.626 -15.227   5.476  1.00  0.00     0.014 A 
HETATM   16  C   UNL     1      41.051 -16.188   6.401  1.00  0.00     0.001 A 
HETATM   17  C   UNL     1      42.099 -15.915   7.274  1.00  0.00     0.002 A 
ENDBRANCH   6   7
ENDBRANCH   1   5
BRANCH   2  18
HETATM   18  C   UNL     1      42.504 -16.091   1.396  1.00  0.00     0.145 C 
BRANCH  18  19
HETATM   19  C   UNL     1      43.132 -16.772   2.578  1.00  0.00    -0.021 A 
HETATM   20  C   UNL     1      43.349 -18.178   2.787  1.00  0.00    -0.001 A 
HETATM   21  C   UNL     1      43.909 -18.333   4.058  1.00  0.00     0.042 A 
HETATM   22  C   UNL     1      43.130 -19.343   2.021  1.00  0.00     0.014 A 
HETATM   23  C   UNL     1      44.231 -19.581   4.604  1.00  0.00     0.030 A 
HETATM   24  N   UNL     1      44.066 -17.073   4.586  1.00  0.00    -0.365 N 
HETATM   25  C   UNL     1      43.978 -20.716   3.830  1.00  0.00     0.002 A 
HETATM   26  C   UNL     1      43.440 -20.601   2.553  1.00  0.00     0.001 A 
HETATM   27  H   UNL     1      44.477 -16.881   5.489  1.00  0.00     0.165 HD
HETATM   28  C   UNL     1      43.590 -16.132   3.716  1.00  0.00     0.097 A 
ENDBRANCH  18  19
ENDBRANCH   2  18
TORSDOF 4
ENDMDL
MODEL 3
REMARK VINA RESULT:      -7.8      2.835      4.838
REMARK  4 active torsions:
REMARK  status: ('A' for Active; 'I' for Inactive)
REMARK    1  A    between atoms: C_7  and  C_8 
REMARK    2  A    between atoms: N_9  and  N_10 
REMARK       I    between atoms: N_10  and  C_11 
REMARK    3  A    between atoms: C_11  and  C_12 
REMARK    4  A    between atoms: C_12  and  C_13 
ROOT
HETATM    1  N   UNL     1      41.630 -16.330   6.560  1.00  0.00    -0.247 N 
HETATM    2  C   UNL     1      42.844 -15.970   7.140  1.00  0.00     0.241 C 
HETATM    3  O   UNL     1      42.982 -15.082   7.980  1.00  0.00    -0.271 OA
HETATM    4  H   UNL     1      41.520 -17.190   6.041  1.00  0.00     0.192 HD
ENDROOT
BRANCH   1   5
HETATM    5  N   UNL     1      40.540 -15.579   6.807  1.00  0.00    -0.184 NA
HETATM    6  C   UNL     1      40.196 -14.572   6.064  1.00  0.00     0.153 C 
BRANCH   6   7
HETATM    7  C   UNL     1      40.833 -13.919   4.921  1.00  0.00     0.018 A 
HETATM    8  C   UNL     1      41.490 -12.698   4.773  1.00  0.00     0.018 A 
HETATM    9  C   UNL     1      41.810 -11.558   5.671  1.00  0.00     0.069 C 
HETATM   10  N   UNL     1      41.834 -12.571   3.443  1.00  0.00    -0.358 N 
HETATM   11  H   UNL     1      42.316 -11.775   3.046  1.00  0.00     0.166 HD
HETATM   12  C   UNL     1      41.340 -13.606   2.698  1.00  0.00     0.043 A 
HETATM   13  C   UNL     1      40.733 -14.484   3.587  1.00  0.00     0.004 A 
HETATM   14  C   UNL     1      41.376 -13.816   1.314  1.00  0.00     0.030 A 
HETATM   15  C   UNL     1      40.145 -15.657   3.058  1.00  0.00     0.014 A 
HETATM   16  C   UNL     1      40.164 -15.884   1.676  1.00  0.00     0.001 A 
HETATM   17  C   UNL     1      40.768 -14.971   0.817  1.00  0.00     0.002 A 
ENDBRANCH   6   7
ENDBRANCH   1   5
BRANCH   2  18
HETATM   18  C   UNL     1      44.021 -16.763   6.599  1.00  0.00     0.145 C 
BRANCH  18  19
HETATM   19  C   UNL     1      43.830 -17.223   5.182  1.00  0.00    -0.021 A 
HETATM   20  C   UNL     1      43.843 -18.566   4.670  1.00  0.00    -0.001 A 
HETATM   21  C   UNL     1      43.681 -18.490   3.284  1.00  0.00     0.042 A 
HETATM   22  C   UNL     1      43.973 -19.849   5.245  1.00  0.00     0.014 A 
HETATM   23  C   UNL     1      43.670 -19.617   2.453  1.00  0.00     0.030 A 
HETATM   24  N   UNL     1      43.533 -17.161   2.968  1.00  0.00    -0.365 N 
HETATM   25  C   UNL     1      43.827 -20.870   3.052  1.00  0.00     0.002 A 
HETATM   26  C   UNL     1      43.971 -20.987   4.429  1.00  0.00     0.001 A 
HETATM   27  H   UNL     1      43.370 -16.811   2.034  1.00  0.00     0.165 HD
HETATM   28  C   UNL     1      43.636 -16.391   4.094  1.00  0.00     0.097 A 
ENDBRANCH  18  19
ENDBRANCH   2  18
TORSDOF 4
ENDMDL
MODEL 4
REMARK VINA RESULT:      -7.8      2.459      4.256
REMARK  4 active torsions:
REMARK  status: ('A' for Active; 'I' for Inactive)
REMARK    1  A    between atoms: C_7  and  C_8 
REMARK    2  A    between atoms: N_9  and  N_10 
REMARK       I    between atoms: N_10  and  C_11 
REMARK    3  A    between atoms: C_11  and  C_12 
REMARK    4  A    between atoms: C_12  and  C_13 
ROOT
HETATM    1  N   UNL     1      41.043 -13.861   6.473  1.00  0.00    -0.247 N 
HETATM    2  C   UNL     1      41.076 -15.202   6.847  1.00  0.00     0.241 C 
HETATM    3  O   UNL     1      40.089 -15.933   6.921  1.00  0.00    -0.271 OA
HETATM    4  H   UNL     1      41.880 -13.356   6.221  1.00  0.00     0.192 HD
ENDROOT
BRANCH   1   5
HETATM    5  N   UNL     1      39.850 -13.256   6.316  1.00  0.00    -0.184 NA
HETATM    6  C   UNL     1      39.482 -12.706   5.200  1.00  0.00     0.153 C 
BRANCH   6   7
HETATM    7  C   UNL     1      40.170 -12.482   3.930  1.00  0.00     0.018 A 
HETATM    8  C   UNL     1      40.781 -11.360   3.369  1.00  0.00     0.018 A 
HETATM    9  C   UNL     1      40.984  -9.950   3.791  1.00  0.00     0.069 C 
HETATM   10  N   UNL     1      41.215 -11.712   2.108  1.00  0.00    -0.358 N 
HETATM   11  H   UNL     1      41.688 -11.089   1.467  1.00  0.00     0.166 HD
HETATM   12  C   UNL     1      40.823 -12.981   1.780  1.00  0.00     0.043 A 
HETATM   13  C   UNL     1      40.193 -13.506   2.902  1.00  0.00     0.004 A 
HETATM   14  C   UNL     1      40.969 -13.686   0.579  1.00  0.00     0.030 A 
HETATM   15  C   UNL     1      39.697 -14.829   2.820  1.00  0.00     0.014 A 
HETATM   16  C   UNL     1      39.827 -15.550   1.627  1.00  0.00     0.001 A 
HETATM   17  C   UNL     1      40.450 -14.981   0.521  1.00  0.00     0.002 A 
ENDBRANCH   6   7
ENDBRANCH   1   5
BRANCH   2  18
HETATM   18  C   UNL     1      42.470 -15.687   7.206  1.00  0.00     0.145 C 
BRANCH  18  19
HETATM   19  C   UNL     1      42.968 -16.786   6.310  1.00  0.00    -0.021 A 
HETATM   20  C   UNL     1      43.145 -16.764   4.884  1.00  0.00    -0.001 A 
HETATM   21  C   UNL     1      43.573 -18.035   4.493  1.00  0.00     0.042 A 
HETATM   22  C   UNL     1      42.988 -15.787   3.877  1.00  0.00     0.014 A 
HETATM   23  C   UNL     1      43.822 -18.380   3.159  1.00  0.00     0.030 A 
HETATM   24  N   UNL     1      43.694 -18.789   5.636  1.00  0.00    -0.365 N 
HETATM   25  C   UNL     1      43.633 -17.397   2.185  1.00  0.00     0.002 A 
HETATM   26  C   UNL     1      43.226 -16.115   2.537  1.00  0.00     0.001 A 
HETATM   27  H   UNL     1      44.015 -19.747   5.656  1.00  0.00     0.165 HD
HETATM   28  C   UNL     1      43.319 -18.057   6.729  1.00  0.00     0.097 A 
ENDBRANCH  18  19
ENDBRANCH   2  18
TORSDOF 4
ENDMDL
MODEL 5
REMARK VINA RESULT:      -7.5      2.808      5.198
REMARK  4 active torsions:
REMARK  status: ('A' for Active; 'I' for Inactive)
REMARK    1  A    between atoms: C_7  and  C_8 
REMARK    2  A    between atoms: N_9  and  N_10 
REMARK       I    between atoms: N_10  and  C_11 
REMARK    3  A    between atoms: C_11  and  C_12 
REMARK    4  A    between atoms: C_12  and  C_13 
ROOT
HETATM    1  N   UNL     1      41.413 -13.978   2.152  1.00  0.00    -0.247 N 
HETATM    2  C   UNL     1      41.136 -15.343   2.127  1.00  0.00     0.241 C 
HETATM    3  O   UNL     1      40.067 -15.847   2.467  1.00  0.00    -0.271 OA
HETATM    4  H   UNL     1      42.211 -13.586   1.674  1.00  0.00     0.192 HD
ENDROOT
BRANCH   1   5
HETATM    5  N   UNL     1      40.522 -13.142   2.718  1.00  0.00    -0.184 NA
HETATM    6  C   UNL     1      40.552 -12.828   3.977  1.00  0.00     0.153 C 
BRANCH   6   7
HETATM    7  C   UNL     1      41.377 -13.285   5.093  1.00  0.00     0.018 A 
HETATM    8  C   UNL     1      41.157 -14.203   6.120  1.00  0.00     0.018 A 
HETATM    9  C   UNL     1      40.027 -15.078   6.526  1.00  0.00     0.069 C 
HETATM   10  N   UNL     1      42.269 -14.188   6.937  1.00  0.00    -0.358 N 
HETATM   11  H   UNL     1      42.381 -14.752   7.768  1.00  0.00     0.166 HD
HETATM   12  C   UNL     1      43.161 -13.226   6.547  1.00  0.00     0.043 A 
HETATM   13  C   UNL     1      42.655 -12.660   5.384  1.00  0.00     0.004 A 
HETATM   14  C   UNL     1      44.358 -12.815   7.146  1.00  0.00     0.030 A 
HETATM   15  C   UNL     1      43.408 -11.631   4.770  1.00  0.00     0.014 A 
HETATM   16  C   UNL     1      44.606 -11.200   5.354  1.00  0.00     0.001 A 
HETATM   17  C   UNL     1      45.069 -11.782   6.529  1.00  0.00     0.002 A 
ENDBRANCH   6   7
ENDBRANCH   1   5
BRANCH   2  18
HETATM   18  C   UNL     1      42.316 -16.182   1.669  1.00  0.00     0.145 C 
BRANCH  18  19
HETATM   19  C   UNL     1      43.013 -16.895   2.793  1.00  0.00    -0.021 A 
HETATM   20  C   UNL     1      43.315 -18.295   2.912  1.00  0.00    -0.001 A 
HETATM   21  C   UNL     1      43.917 -18.492   4.157  1.00  0.00     0.042 A 
HETATM   22  C   UNL     1      43.142 -19.424   2.082  1.00  0.00     0.014 A 
HETATM   23  C   UNL     1      44.324 -19.750   4.619  1.00  0.00     0.030 A 
HETATM   24  N   UNL     1      44.018 -17.259   4.756  1.00  0.00    -0.365 N 
HETATM   25  C   UNL     1      44.114 -20.850   3.783  1.00  0.00     0.002 A 
HETATM   26  C   UNL     1      43.536 -20.691   2.529  1.00  0.00     0.001 A 
HETATM   27  H   UNL     1      44.441 -17.096   5.659  1.00  0.00     0.165 HD
HETATM   28  C   UNL     1      43.466 -16.297   3.956  1.00  0.00     0.097 A 
ENDBRANCH  18  19
ENDBRANCH   2  18
TORSDOF 4
ENDMDL
MODEL 6
REMARK VINA RESULT:      -7.4      2.761      4.743
REMARK  4 active torsions:
REMARK  status: ('A' for Active; 'I' for Inactive)
REMARK    1  A    between atoms: C_7  and  C_8 
REMARK    2  A    between atoms: N_9  and  N_10 
REMARK       I    between atoms: N_10  and  C_11 
REMARK    3  A    between atoms: C_11  and  C_12 
REMARK    4  A    between atoms: C_12  and  C_13 
ROOT
HETATM    1  N   UNL     1      41.274 -14.679   0.523  1.00  0.00    -0.247 N 
HETATM    2  C   UNL     1      41.520 -15.674   1.466  1.00  0.00     0.241 C 
HETATM    3  O   UNL     1      40.668 -16.161   2.208  1.00  0.00    -0.271 OA
HETATM    4  H   UNL     1      41.939 -14.456  -0.204  1.00  0.00     0.192 HD
ENDROOT
BRANCH   1   5
HETATM    5  N   UNL     1      40.065 -14.087   0.498  1.00  0.00    -0.184 NA
HETATM    6  C   UNL     1      39.863 -12.880   0.930  1.00  0.00     0.153 C 
BRANCH   6   7
HETATM    7  C   UNL     1      40.727 -11.908   1.598  1.00  0.00     0.018 A 
HETATM    8  C   UNL     1      41.392 -10.766   1.152  1.00  0.00     0.018 A 
HETATM    9  C   UNL     1      41.523 -10.067  -0.153  1.00  0.00     0.069 C 
HETATM   10  N   UNL     1      42.121 -10.269   2.212  1.00  0.00    -0.358 N 
HETATM   11  H   UNL     1      42.708  -9.447   2.172  1.00  0.00     0.166 HD
HETATM   12  C   UNL     1      42.044 -11.093   3.301  1.00  0.00     0.043 A 
HETATM   13  C   UNL     1      41.160 -12.112   2.969  1.00  0.00     0.004 A 
HETATM   14  C   UNL     1      42.698 -11.014   4.536  1.00  0.00     0.030 A 
HETATM   15  C   UNL     1      40.900 -13.103   3.945  1.00  0.00     0.014 A 
HETATM   16  C   UNL     1      41.548 -13.047   5.186  1.00  0.00     0.001 A 
HETATM   17  C   UNL     1      42.439 -12.018   5.472  1.00  0.00     0.002 A 
ENDBRANCH   6   7
ENDBRANCH   1   5
BRANCH   2  18
HETATM   18  C   UNL     1      42.979 -16.089   1.529  1.00  0.00     0.145 C 
BRANCH  18  19
HETATM   19  C   UNL     1      43.348 -16.780   2.811  1.00  0.00    -0.021 A 
HETATM   20  C   UNL     1      43.532 -18.187   3.046  1.00  0.00    -0.001 A 
HETATM   21  C   UNL     1      43.810 -18.352   4.405  1.00  0.00     0.042 A 
HETATM   22  C   UNL     1      43.494 -19.344   2.239  1.00  0.00     0.014 A 
HETATM   23  C   UNL     1      44.022 -19.605   4.994  1.00  0.00     0.030 A 
HETATM   24  N   UNL     1      43.837 -17.099   4.968  1.00  0.00    -0.365 N 
HETATM   25  C   UNL     1      43.952 -20.732   4.172  1.00  0.00     0.002 A 
HETATM   26  C   UNL     1      43.697 -20.605   2.811  1.00  0.00     0.001 A 
HETATM   27  H   UNL     1      44.044 -16.914   5.939  1.00  0.00     0.165 HD
HETATM   28  C   UNL     1      43.547 -16.150   4.026  1.00  0.00     0.097 A 
ENDBRANCH  18  19
ENDBRANCH   2  18
TORSDOF 4
ENDMDL
MODEL 7
REMARK VINA RESULT:      -7.3      2.867      4.847
REMARK  4 active torsions:
REMARK  status: ('A' for Active; 'I' for Inactive)
REMARK    1  A    between atoms: C_7  and  C_8 
REMARK    2  A    between atoms: N_9  and  N_10 
REMARK       I    between atoms: N_10  and  C_11 
REMARK    3  A    between atoms: C_11  and  C_12 
REMARK    4  A    between atoms: C_12  and  C_13 
ROOT
HETATM    1  N   UNL     1      41.668 -13.255   5.519  1.00  0.00    -0.247 N 
HETATM    2  C   UNL     1      43.002 -13.140   5.902  1.00  0.00     0.241 C 
HETATM    3  O   UNL     1      43.600 -13.951   6.607  1.00  0.00    -0.271 OA
HETATM    4  H   UNL     1      41.275 -12.693   4.778  1.00  0.00     0.192 HD
ENDROOT
BRANCH   1   5
HETATM    5  N   UNL     1      40.916 -14.233   6.059  1.00  0.00    -0.184 NA
HETATM    6  C   UNL     1      40.803 -15.410   5.525  1.00  0.00     0.153 C 
BRANCH   6   7
HETATM    7  C   UNL     1      41.294 -15.983   4.273  1.00  0.00     0.018 A 
HETATM    8  C   UNL     1      40.830 -15.924   2.958  1.00  0.00     0.018 A 
HETATM    9  C   UNL     1      39.671 -15.289   2.278  1.00  0.00     0.069 C 
HETATM   10  N   UNL     1      41.660 -16.713   2.189  1.00  0.00    -0.358 N 
HETATM   11  H   UNL     1      41.555 -16.862   1.195  1.00  0.00     0.166 HD
HETATM   12  C   UNL     1      42.582 -17.367   2.959  1.00  0.00     0.043 A 
HETATM   13  C   UNL     1      42.406 -16.916   4.262  1.00  0.00     0.004 A 
HETATM   14  C   UNL     1      43.538 -18.324   2.600  1.00  0.00     0.030 A 
HETATM   15  C   UNL     1      43.256 -17.443   5.263  1.00  0.00     0.014 A 
HETATM   16  C   UNL     1      44.217 -18.406   4.926  1.00  0.00     0.001 A 
HETATM   17  C   UNL     1      44.349 -18.843   3.612  1.00  0.00     0.002 A 
ENDBRANCH   6   7
ENDBRANCH   1   5
BRANCH   2  18
HETATM   18  C   UNL     1      43.661 -11.870   5.393  1.00  0.00     0.145 C 
BRANCH  18  19
HETATM   19  C   UNL     1      44.627 -11.266   6.373  1.00  0.00    -0.021 A 
HETATM   20  C   UNL     1      44.338 -10.510   7.561  1.00  0.00    -0.001 A 
HETATM   21  C   UNL     1      45.558 -10.110   8.112  1.00  0.00     0.042 A 
HETATM   22  C   UNL     1      43.158 -10.125   8.233  1.00  0.00     0.014 A 
HETATM   23  C   UNL     1      45.654  -9.331   9.272  1.00  0.00     0.030 A 
HETATM   24  N   UNL     1      46.550 -10.634   7.319  1.00  0.00    -0.365 N 
HETATM   25  C   UNL     1      44.465  -8.945   9.898  1.00  0.00     0.002 A 
HETATM   26  C   UNL     1      43.234  -9.341   9.390  1.00  0.00     0.001 A 
HETATM   27  H   UNL     1      47.540 -10.527   7.497  1.00  0.00     0.165 HD
HETATM   28  C   UNL     1      46.006 -11.315   6.265  1.00  0.00     0.097 A 
ENDBRANCH  18  19
ENDBRANCH   2  18
TORSDOF 4
ENDMDL
MODEL 8
REMARK VINA RESULT:      -7.2      3.308      4.855
REMARK  4 active torsions:
REMARK  status: ('A' for Active; 'I' for Inactive)
REMARK    1  A    between atoms: C_7  and  C_8 
REMARK    2  A    between atoms: N_9  and  N_10 
REMARK       I    between atoms: N_10  and  C_11 
REMARK    3  A    between atoms: C_11  and  C_12 
REMARK    4  A    between atoms: C_12  and  C_13 
ROOT
HETATM    1  N   UNL     1      41.424 -14.077   3.138  1.00  0.00    -0.247 N 
HETATM    2  C   UNL     1      41.686 -15.390   2.755  1.00  0.00     0.241 C 
HETATM    3  O   UNL     1      40.825 -16.224   2.478  1.00  0.00    -0.271 OA
HETATM    4  H   UNL     1      42.145 -13.371   3.151  1.00  0.00     0.192 HD
ENDROOT
BRANCH   1   5
HETATM    5  N   UNL     1      40.150 -13.707   3.371  1.00  0.00    -0.184 NA
HETATM    6  C   UNL     1      39.473 -12.962   2.552  1.00  0.00     0.153 C 
BRANCH   6   7
HETATM    7  C   UNL     1      39.830 -12.269   1.316  1.00  0.00     0.018 A 
HETATM    8  C   UNL     1      40.048 -10.925   1.012  1.00  0.00     0.018 A 
HETATM    9  C   UNL     1      40.003  -9.652   1.778  1.00  0.00     0.069 C 
HETATM   10  N   UNL     1      40.296 -10.839  -0.342  1.00  0.00    -0.358 N 
HETATM   11  H   UNL     1      40.480  -9.980  -0.841  1.00  0.00     0.166 HD
HETATM   12  C   UNL     1      40.147 -12.054  -0.954  1.00  0.00     0.043 A 
HETATM   13  C   UNL     1      39.885 -12.978   0.050  1.00  0.00     0.004 A 
HETATM   14  C   UNL     1      40.211 -12.391  -2.312  1.00  0.00     0.030 A 
HETATM   15  C   UNL     1      39.697 -14.328  -0.330  1.00  0.00     0.014 A 
HETATM   16  C   UNL     1      39.752 -14.686  -1.683  1.00  0.00     0.001 A 
HETATM   17  C   UNL     1      40.000 -13.727  -2.659  1.00  0.00     0.002 A 
ENDBRANCH   6   7
ENDBRANCH   1   5
BRANCH   2  18
HETATM   18  C   UNL     1      43.168 -15.725   2.747  1.00  0.00     0.145 C 
BRANCH  18  19
HETATM   19  C   UNL     1      43.540 -16.809   3.719  1.00  0.00    -0.021 A 
HETATM   20  C   UNL     1      43.619 -18.226   3.489  1.00  0.00    -0.001 A 
HETATM   21  C   UNL     1      43.946 -18.832   4.704  1.00  0.00     0.042 A 
HETATM   22  C   UNL     1      43.449 -19.062   2.364  1.00  0.00     0.014 A 
HETATM   23  C   UNL     1      44.083 -20.217   4.854  1.00  0.00     0.030 A 
HETATM   24  N   UNL     1      44.102 -17.826   5.628  1.00  0.00    -0.365 N 
HETATM   25  C   UNL     1      43.884 -21.018   3.727  1.00  0.00     0.002 A 
HETATM   26  C   UNL     1      43.576 -20.450   2.496  1.00  0.00     0.001 A 
HETATM   27  H   UNL     1      44.368 -17.973   6.591  1.00  0.00     0.165 HD
HETATM   28  C   UNL     1      43.846 -16.611   5.054  1.00  0.00     0.097 A 
ENDBRANCH  18  19
ENDBRANCH   2  18
TORSDOF 4
ENDMDL
MODEL 9
REMARK VINA RESULT:      -7.2      2.348      4.231
REMARK  4 active torsions:
REMARK  status: ('A' for Active; 'I' for Inactive)
REMARK    1  A    between atoms: C_7  and  C_8 
REMARK    2  A    between atoms: N_9  and  N_10 
REMARK       I    between atoms: N_10  and  C_11 
REMARK    3  A    between atoms: C_11  and  C_12 
REMARK    4  A    between atoms: C_12  and  C_13 
ROOT
HETATM    1  N   UNL     1      39.703 -13.203   4.941  1.00  0.00    -0.247 N 
HETATM    2  C   UNL     1      40.726 -13.817   5.660  1.00  0.00     0.241 C 
HETATM    3  O   UNL     1      41.763 -13.259   6.017  1.00  0.00    -0.271 OA
HETATM    4  H   UNL     1      38.789 -13.622   4.850  1.00  0.00     0.192 HD
ENDROOT
BRANCH   1   5
HETATM    5  N   UNL     1      39.896 -11.959   4.465  1.00  0.00    -0.184 NA
HETATM    6  C   UNL     1      40.287 -11.723   3.250  1.00  0.00     0.153 C 
BRANCH   6   7
HETATM    7  C   UNL     1      40.702 -12.596   2.154  1.00  0.00     0.018 A 
HETATM    8  C   UNL     1      41.844 -13.368   1.938  1.00  0.00     0.018 A 
HETATM    9  C   UNL     1      43.100 -13.623   2.689  1.00  0.00     0.069 C 
HETATM   10  N   UNL     1      41.726 -13.944   0.690  1.00  0.00    -0.358 N 
HETATM   11  H   UNL     1      42.416 -14.550   0.268  1.00  0.00     0.166 HD
HETATM   12  C   UNL     1      40.607 -13.500   0.039  1.00  0.00     0.043 A 
HETATM   13  C   UNL     1      39.926 -12.680   0.930  1.00  0.00     0.004 A 
HETATM   14  C   UNL     1      40.165 -13.754  -1.265  1.00  0.00     0.030 A 
HETATM   15  C   UNL     1      38.713 -12.096   0.493  1.00  0.00     0.014 A 
HETATM   16  C   UNL     1      38.255 -12.332  -0.809  1.00  0.00     0.001 A 
HETATM   17  C   UNL     1      38.976 -13.147  -1.676  1.00  0.00     0.002 A 
ENDBRANCH   6   7
ENDBRANCH   1   5
BRANCH   2  18
HETATM   18  C   UNL     1      40.462 -15.287   5.938  1.00  0.00     0.145 C 
BRANCH  18  19
HETATM   19  C   UNL     1      41.693 -16.143   5.842  1.00  0.00    -0.021 A 
HETATM   20  C   UNL     1      42.251 -16.778   4.679  1.00  0.00    -0.001 A 
HETATM   21  C   UNL     1      43.363 -17.514   5.095  1.00  0.00     0.042 A 
HETATM   22  C   UNL     1      41.926 -16.800   3.306  1.00  0.00     0.014 A 
HETATM   23  C   UNL     1      44.140 -18.284   4.220  1.00  0.00     0.030 A 
HETATM   24  N   UNL     1      43.504 -17.304   6.446  1.00  0.00    -0.365 N 
HETATM   25  C   UNL     1      43.776 -18.304   2.872  1.00  0.00     0.002 A 
HETATM   26  C   UNL     1      42.687 -17.569   2.417  1.00  0.00     0.001 A 
HETATM   27  H   UNL     1      44.247 -17.694   7.009  1.00  0.00     0.165 HD
HETATM   28  C   UNL     1      42.501 -16.497   6.908  1.00  0.00     0.097 A 
ENDBRANCH  18  19
ENDBRANCH   2  18
TORSDOF 4
ENDMDL
MODEL 10
REMARK VINA RESULT:      -7.2      2.763      4.519
REMARK  4 active torsions:
REMARK  status: ('A' for Active; 'I' for Inactive)
REMARK    1  A    between atoms: C_7  and  C_8 
REMARK    2  A    between atoms: N_9  and  N_10 
REMARK       I    between atoms: N_10  and  C_11 
REMARK    3  A    between atoms: C_11  and  C_12 
REMARK    4  A    between atoms: C_12  and  C_13 
ROOT
HETATM    1  N   UNL     1      41.121 -13.633   6.295  1.00  0.00    -0.247 N 
HETATM    2  C   UNL     1      40.347 -12.548   5.888  1.00  0.00     0.241 C 
HETATM    3  O   UNL     1      39.118 -12.510   5.932  1.00  0.00    -0.271 OA
HETATM    4  H   UNL     1      42.117 -13.552   6.443  1.00  0.00     0.192 HD
ENDROOT
BRANCH   1   5
HETATM    5  N   UNL     1      40.508 -14.785   6.625  1.00  0.00    -0.184 NA
HETATM    6  C   UNL     1      40.591 -15.859   5.902  1.00  0.00     0.153 C 
BRANCH   6   7
HETATM    7  C   UNL     1      41.202 -16.136   4.603  1.00  0.00     0.018 A 
HETATM    8  C   UNL     1      40.847 -15.797   3.298  1.00  0.00     0.018 A 
HETATM    9  C   UNL     1      39.728 -15.046   2.672  1.00  0.00     0.069 C 
HETATM   10  N   UNL     1      41.764 -16.386   2.451  1.00  0.00    -0.358 N 
HETATM   11  H   UNL     1      41.746 -16.315   1.443  1.00  0.00     0.166 HD
HETATM   12  C   UNL     1      42.640 -17.179   3.139  1.00  0.00     0.043 A 
HETATM   13  C   UNL     1      42.342 -17.028   4.488  1.00  0.00     0.004 A 
HETATM   14  C   UNL     1      43.654 -18.020   2.666  1.00  0.00     0.030 A 
HETATM   15  C   UNL     1      43.124 -17.749   5.421  1.00  0.00     0.014 A 
HETATM   16  C   UNL     1      44.141 -18.600   4.969  1.00  0.00     0.001 A 
HETATM   17  C   UNL     1      44.396 -18.736   3.608  1.00  0.00     0.002 A 
ENDBRANCH   6   7
ENDBRANCH   1   5
BRANCH   2  18
HETATM   18  C   UNL     1      41.173 -11.400   5.334  1.00  0.00     0.145 C 
BRANCH  18  19
HETATM   19  C   UNL     1      42.009 -10.710   6.373  1.00  0.00    -0.021 A 
HETATM   20  C   UNL     1      43.426 -10.814   6.593  1.00  0.00    -0.001 A 
HETATM   21  C   UNL     1      43.737 -10.034   7.709  1.00  0.00     0.042 A 
HETATM   22  C   UNL     1      44.485 -11.491   5.951  1.00  0.00     0.014 A 
HETATM   23  C   UNL     1      45.034  -9.922   8.225  1.00  0.00     0.030 A 
HETATM   24  N   UNL     1      42.568  -9.445   8.128  1.00  0.00    -0.365 N 
HETATM   25  C   UNL     1      46.055 -10.626   7.581  1.00  0.00     0.002 A 
HETATM   26  C   UNL     1      45.787 -11.396   6.456  1.00  0.00     0.001 A 
HETATM   27  H   UNL     1      42.500  -8.802   8.905  1.00  0.00     0.165 HD
HETATM   28  C   UNL     1      41.524  -9.855   7.346  1.00  0.00     0.097 A 
ENDBRANCH  18  19
ENDBRANCH   2  18
TORSDOF 4
ENDMDL
