MODEL 1
REMARK VINA RESULT:      -8.8      0.000      0.000
REMARK  6 active torsions:
REMARK  status: ('A' for Active; 'I' for Inactive)
REMARK    1  A    between atoms: C_2  and  N_3 
REMARK    2  A    between atoms: C_5  and  C_6 
REMARK    3  A    between atoms: C_6  and  N_7 
REMARK       I    between atoms: N_7  and  C_8 
REMARK    4  A    between atoms: C_8  and  C_9 
REMARK    5  A    between atoms: C_9  and  C_10 
REMARK    6  A    between atoms: C_11  and  C_12 
ROOT
HETATM    1  C   UNL     1      43.065 -15.076   3.294  1.00  0.00     0.006 C 
HETATM    2  C   UNL     1      43.350 -16.204   4.148  1.00  0.00     0.096 C 
HETATM    3  N   UNL     1      43.446 -15.784   5.422  1.00  0.00    -0.173 NA
HETATM    4  N   UNL     1      43.068 -14.509   5.416  1.00  0.00    -0.282 N 
HETATM    5  H   UNL     1      42.983 -14.031   6.309  1.00  0.00     0.189 HD
HETATM    6  C   UNL     1      42.857 -14.013   4.166  1.00  0.00     0.033 C 
HETATM    7  C   UNL     1      42.439 -12.605   3.959  1.00  0.00     0.070 C 
ENDROOT
BRANCH   1   8
HETATM    8  C   UNL     1      42.964 -14.990   1.805  1.00  0.00     0.146 C 
BRANCH   8   9
HETATM    9  C   UNL     1      41.527 -15.222   1.353  1.00  0.00     0.222 C 
HETATM   10  N   UNL     1      41.132 -14.555   0.216  1.00  0.00    -0.359 N 
HETATM   11  H   UNL     1      41.756 -13.850  -0.164  1.00  0.00     0.162 HD
HETATM   12  O   UNL     1      40.758 -16.019   1.893  1.00  0.00    -0.273 OA
BRANCH  10  13
HETATM   13  C   UNL     1      39.771 -14.624  -0.306  1.00  0.00     0.155 C 
BRANCH  13  14
HETATM   14  C   UNL     1      39.420 -13.624  -1.442  1.00  0.00     0.206 C 
HETATM   15  N   UNL     1      37.940 -13.246  -1.433  1.00  0.00    -0.066 N 
HETATM   16  H   UNL     1      37.468 -13.898  -0.770  1.00  0.00     0.280 HD
HETATM   17  C   UNL     1      37.373 -13.557  -2.798  1.00  0.00     0.235 C 
HETATM   18  C   UNL     1      38.311 -14.606  -3.352  1.00  0.00     0.030 C 
HETATM   19  C   UNL     1      39.670 -14.164  -2.850  1.00  0.00     0.036 C 
BRANCH  15  20
HETATM   20  C   UNL     1      37.651 -11.869  -0.912  1.00  0.00     0.231 C 
HETATM   21  C   UNL     1      38.907 -11.017  -0.923  1.00  0.00     0.034 C 
ENDBRANCH  15  20
ENDBRANCH  13  14
ENDBRANCH  10  13
ENDBRANCH   8   9
ENDBRANCH   1   8
BRANCH   2  22
HETATM   22  C   UNL     1      43.549 -17.647   3.876  1.00  0.00    -0.005 A 
HETATM   23  C   UNL     1      43.318 -18.245   2.631  1.00  0.00     0.017 A 
HETATM   24  C   UNL     1      43.521 -19.619   2.437  1.00  0.00     0.043 A 
HETATM   25  C   UNL     1      43.948 -20.412   3.491  1.00  0.00     0.116 A 
HETATM   26  F   UNL     1      44.139 -21.723   3.298  1.00  0.00    -0.206 F 
HETATM   27  C   UNL     1      44.178 -19.859   4.739  1.00  0.00     0.043 A 
HETATM   28  C   UNL     1      43.980 -18.487   4.927  1.00  0.00     0.017 A 
ENDBRANCH   2  22
TORSDOF 6
ENDMDL
MODEL 2
REMARK VINA RESULT:      -8.2      2.132      3.271
REMARK  6 active torsions:
REMARK  status: ('A' for Active; 'I' for Inactive)
REMARK    1  A    between atoms: C_2  and  N_3 
REMARK    2  A    between atoms: C_5  and  C_6 
REMARK    3  A    between atoms: C_6  and  N_7 
REMARK       I    between atoms: N_7  and  C_8 
REMARK    4  A    between atoms: C_8  and  C_9 
REMARK    5  A    between atoms: C_9  and  C_10 
REMARK    6  A    between atoms: C_11  and  C_12 
ROOT
HETATM    1  C   UNL     1      41.816 -14.302   5.185  1.00  0.00     0.006 C 
HETATM    2  C   UNL     1      41.636 -15.725   5.015  1.00  0.00     0.096 C 
HETATM    3  N   UNL     1      40.494 -16.103   5.616  1.00  0.00    -0.173 NA
HETATM    4  N   UNL     1      39.887 -14.979   5.988  1.00  0.00    -0.282 N 
HETATM    5  H   UNL     1      38.953 -15.048   6.383  1.00  0.00     0.189 HD
HETATM    6  C   UNL     1      40.642 -13.864   5.787  1.00  0.00     0.033 C 
HETATM    7  C   UNL     1      40.136 -12.518   6.150  1.00  0.00     0.070 C 
ENDROOT
BRANCH   1   8
HETATM    8  C   UNL     1      42.958 -13.418   4.798  1.00  0.00     0.146 C 
BRANCH   8   9
HETATM    9  C   UNL     1      42.864 -13.037   3.325  1.00  0.00     0.222 C 
HETATM   10  N   UNL     1      42.095 -11.934   3.031  1.00  0.00    -0.359 N 
HETATM   11  H   UNL     1      41.529 -11.536   3.774  1.00  0.00     0.162 HD
HETATM   12  O   UNL     1      43.493 -13.601   2.429  1.00  0.00    -0.273 OA
BRANCH  10  13
HETATM   13  C   UNL     1      41.855 -11.481   1.664  1.00  0.00     0.155 C 
BRANCH  13  14
HETATM   14  C   UNL     1      40.635 -12.108   0.937  1.00  0.00     0.206 C 
HETATM   15  N   UNL     1      41.046 -13.248   0.008  1.00  0.00    -0.066 N 
HETATM   16  H   UNL     1      42.086 -13.219  -0.061  1.00  0.00     0.280 HD
HETATM   17  C   UNL     1      40.528 -12.930  -1.375  1.00  0.00     0.235 C 
HETATM   18  C   UNL     1      40.365 -11.426  -1.366  1.00  0.00     0.030 C 
HETATM   19  C   UNL     1      39.875 -11.133   0.037  1.00  0.00     0.036 C 
BRANCH  15  20
HETATM   20  C   UNL     1      40.718 -14.619   0.520  1.00  0.00     0.231 C 
HETATM   21  C   UNL     1      39.884 -14.535   1.784  1.00  0.00     0.034 C 
ENDBRANCH  15  20
ENDBRANCH  13  14
ENDBRANCH  10  13
ENDBRANCH   8   9
ENDBRANCH   1   8
BRANCH   2  22
HETATM   22  C   UNL     1      42.445 -16.768   4.343  1.00  0.00    -0.005 A 
HETATM   23  C   UNL     1      43.406 -17.551   4.995  1.00  0.00     0.017 A 
HETATM   24  C   UNL     1      44.143 -18.522   4.302  1.00  0.00     0.043 A 
HETATM   25  C   UNL     1      43.934 -18.713   2.944  1.00  0.00     0.116 A 
HETATM   26  F   UNL     1      44.642 -19.641   2.290  1.00  0.00    -0.206 F 
HETATM   27  C   UNL     1      42.999 -17.951   2.264  1.00  0.00     0.043 A 
HETATM   28  C   UNL     1      42.262 -16.989   2.959  1.00  0.00     0.017 A 
ENDBRANCH   2  22
TORSDOF 6
ENDMDL
MODEL 3
REMARK VINA RESULT:      -8.1      3.145      6.058
REMARK  6 active torsions:
REMARK  status: ('A' for Active; 'I' for Inactive)
REMARK    1  A    between atoms: C_2  and  N_3 
REMARK    2  A    between atoms: C_5  and  C_6 
REMARK    3  A    between atoms: C_6  and  N_7 
REMARK       I    between atoms: N_7  and  C_8 
REMARK    4  A    between atoms: C_8  and  C_9 
REMARK    5  A    between atoms: C_9  and  C_10 
REMARK    6  A    between atoms: C_11  and  C_12 
ROOT
HETATM    1  C   UNL     1      41.682 -15.601   2.914  1.00  0.00     0.006 C 
HETATM    2  C   UNL     1      42.717 -16.515   2.488  1.00  0.00     0.096 C 
HETATM    3  N   UNL     1      43.311 -16.029   1.383  1.00  0.00    -0.173 NA
HETATM    4  N   UNL     1      42.822 -14.803   1.214  1.00  0.00    -0.282 N 
HETATM    5  H   UNL     1      43.219 -14.228   0.476  1.00  0.00     0.189 HD
HETATM    6  C   UNL     1      41.817 -14.497   2.080  1.00  0.00     0.033 C 
HETATM    7  C   UNL     1      41.142 -13.178   2.036  1.00  0.00     0.070 C 
ENDROOT
BRANCH   1   8
HETATM    8  C   UNL     1      40.677 -15.723   4.013  1.00  0.00     0.146 C 
BRANCH   8   9
HETATM    9  C   UNL     1      41.057 -14.826   5.186  1.00  0.00     0.222 C 
HETATM   10  N   UNL     1      42.396 -14.771   5.500  1.00  0.00    -0.359 N 
HETATM   11  H   UNL     1      43.020 -15.427   5.041  1.00  0.00     0.162 HD
HETATM   12  O   UNL     1      40.257 -14.108   5.787  1.00  0.00    -0.273 OA
BRANCH  10  13
HETATM   13  C   UNL     1      42.909 -14.009   6.633  1.00  0.00     0.155 C 
BRANCH  13  14
HETATM   14  C   UNL     1      43.660 -12.693   6.292  1.00  0.00     0.206 C 
HETATM   15  N   UNL     1      43.183 -11.523   7.151  1.00  0.00    -0.066 N 
HETATM   16  H   UNL     1      42.324 -11.846   7.646  1.00  0.00     0.280 HD
HETATM   17  C   UNL     1      42.739 -10.417   6.222  1.00  0.00     0.235 C 
HETATM   18  C   UNL     1      42.409 -11.134   4.932  1.00  0.00     0.030 C 
HETATM   19  C   UNL     1      43.465 -12.217   4.852  1.00  0.00     0.036 C 
BRANCH  15  20
HETATM   20  C   UNL     1      44.138 -11.113   8.232  1.00  0.00     0.231 C 
HETATM   21  C   UNL     1      43.521 -10.046   9.117  1.00  0.00     0.034 C 
ENDBRANCH  15  20
ENDBRANCH  13  14
ENDBRANCH  10  13
ENDBRANCH   8   9
ENDBRANCH   1   8
BRANCH   2  22
HETATM   22  C   UNL     1      43.196 -17.811   3.021  1.00  0.00    -0.005 A 
HETATM   23  C   UNL     1      43.213 -19.000   2.282  1.00  0.00     0.017 A 
HETATM   24  C   UNL     1      43.677 -20.198   2.845  1.00  0.00     0.043 A 
HETATM   25  C   UNL     1      44.119 -20.221   4.159  1.00  0.00     0.116 A 
HETATM   26  F   UNL     1      44.560 -21.368   4.689  1.00  0.00    -0.206 F 
HETATM   27  C   UNL     1      44.110 -19.067   4.924  1.00  0.00     0.043 A 
HETATM   28  C   UNL     1      43.652 -17.873   4.357  1.00  0.00     0.017 A 
ENDBRANCH   2  22
TORSDOF 6
ENDMDL
MODEL 4
REMARK VINA RESULT:      -8.1      3.536      7.343
REMARK  6 active torsions:
REMARK  status: ('A' for Active; 'I' for Inactive)
REMARK    1  A    between atoms: C_2  and  N_3 
REMARK    2  A    between atoms: C_5  and  C_6 
REMARK    3  A    between atoms: C_6  and  N_7 
REMARK       I    between atoms: N_7  and  C_8 
REMARK    4  A    between atoms: C_8  and  C_9 
REMARK    5  A    between atoms: C_9  and  C_10 
REMARK    6  A    between atoms: C_11  and  C_12 
ROOT
HETATM    1  C   UNL     1      41.097 -13.908   2.990  1.00  0.00     0.006 C 
HETATM    2  C   UNL     1      41.076 -15.349   3.080  1.00  0.00     0.096 C 
HETATM    3  N   UNL     1      39.852 -15.797   2.748  1.00  0.00    -0.173 NA
HETATM    4  N   UNL     1      39.185 -14.738   2.298  1.00  0.00    -0.282 N 
HETATM    5  H   UNL     1      38.258 -14.888   1.908  1.00  0.00     0.189 HD
HETATM    6  C   UNL     1      39.864 -13.568   2.447  1.00  0.00     0.033 C 
HETATM    7  C   UNL     1      39.274 -12.278   2.012  1.00  0.00     0.070 C 
ENDROOT
BRANCH   1   8
HETATM    8  C   UNL     1      42.171 -12.932   3.347  1.00  0.00     0.146 C 
BRANCH   8   9
HETATM    9  C   UNL     1      41.948 -12.381   4.751  1.00  0.00     0.222 C 
HETATM   10  N   UNL     1      42.660 -11.250   5.081  1.00  0.00    -0.359 N 
HETATM   11  H   UNL     1      43.385 -10.941   4.441  1.00  0.00     0.162 HD
HETATM   12  O   UNL     1      41.123 -12.837   5.543  1.00  0.00    -0.273 OA
BRANCH  10  13
HETATM   13  C   UNL     1      42.603 -10.641   6.405  1.00  0.00     0.155 C 
BRANCH  13  14
HETATM   14  C   UNL     1      43.661 -11.131   7.432  1.00  0.00     0.206 C 
HETATM   15  N   UNL     1      44.483  -9.976   8.000  1.00  0.00    -0.066 N 
HETATM   16  H   UNL     1      44.263  -9.138   7.421  1.00  0.00     0.280 HD
HETATM   17  C   UNL     1      45.943 -10.281   7.753  1.00  0.00     0.235 C 
HETATM   18  C   UNL     1      45.923 -11.241   6.585  1.00  0.00     0.030 C 
HETATM   19  C   UNL     1      44.698 -12.092   6.851  1.00  0.00     0.036 C 
BRANCH  15  20
HETATM   20  C   UNL     1      44.133  -9.594   9.407  1.00  0.00     0.231 C 
HETATM   21  C   UNL     1      45.307  -9.837  10.338  1.00  0.00     0.034 C 
ENDBRANCH  15  20
ENDBRANCH  13  14
ENDBRANCH  10  13
ENDBRANCH   8   9
ENDBRANCH   1   8
BRANCH   2  22
HETATM   22  C   UNL     1      42.103 -16.349   3.457  1.00  0.00    -0.005 A 
HETATM   23  C   UNL     1      42.743 -16.378   4.702  1.00  0.00     0.017 A 
HETATM   24  C   UNL     1      43.710 -17.349   4.998  1.00  0.00     0.043 A 
HETATM   25  C   UNL     1      44.056 -18.296   4.046  1.00  0.00     0.116 A 
HETATM   26  F   UNL     1      44.981 -19.218   4.336  1.00  0.00    -0.206 F 
HETATM   27  C   UNL     1      43.452 -18.293   2.800  1.00  0.00     0.043 A 
HETATM   28  C   UNL     1      42.483 -17.327   2.511  1.00  0.00     0.017 A 
ENDBRANCH   2  22
TORSDOF 6
ENDMDL
MODEL 5
REMARK VINA RESULT:      -8.1      3.017      4.986
REMARK  6 active torsions:
REMARK  status: ('A' for Active; 'I' for Inactive)
REMARK    1  A    between atoms: C_2  and  N_3 
REMARK    2  A    between atoms: C_5  and  C_6 
REMARK    3  A    between atoms: C_6  and  N_7 
REMARK       I    between atoms: N_7  and  C_8 
REMARK    4  A    between atoms: C_8  and  C_9 
REMARK    5  A    between atoms: C_9  and  C_10 
REMARK    6  A    between atoms: C_11  and  C_12 
ROOT
HETATM    1  C   UNL     1      41.551 -15.845   2.588  1.00  0.00     0.006 C 
HETATM    2  C   UNL     1      42.741 -16.654   2.471  1.00  0.00     0.096 C 
HETATM    3  N   UNL     1      43.496 -16.190   1.459  1.00  0.00    -0.173 NA
HETATM    4  N   UNL     1      42.926 -15.053   1.069  1.00  0.00    -0.282 N 
HETATM    5  H   UNL     1      43.403 -14.495   0.366  1.00  0.00     0.189 HD
HETATM    6  C   UNL     1      41.738 -14.805   1.685  1.00  0.00     0.033 C 
HETATM    7  C   UNL     1      40.950 -13.587   1.371  1.00  0.00     0.070 C 
ENDROOT
BRANCH   1   8
HETATM    8  C   UNL     1      40.359 -16.000   3.477  1.00  0.00     0.146 C 
BRANCH   8   9
HETATM    9  C   UNL     1      40.569 -15.252   4.788  1.00  0.00     0.222 C 
HETATM   10  N   UNL     1      39.994 -14.004   4.877  1.00  0.00    -0.359 N 
HETATM   11  H   UNL     1      39.599 -13.602   4.033  1.00  0.00     0.162 HD
HETATM   12  O   UNL     1      41.138 -15.734   5.769  1.00  0.00    -0.273 OA
BRANCH  10  13
HETATM   13  C   UNL     1      40.159 -13.141   6.041  1.00  0.00     0.155 C 
BRANCH  13  14
HETATM   14  C   UNL     1      41.152 -11.958   5.883  1.00  0.00     0.206 C 
HETATM   15  N   UNL     1      41.060 -11.314   4.500  1.00  0.00    -0.066 N 
HETATM   16  H   UNL     1      40.473 -11.945   3.915  1.00  0.00     0.280 HD
HETATM   17  C   UNL     1      42.440 -11.339   3.884  1.00  0.00     0.235 C 
HETATM   18  C   UNL     1      43.142 -12.467   4.607  1.00  0.00     0.030 C 
HETATM   19  C   UNL     1      42.623 -12.353   6.025  1.00  0.00     0.036 C 
BRANCH  15  20
HETATM   20  C   UNL     1      40.367  -9.985   4.476  1.00  0.00     0.231 C 
HETATM   21  C   UNL     1      38.955 -10.126   3.938  1.00  0.00     0.034 C 
ENDBRANCH  15  20
ENDBRANCH  13  14
ENDBRANCH  10  13
ENDBRANCH   8   9
ENDBRANCH   1   8
BRANCH   2  22
HETATM   22  C   UNL     1      43.234 -17.832   3.222  1.00  0.00    -0.005 A 
HETATM   23  C   UNL     1      43.574 -17.806   4.580  1.00  0.00     0.017 A 
HETATM   24  C   UNL     1      44.038 -18.955   5.234  1.00  0.00     0.043 A 
HETATM   25  C   UNL     1      44.179 -20.143   4.533  1.00  0.00     0.116 A 
HETATM   26  F   UNL     1      44.624 -21.236   5.164  1.00  0.00    -0.206 F 
HETATM   27  C   UNL     1      43.862 -20.206   3.186  1.00  0.00     0.043 A 
HETATM   28  C   UNL     1      43.393 -19.059   2.539  1.00  0.00     0.017 A 
ENDBRANCH   2  22
TORSDOF 6
ENDMDL
MODEL 6
REMARK VINA RESULT:      -8.0      1.308      1.658
REMARK  6 active torsions:
REMARK  status: ('A' for Active; 'I' for Inactive)
REMARK    1  A    between atoms: C_2  and  N_3 
REMARK    2  A    between atoms: C_5  and  C_6 
REMARK    3  A    between atoms: C_6  and  N_7 
REMARK       I    between atoms: N_7  and  C_8 
REMARK    4  A    between atoms: C_8  and  C_9 
REMARK    5  A    between atoms: C_9  and  C_10 
REMARK    6  A    between atoms: C_11  and  C_12 
ROOT
HETATM    1  C   UNL     1      41.573 -15.350   3.983  1.00  0.00     0.006 C 
HETATM    2  C   UNL     1      42.727 -16.172   4.261  1.00  0.00     0.096 C 
HETATM    3  N   UNL     1      43.562 -15.504   5.077  1.00  0.00    -0.173 NA
HETATM    4  N   UNL     1      42.910 -14.405   5.448  1.00  0.00    -0.282 N 
HETATM    5  H   UNL     1      43.342 -13.806   6.146  1.00  0.00     0.189 HD
HETATM    6  C   UNL     1      41.724 -14.237   4.803  1.00  0.00     0.033 C 
HETATM    7  C   UNL     1      40.861 -13.062   5.078  1.00  0.00     0.070 C 
ENDROOT
BRANCH   1   8
HETATM    8  C   UNL     1      40.416 -15.583   3.066  1.00  0.00     0.146 C 
BRANCH   8   9
HETATM    9  C   UNL     1      40.741 -15.088   1.661  1.00  0.00     0.222 C 
HETATM   10  N   UNL     1      39.675 -14.964   0.798  1.00  0.00    -0.359 N 
HETATM   11  H   UNL     1      38.779 -15.342   1.092  1.00  0.00     0.162 HD
HETATM   12  O   UNL     1      41.862 -14.723   1.304  1.00  0.00    -0.273 OA
BRANCH  10  13
HETATM   13  C   UNL     1      39.831 -14.564  -0.596  1.00  0.00     0.155 C 
BRANCH  13  14
HETATM   14  C   UNL     1      39.504 -13.081  -0.925  1.00  0.00     0.206 C 
HETATM   15  N   UNL     1      38.928 -12.922  -2.330  1.00  0.00    -0.066 N 
HETATM   16  H   UNL     1      39.061 -13.835  -2.814  1.00  0.00     0.280 HD
HETATM   17  C   UNL     1      39.788 -11.926  -3.073  1.00  0.00     0.235 C 
HETATM   18  C   UNL     1      41.115 -11.979  -2.351  1.00  0.00     0.030 C 
HETATM   19  C   UNL     1      40.719 -12.153  -0.899  1.00  0.00     0.036 C 
BRANCH  15  20
HETATM   20  C   UNL     1      37.452 -12.658  -2.373  1.00  0.00     0.231 C 
HETATM   21  C   UNL     1      37.160 -11.195  -2.094  1.00  0.00     0.034 C 
ENDBRANCH  15  20
ENDBRANCH  13  14
ENDBRANCH  10  13
ENDBRANCH   8   9
ENDBRANCH   1   8
BRANCH   2  22
HETATM   22  C   UNL     1      43.123 -17.530   3.823  1.00  0.00    -0.005 A 
HETATM   23  C   UNL     1      42.881 -18.038   2.541  1.00  0.00     0.017 A 
HETATM   24  C   UNL     1      43.278 -19.335   2.187  1.00  0.00     0.043 A 
HETATM   25  C   UNL     1      43.913 -20.144   3.118  1.00  0.00     0.116 A 
HETATM   26  F   UNL     1      44.288 -21.382   2.773  1.00  0.00    -0.206 F 
HETATM   27  C   UNL     1      44.161 -19.681   4.398  1.00  0.00     0.043 A 
HETATM   28  C   UNL     1      43.769 -18.384   4.745  1.00  0.00     0.017 A 
ENDBRANCH   2  22
TORSDOF 6
ENDMDL
MODEL 7
REMARK VINA RESULT:      -7.9      2.901      6.602
REMARK  6 active torsions:
REMARK  status: ('A' for Active; 'I' for Inactive)
REMARK    1  A    between atoms: C_2  and  N_3 
REMARK    2  A    between atoms: C_5  and  C_6 
REMARK    3  A    between atoms: C_6  and  N_7 
REMARK       I    between atoms: N_7  and  C_8 
REMARK    4  A    between atoms: C_8  and  C_9 
REMARK    5  A    between atoms: C_9  and  C_10 
REMARK    6  A    between atoms: C_11  and  C_12 
ROOT
HETATM    1  C   UNL     1      42.151 -14.534   2.055  1.00  0.00     0.006 C 
HETATM    2  C   UNL     1      41.847 -15.905   2.393  1.00  0.00     0.096 C 
HETATM    3  N   UNL     1      40.572 -16.172   2.060  1.00  0.00    -0.173 NA
HETATM    4  N   UNL     1      40.139 -15.110   1.387  1.00  0.00    -0.282 N 
HETATM    5  H   UNL     1      39.215 -15.155   0.965  1.00  0.00     0.189 HD
HETATM    6  C   UNL     1      41.027 -14.078   1.376  1.00  0.00     0.033 C 
HETATM    7  C   UNL     1      40.714 -12.804   0.683  1.00  0.00     0.070 C 
ENDROOT
BRANCH   1   8
HETATM    8  C   UNL     1      43.381 -13.724   2.309  1.00  0.00     0.146 C 
BRANCH   8   9
HETATM    9  C   UNL     1      43.062 -12.537   3.211  1.00  0.00     0.222 C 
HETATM   10  N   UNL     1      42.590 -12.838   4.468  1.00  0.00    -0.359 N 
HETATM   11  H   UNL     1      42.347 -13.803   4.667  1.00  0.00     0.162 HD
HETATM   12  O   UNL     1      43.282 -11.364   2.904  1.00  0.00    -0.273 OA
BRANCH  10  13
HETATM   13  C   UNL     1      42.181 -11.813   5.423  1.00  0.00     0.155 C 
BRANCH  13  14
HETATM   14  C   UNL     1      42.965 -11.771   6.763  1.00  0.00     0.206 C 
HETATM   15  N   UNL     1      43.530 -10.382   7.052  1.00  0.00    -0.066 N 
HETATM   16  H   UNL     1      43.411  -9.823   6.181  1.00  0.00     0.280 HD
HETATM   17  C   UNL     1      45.020 -10.521   7.259  1.00  0.00     0.235 C 
HETATM   18  C   UNL     1      45.371 -11.801   6.533  1.00  0.00     0.030 C 
HETATM   19  C   UNL     1      44.181 -12.697   6.805  1.00  0.00     0.036 C 
BRANCH  15  20
HETATM   20  C   UNL     1      42.799  -9.621   8.118  1.00  0.00     0.231 C 
HETATM   21  C   UNL     1      43.481  -9.791   9.463  1.00  0.00     0.034 C 
ENDBRANCH  15  20
ENDBRANCH  13  14
ENDBRANCH  10  13
ENDBRANCH   8   9
ENDBRANCH   1   8
BRANCH   2  22
HETATM   22  C   UNL     1      42.647 -16.989   3.009  1.00  0.00    -0.005 A 
HETATM   23  C   UNL     1      43.032 -18.154   2.334  1.00  0.00     0.017 A 
HETATM   24  C   UNL     1      43.787 -19.147   2.973  1.00  0.00     0.043 A 
HETATM   25  C   UNL     1      44.156 -18.991   4.301  1.00  0.00     0.116 A 
HETATM   26  F   UNL     1      44.875 -19.944   4.905  1.00  0.00    -0.206 F 
HETATM   27  C   UNL     1      43.785 -17.857   5.004  1.00  0.00     0.043 A 
HETATM   28  C   UNL     1      43.038 -16.866   4.361  1.00  0.00     0.017 A 
ENDBRANCH   2  22
TORSDOF 6
ENDMDL
MODEL 8
REMARK VINA RESULT:      -7.8      1.501      2.388
REMARK  6 active torsions:
REMARK  status: ('A' for Active; 'I' for Inactive)
REMARK    1  A    between atoms: C_2  and  N_3 
REMARK    2  A    between atoms: C_5  and  C_6 
REMARK    3  A    between atoms: C_6  and  N_7 
REMARK       I    between atoms: N_7  and  C_8 
REMARK    4  A    between atoms: C_8  and  C_9 
REMARK    5  A    between atoms: C_9  and  C_10 
REMARK    6  A    between atoms: C_11  and  C_12 
ROOT
HETATM    1  C   UNL     1      41.403 -13.041   3.513  1.00  0.00     0.006 C 
HETATM    2  C   UNL     1      42.658 -13.749   3.425  1.00  0.00     0.096 C 
HETATM    3  N   UNL     1      43.668 -12.861   3.392  1.00  0.00    -0.173 NA
HETATM    4  N   UNL     1      43.118 -11.673   3.628  1.00  0.00    -0.282 N 
HETATM    5  H   UNL     1      43.736 -10.874   3.736  1.00  0.00     0.189 HD
HETATM    6  C   UNL     1      41.759 -11.707   3.678  1.00  0.00     0.033 C 
HETATM    7  C   UNL     1      40.969 -10.476   3.922  1.00  0.00     0.070 C 
ENDROOT
BRANCH   1   8
HETATM    8  C   UNL     1      39.999 -13.552   3.478  1.00  0.00     0.146 C 
BRANCH   8   9
HETATM    9  C   UNL     1      39.777 -14.421   2.245  1.00  0.00     0.222 C 
HETATM   10  N   UNL     1      40.028 -13.826   1.029  1.00  0.00    -0.359 N 
HETATM   11  H   UNL     1      40.198 -12.825   1.015  1.00  0.00     0.162 HD
HETATM   12  O   UNL     1      39.478 -15.615   2.292  1.00  0.00    -0.273 OA
BRANCH  10  13
HETATM   13  C   UNL     1      39.802 -14.505  -0.242  1.00  0.00     0.155 C 
BRANCH  13  14
HETATM   14  C   UNL     1      39.423 -13.600  -1.447  1.00  0.00     0.206 C 
HETATM   15  N   UNL     1      37.939 -13.240  -1.446  1.00  0.00    -0.066 N 
HETATM   16  H   UNL     1      37.484 -13.844  -0.729  1.00  0.00     0.280 HD
HETATM   17  C   UNL     1      37.359 -13.662  -2.776  1.00  0.00     0.235 C 
HETATM   18  C   UNL     1      38.302 -14.741  -3.260  1.00  0.00     0.030 C 
HETATM   19  C   UNL     1      39.662 -14.245  -2.813  1.00  0.00     0.036 C 
BRANCH  15  20
HETATM   20  C   UNL     1      37.640 -11.830  -1.030  1.00  0.00     0.231 C 
HETATM   21  C   UNL     1      38.788 -10.908  -1.394  1.00  0.00     0.034 C 
ENDBRANCH  15  20
ENDBRANCH  13  14
ENDBRANCH  10  13
ENDBRANCH   8   9
ENDBRANCH   1   8
BRANCH   2  22
HETATM   22  C   UNL     1      42.998 -15.190   3.361  1.00  0.00    -0.005 A 
HETATM   23  C   UNL     1      43.256 -15.981   4.487  1.00  0.00     0.017 A 
HETATM   24  C   UNL     1      43.576 -17.340   4.362  1.00  0.00     0.043 A 
HETATM   25  C   UNL     1      43.652 -17.922   3.105  1.00  0.00     0.116 A 
HETATM   26  F   UNL     1      43.958 -19.219   2.993  1.00  0.00    -0.206 F 
HETATM   27  C   UNL     1      43.412 -17.169   1.967  1.00  0.00     0.043 A 
HETATM   28  C   UNL     1      43.088 -15.816   2.097  1.00  0.00     0.017 A 
ENDBRANCH   2  22
TORSDOF 6
ENDMDL
MODEL 9
REMARK VINA RESULT:      -7.8      2.613      4.387
REMARK  6 active torsions:
REMARK  status: ('A' for Active; 'I' for Inactive)
REMARK    1  A    between atoms: C_2  and  N_3 
REMARK    2  A    between atoms: C_5  and  C_6 
REMARK    3  A    between atoms: C_6  and  N_7 
REMARK       I    between atoms: N_7  and  C_8 
REMARK    4  A    between atoms: C_8  and  C_9 
REMARK    5  A    between atoms: C_9  and  C_10 
REMARK    6  A    between atoms: C_11  and  C_12 
ROOT
HETATM    1  C   UNL     1      43.291 -16.584   3.260  1.00  0.00     0.006 C 
HETATM    2  C   UNL     1      43.277 -16.108   4.623  1.00  0.00     0.096 C 
HETATM    3  N   UNL     1      43.380 -17.156   5.460  1.00  0.00    -0.173 NA
HETATM    4  N   UNL     1      43.628 -18.214   4.693  1.00  0.00    -0.282 N 
HETATM    5  H   UNL     1      43.832 -19.098   5.150  1.00  0.00     0.189 HD
HETATM    6  C   UNL     1      43.556 -17.945   3.361  1.00  0.00     0.033 C 
HETATM    7  C   UNL     1      43.793 -19.004   2.350  1.00  0.00     0.070 C 
ENDROOT
BRANCH   1   8
HETATM    8  C   UNL     1      43.105 -15.844   1.974  1.00  0.00     0.146 C 
BRANCH   8   9
HETATM    9  C   UNL     1      41.623 -15.710   1.644  1.00  0.00     0.222 C 
HETATM   10  N   UNL     1      41.309 -14.901   0.576  1.00  0.00    -0.359 N 
HETATM   11  H   UNL     1      42.050 -14.337   0.172  1.00  0.00     0.162 HD
HETATM   12  O   UNL     1      40.733 -16.341   2.217  1.00  0.00    -0.273 OA
BRANCH  10  13
HETATM   13  C   UNL     1      39.934 -14.622   0.175  1.00  0.00     0.155 C 
BRANCH  13  14
HETATM   14  C   UNL     1      39.748 -13.603  -0.981  1.00  0.00     0.206 C 
HETATM   15  N   UNL     1      38.293 -13.163  -1.128  1.00  0.00    -0.066 N 
HETATM   16  H   UNL     1      37.726 -13.798  -0.527  1.00  0.00     0.280 HD
HETATM   17  C   UNL     1      37.865 -13.443  -2.550  1.00  0.00     0.235 C 
HETATM   18  C   UNL     1      38.812 -14.528  -3.009  1.00  0.00     0.030 C 
HETATM   19  C   UNL     1      40.126 -14.146  -2.360  1.00  0.00     0.036 C 
BRANCH  15  20
HETATM   20  C   UNL     1      38.007 -11.778  -0.629  1.00  0.00     0.231 C 
HETATM   21  C   UNL     1      37.413 -10.922  -1.732  1.00  0.00     0.034 C 
ENDBRANCH  15  20
ENDBRANCH  13  14
ENDBRANCH  10  13
ENDBRANCH   8   9
ENDBRANCH   1   8
BRANCH   2  22
HETATM   22  C   UNL     1      43.168 -14.754   5.215  1.00  0.00    -0.005 A 
HETATM   23  C   UNL     1      43.828 -14.359   6.385  1.00  0.00     0.017 A 
HETATM   24  C   UNL     1      43.683 -13.062   6.897  1.00  0.00     0.043 A 
HETATM   25  C   UNL     1      42.865 -12.148   6.250  1.00  0.00     0.116 A 
HETATM   26  F   UNL     1      42.730 -10.913   6.746  1.00  0.00    -0.206 F 
HETATM   27  C   UNL     1      42.188 -12.505   5.096  1.00  0.00     0.043 A 
HETATM   28  C   UNL     1      42.341 -13.798   4.585  1.00  0.00     0.017 A 
ENDBRANCH   2  22
TORSDOF 6
ENDMDL
MODEL 10
REMARK VINA RESULT:      -7.7      1.684      2.395
REMARK  6 active torsions:
REMARK  status: ('A' for Active; 'I' for Inactive)
REMARK    1  A    between atoms: C_2  and  N_3 
REMARK    2  A    between atoms: C_5  and  C_6 
REMARK    3  A    between atoms: C_6  and  N_7 
REMARK       I    between atoms: N_7  and  C_8 
REMARK    4  A    between atoms: C_8  and  C_9 
REMARK    5  A    between atoms: C_9  and  C_10 
REMARK    6  A    between atoms: C_11  and  C_12 
ROOT
HETATM    1  C   UNL     1      40.935 -14.797   3.745  1.00  0.00     0.006 C 
HETATM    2  C   UNL     1      42.080 -15.571   4.164  1.00  0.00     0.096 C 
HETATM    3  N   UNL     1      42.690 -14.944   5.186  1.00  0.00    -0.173 NA
HETATM    4  N   UNL     1      41.892 -13.934   5.524  1.00  0.00    -0.282 N 
HETATM    5  H   UNL     1      42.135 -13.388   6.346  1.00  0.00     0.189 HD
HETATM    6  C   UNL     1      40.838 -13.771   4.678  1.00  0.00     0.033 C 
HETATM    7  C   UNL     1      39.846 -12.689   4.889  1.00  0.00     0.070 C 
ENDROOT
BRANCH   1   8
HETATM    8  C   UNL     1      39.994 -15.002   2.601  1.00  0.00     0.146 C 
BRANCH   8   9
HETATM    9  C   UNL     1      40.120 -13.863   1.596  1.00  0.00     0.222 C 
HETATM   10  N   UNL     1      38.995 -13.092   1.407  1.00  0.00    -0.359 N 
HETATM   11  H   UNL     1      38.126 -13.409   1.824  1.00  0.00     0.162 HD
HETATM   12  O   UNL     1      41.172 -13.559   1.031  1.00  0.00    -0.273 OA
BRANCH  10  13
HETATM   13  C   UNL     1      38.937 -12.007   0.433  1.00  0.00     0.155 C 
BRANCH  13  14
HETATM   14  C   UNL     1      38.560 -12.407  -1.019  1.00  0.00     0.206 C 
HETATM   15  N   UNL     1      39.794 -12.577  -1.904  1.00  0.00    -0.066 N 
HETATM   16  H   UNL     1      40.603 -12.202  -1.365  1.00  0.00     0.280 HD
HETATM   17  C   UNL     1      39.634 -11.671  -3.102  1.00  0.00     0.235 C 
HETATM   18  C   UNL     1      38.671 -10.606  -2.629  1.00  0.00     0.030 C 
HETATM   19  C   UNL     1      37.704 -11.372  -1.750  1.00  0.00     0.036 C 
BRANCH  15  20
HETATM   20  C   UNL     1      40.146 -14.001  -2.214  1.00  0.00     0.231 C 
HETATM   21  C   UNL     1      38.926 -14.895  -2.096  1.00  0.00     0.034 C 
ENDBRANCH  15  20
ENDBRANCH  13  14
ENDBRANCH  10  13
ENDBRANCH   8   9
ENDBRANCH   1   8
BRANCH   2  22
HETATM   22  C   UNL     1      42.661 -16.847   3.686  1.00  0.00    -0.005 A 
HETATM   23  C   UNL     1      42.326 -17.448   2.467  1.00  0.00     0.017 A 
HETATM   24  C   UNL     1      42.909 -18.661   2.071  1.00  0.00     0.043 A 
HETATM   25  C   UNL     1      43.826 -19.292   2.898  1.00  0.00     0.116 A 
HETATM   26  F   UNL     1      44.377 -20.449   2.514  1.00  0.00    -0.206 F 
HETATM   27  C   UNL     1      44.175 -18.733   4.116  1.00  0.00     0.043 A 
HETATM   28  C   UNL     1      43.596 -17.520   4.504  1.00  0.00     0.017 A 
ENDBRANCH   2  22
TORSDOF 6
ENDMDL
