MODEL 1
REMARK VINA RESULT:      -9.7      0.000      0.000
REMARK  8 active torsions:
REMARK  status: ('A' for Active; 'I' for Inactive)
REMARK    1  A    between atoms: C_2  and  C_3 
REMARK    2  A    between atoms: C_3  and  O_4 
REMARK    3  A    between atoms: O_4  and  C_5 
REMARK    4  A    between atoms: C_8  and  C_9 
REMARK       I    between atoms: C_9  and  N_10 
REMARK    5  A    between atoms: N_10  and  C_11 
REMARK    6  A    between atoms: N_12  and  C_13 
REMARK    7  A    between atoms: C_15  and  C_16 
REMARK    8  A    between atoms: C_27  and  O_28 
ROOT
HETATM    1  C   UNL     1      43.122 -10.373   7.049  1.00  0.00     0.035 A 
HETATM    2  C   UNL     1      42.811  -9.930   8.343  1.00  0.00     0.048 A 
HETATM    3  C   UNL     1      43.743  -9.984   9.399  1.00  0.00     0.052 A 
HETATM    4  C   UNL     1      45.021 -10.481   9.114  1.00  0.00     0.080 A 
HETATM    5  C   UNL     1      45.343 -10.929   7.827  1.00  0.00     0.040 A 
HETATM    6  C   UNL     1      44.391 -10.887   6.804  1.00  0.00     0.032 A 
ENDROOT
BRANCH   1   7
HETATM    7  N   UNL     1      42.070 -10.359   6.108  1.00  0.00    -0.333 N 
HETATM    8  C   UNL     1      41.431 -11.359   5.467  1.00  0.00     0.179 C 
HETATM    9  S   UNL     1      39.806 -11.163   5.104  1.00  0.00    -0.040 SA
HETATM   10  H   UNL     1      41.568  -9.478   6.058  1.00  0.00     0.168 HD
BRANCH   8  11
HETATM   11  N   UNL     1      42.027 -12.510   5.067  1.00  0.00    -0.299 N 
HETATM   12  C   UNL     1      42.824 -12.673   3.939  1.00  0.00     0.257 C 
HETATM   13  O   UNL     1      43.428 -11.801   3.331  1.00  0.00    -0.267 OA
HETATM   14  H   UNL     1      41.417 -13.298   5.247  1.00  0.00     0.171 HD
BRANCH  12  15
HETATM   15  C   UNL     1      42.883 -14.075   3.435  1.00  0.00     0.032 A 
HETATM   16  C   UNL     1      42.691 -15.116   4.348  1.00  0.00     0.020 A 
HETATM   17  C   UNL     1      42.830 -16.441   3.929  1.00  0.00     0.038 A 
HETATM   18  C   UNL     1      43.126 -16.732   2.597  1.00  0.00     0.068 A 
HETATM   19  C   UNL     1      43.297 -15.695   1.679  1.00  0.00     0.038 A 
HETATM   20  C   UNL     1      43.173 -14.364   2.095  1.00  0.00     0.020 A 
BRANCH  18  21
HETATM   21  O   UNL     1      43.309 -18.054   2.301  1.00  0.00    -0.351 OA
BRANCH  21  22
HETATM   22  C   UNL     1      43.866 -18.835   3.361  1.00  0.00     0.175 C 
BRANCH  22  23
HETATM   23  C   UNL     1      43.831 -20.309   2.957  1.00  0.00     0.022 C 
HETATM   24  C   UNL     1      43.414 -20.514   1.507  1.00  0.00     0.007 C 
ENDBRANCH  22  23
ENDBRANCH  21  22
ENDBRANCH  18  21
ENDBRANCH  12  15
ENDBRANCH   8  11
ENDBRANCH   1   7
BRANCH   3  25
HETATM   25  C   UNL     1      43.298  -9.530  10.719  1.00  0.00     0.183 A 
HETATM   26  O   UNL     1      42.127 -10.044  11.214  1.00  0.00    -0.288 OA
HETATM   27  C   UNL     1      41.944  -9.393  12.401  1.00  0.00     0.112 A 
HETATM   28  C   UNL     1      43.003  -8.518  12.562  1.00  0.00     0.094 A 
HETATM   29  C   UNL     1      40.891  -9.553  13.302  1.00  0.00    -0.025 A 
HETATM   30  N   UNL     1      43.851  -8.604  11.488  1.00  0.00    -0.221 NA
HETATM   31  C   UNL     1      43.056  -7.714  13.708  1.00  0.00     0.041 A 
HETATM   32  C   UNL     1      42.023  -7.826  14.657  1.00  0.00    -0.059 A 
HETATM   33  C   UNL     1      40.965  -8.731  14.446  1.00  0.00     0.016 A 
HETATM   34  C   UNL     1      42.058  -6.963  15.885  1.00  0.00     0.048 C 
HETATM   35  C   UNL     1      39.752 -10.500  13.104  1.00  0.00     0.051 C 
ENDBRANCH   3  25
BRANCH   4  36
HETATM   36  O   UNL     1      45.982 -10.538  10.085  1.00  0.00    -0.360 OA
HETATM   37  H   UNL     1      45.627 -10.187  10.917  1.00  0.00     0.217 HD
ENDBRANCH   4  36
TORSDOF 8
ENDMDL
MODEL 2
REMARK VINA RESULT:      -9.6      1.409      1.852
REMARK  8 active torsions:
REMARK  status: ('A' for Active; 'I' for Inactive)
REMARK    1  A    between atoms: C_2  and  C_3 
REMARK    2  A    between atoms: C_3  and  O_4 
REMARK    3  A    between atoms: O_4  and  C_5 
REMARK    4  A    between atoms: C_8  and  C_9 
REMARK       I    between atoms: C_9  and  N_10 
REMARK    5  A    between atoms: N_10  and  C_11 
REMARK    6  A    between atoms: N_12  and  C_13 
REMARK    7  A    between atoms: C_15  and  C_16 
REMARK    8  A    between atoms: C_27  and  O_28 
ROOT
HETATM    1  C   UNL     1      42.770 -10.363   6.668  1.00  0.00     0.035 A 
HETATM    2  C   UNL     1      42.565  -9.912   7.979  1.00  0.00     0.048 A 
HETATM    3  C   UNL     1      43.532 -10.080   8.991  1.00  0.00     0.052 A 
HETATM    4  C   UNL     1      44.738 -10.701   8.642  1.00  0.00     0.080 A 
HETATM    5  C   UNL     1      44.954 -11.157   7.336  1.00  0.00     0.040 A 
HETATM    6  C   UNL     1      43.968 -11.000   6.358  1.00  0.00     0.032 A 
ENDROOT
BRANCH   1   7
HETATM    7  N   UNL     1      41.685 -10.224   5.776  1.00  0.00    -0.333 N 
HETATM    8  C   UNL     1      40.786 -11.119   5.317  1.00  0.00     0.179 C 
HETATM    9  S   UNL     1      39.229 -10.589   4.992  1.00  0.00    -0.040 SA
HETATM   10  H   UNL     1      41.400  -9.264   5.614  1.00  0.00     0.168 HD
BRANCH   8  11
HETATM   11  N   UNL     1      41.067 -12.424   5.073  1.00  0.00    -0.299 N 
HETATM   12  C   UNL     1      40.674 -13.508   5.851  1.00  0.00     0.257 C 
HETATM   13  O   UNL     1      39.740 -13.549   6.639  1.00  0.00    -0.267 OA
HETATM   14  H   UNL     1      42.004 -12.513   4.701  1.00  0.00     0.171 HD
BRANCH  12  15
HETATM   15  C   UNL     1      41.541 -14.710   5.698  1.00  0.00     0.032 A 
HETATM   16  C   UNL     1      42.228 -14.884   4.492  1.00  0.00     0.020 A 
HETATM   17  C   UNL     1      42.976 -16.044   4.279  1.00  0.00     0.038 A 
HETATM   18  C   UNL     1      43.070 -17.015   5.277  1.00  0.00     0.068 A 
HETATM   19  C   UNL     1      42.402 -16.835   6.489  1.00  0.00     0.038 A 
HETATM   20  C   UNL     1      41.639 -15.681   6.704  1.00  0.00     0.020 A 
BRANCH  18  21
HETATM   21  O   UNL     1      43.768 -18.143   4.947  1.00  0.00    -0.351 OA
BRANCH  21  22
HETATM   22  C   UNL     1      43.966 -18.339   3.546  1.00  0.00     0.175 C 
BRANCH  22  23
HETATM   23  C   UNL     1      43.888 -19.836   3.242  1.00  0.00     0.022 C 
HETATM   24  C   UNL     1      43.161 -20.136   1.940  1.00  0.00     0.007 C 
ENDBRANCH  22  23
ENDBRANCH  21  22
ENDBRANCH  18  21
ENDBRANCH  12  15
ENDBRANCH   8  11
ENDBRANCH   1   7
BRANCH   3  25
HETATM   25  C   UNL     1      43.196  -9.605  10.336  1.00  0.00     0.183 A 
HETATM   26  O   UNL     1      42.038 -10.064  10.909  1.00  0.00    -0.288 OA
HETATM   27  C   UNL     1      41.963  -9.405  12.103  1.00  0.00     0.112 A 
HETATM   28  C   UNL     1      43.068  -8.578  12.190  1.00  0.00     0.094 A 
HETATM   29  C   UNL     1      40.965  -9.516  13.071  1.00  0.00    -0.025 A 
HETATM   30  N   UNL     1      43.839  -8.704  11.063  1.00  0.00    -0.221 NA
HETATM   31  C   UNL     1      43.232  -7.776  13.327  1.00  0.00     0.041 A 
HETATM   32  C   UNL     1      42.260  -7.841  14.342  1.00  0.00    -0.059 A 
HETATM   33  C   UNL     1      41.151  -8.697  14.204  1.00  0.00     0.016 A 
HETATM   34  C   UNL     1      42.414  -6.979  15.562  1.00  0.00     0.048 C 
HETATM   35  C   UNL     1      39.774 -10.410  12.952  1.00  0.00     0.051 C 
ENDBRANCH   3  25
BRANCH   4  36
HETATM   36  O   UNL     1      45.730 -10.872   9.567  1.00  0.00    -0.360 OA
HETATM   37  H   UNL     1      45.409 -11.434  10.290  1.00  0.00     0.217 HD
ENDBRANCH   4  36
TORSDOF 8
ENDMDL
MODEL 3
REMARK VINA RESULT:      -9.3      1.773      2.480
REMARK  8 active torsions:
REMARK  status: ('A' for Active; 'I' for Inactive)
REMARK    1  A    between atoms: C_2  and  C_3 
REMARK    2  A    between atoms: C_3  and  O_4 
REMARK    3  A    between atoms: O_4  and  C_5 
REMARK    4  A    between atoms: C_8  and  C_9 
REMARK       I    between atoms: C_9  and  N_10 
REMARK    5  A    between atoms: N_10  and  C_11 
REMARK    6  A    between atoms: N_12  and  C_13 
REMARK    7  A    between atoms: C_15  and  C_16 
REMARK    8  A    between atoms: C_27  and  O_28 
ROOT
HETATM    1  C   UNL     1      42.844 -10.738   5.885  1.00  0.00     0.035 A 
HETATM    2  C   UNL     1      42.690 -10.047   7.095  1.00  0.00     0.048 A 
HETATM    3  C   UNL     1      43.650 -10.113   8.125  1.00  0.00     0.052 A 
HETATM    4  C   UNL     1      44.796 -10.884   7.898  1.00  0.00     0.080 A 
HETATM    5  C   UNL     1      44.962 -11.581   6.695  1.00  0.00     0.040 A 
HETATM    6  C   UNL     1      43.982 -11.518   5.699  1.00  0.00     0.032 A 
ENDROOT
BRANCH   1   7
HETATM    7  N   UNL     1      41.766 -10.670   4.978  1.00  0.00    -0.333 N 
HETATM    8  C   UNL     1      40.884 -11.604   4.566  1.00  0.00     0.179 C 
HETATM    9  S   UNL     1      39.323 -11.119   4.196  1.00  0.00    -0.040 SA
HETATM   10  H   UNL     1      41.467  -9.726   4.756  1.00  0.00     0.168 HD
BRANCH   8  11
HETATM   11  N   UNL     1      41.187 -12.916   4.401  1.00  0.00    -0.299 N 
HETATM   12  C   UNL     1      41.027 -13.921   5.351  1.00  0.00     0.257 C 
HETATM   13  O   UNL     1      40.277 -13.909   6.317  1.00  0.00    -0.267 OA
HETATM   14  H   UNL     1      42.032 -13.012   3.853  1.00  0.00     0.171 HD
BRANCH  12  15
HETATM   15  C   UNL     1      41.915 -15.099   5.143  1.00  0.00     0.032 A 
HETATM   16  C   UNL     1      42.552 -15.240   3.905  1.00  0.00     0.020 A 
HETATM   17  C   UNL     1      43.317 -16.379   3.643  1.00  0.00     0.038 A 
HETATM   18  C   UNL     1      43.479 -17.360   4.622  1.00  0.00     0.068 A 
HETATM   19  C   UNL     1      42.861 -17.212   5.865  1.00  0.00     0.038 A 
HETATM   20  C   UNL     1      42.081 -16.080   6.129  1.00  0.00     0.020 A 
BRANCH  18  21
HETATM   21  O   UNL     1      44.188 -18.466   4.247  1.00  0.00    -0.351 OA
BRANCH  21  22
HETATM   22  C   UNL     1      44.087 -18.803   2.862  1.00  0.00     0.175 C 
BRANCH  22  23
HETATM   23  C   UNL     1      43.697 -20.276   2.740  1.00  0.00     0.022 C 
HETATM   24  C   UNL     1      43.866 -21.041   4.045  1.00  0.00     0.007 C 
ENDBRANCH  22  23
ENDBRANCH  21  22
ENDBRANCH  18  21
ENDBRANCH  12  15
ENDBRANCH   8  11
ENDBRANCH   1   7
BRANCH   3  25
HETATM   25  C   UNL     1      43.367  -9.381   9.363  1.00  0.00     0.183 A 
HETATM   26  O   UNL     1      42.947  -8.080   9.258  1.00  0.00    -0.288 OA
HETATM   27  C   UNL     1      42.836  -7.652  10.551  1.00  0.00     0.112 A 
HETATM   28  C   UNL     1      43.199  -8.707  11.369  1.00  0.00     0.094 A 
HETATM   29  C   UNL     1      42.441  -6.391  10.996  1.00  0.00    -0.025 A 
HETATM   30  N   UNL     1      43.543  -9.795  10.609  1.00  0.00    -0.221 NA
HETATM   31  C   UNL     1      43.179  -8.530  12.759  1.00  0.00     0.041 A 
HETATM   32  C   UNL     1      42.790  -7.280  13.273  1.00  0.00    -0.059 A 
HETATM   33  C   UNL     1      42.432  -6.237  12.397  1.00  0.00     0.016 A 
HETATM   34  C   UNL     1      42.775  -7.070  14.760  1.00  0.00     0.048 C 
HETATM   35  C   UNL     1      42.061  -5.263  10.093  1.00  0.00     0.051 C 
ENDBRANCH   3  25
BRANCH   4  36
HETATM   36  O   UNL     1      45.781 -10.971   8.843  1.00  0.00    -0.360 OA
HETATM   37  H   UNL     1      46.443 -10.279   8.690  1.00  0.00     0.217 HD
ENDBRANCH   4  36
TORSDOF 8
ENDMDL
MODEL 4
REMARK VINA RESULT:      -9.2      2.378     11.221
REMARK  8 active torsions:
REMARK  status: ('A' for Active; 'I' for Inactive)
REMARK    1  A    between atoms: C_2  and  C_3 
REMARK    2  A    between atoms: C_3  and  O_4 
REMARK    3  A    between atoms: O_4  and  C_5 
REMARK    4  A    between atoms: C_8  and  C_9 
REMARK       I    between atoms: C_9  and  N_10 
REMARK    5  A    between atoms: N_10  and  C_11 
REMARK    6  A    between atoms: N_12  and  C_13 
REMARK    7  A    between atoms: C_15  and  C_16 
REMARK    8  A    between atoms: C_27  and  O_28 
ROOT
HETATM    1  C   UNL     1      42.692 -11.265   6.510  1.00  0.00     0.035 A 
HETATM    2  C   UNL     1      43.061 -12.577   6.183  1.00  0.00     0.048 A 
HETATM    3  C   UNL     1      42.116 -13.551   5.803  1.00  0.00     0.052 A 
HETATM    4  C   UNL     1      40.772 -13.161   5.735  1.00  0.00     0.080 A 
HETATM    5  C   UNL     1      40.390 -11.854   6.061  1.00  0.00     0.040 A 
HETATM    6  C   UNL     1      41.346 -10.915   6.460  1.00  0.00     0.032 A 
ENDROOT
BRANCH   1   7
HETATM    7  N   UNL     1      43.720 -10.416   6.972  1.00  0.00    -0.333 N 
HETATM    8  C   UNL     1      44.201 -10.188   8.212  1.00  0.00     0.179 C 
HETATM    9  S   UNL     1      45.832  -9.838   8.383  1.00  0.00    -0.040 SA
HETATM   10  H   UNL     1      44.342 -10.080   6.244  1.00  0.00     0.168 HD
BRANCH   8  11
HETATM   11  N   UNL     1      43.441 -10.194   9.336  1.00  0.00    -0.299 N 
HETATM   12  C   UNL     1      42.474  -9.253   9.678  1.00  0.00     0.257 C 
HETATM   13  O   UNL     1      41.877  -8.502   8.920  1.00  0.00    -0.267 OA
HETATM   14  H   UNL     1      43.990 -10.512  10.124  1.00  0.00     0.171 HD
BRANCH  12  15
HETATM   15  C   UNL     1      42.203  -9.167  11.141  1.00  0.00     0.032 A 
HETATM   16  C   UNL     1      41.076  -9.824  11.646  1.00  0.00     0.020 A 
HETATM   17  C   UNL     1      40.741  -9.688  12.995  1.00  0.00     0.038 A 
HETATM   18  C   UNL     1      41.543  -8.930  13.848  1.00  0.00     0.068 A 
HETATM   19  C   UNL     1      42.679  -8.290  13.351  1.00  0.00     0.038 A 
HETATM   20  C   UNL     1      43.013  -8.410  11.997  1.00  0.00     0.020 A 
BRANCH  18  21
HETATM   21  O   UNL     1      41.093  -8.802  15.133  1.00  0.00    -0.351 OA
BRANCH  21  22
HETATM   22  C   UNL     1      41.626  -7.685  15.848  1.00  0.00     0.175 C 
BRANCH  22  23
HETATM   23  C   UNL     1      40.520  -7.083  16.715  1.00  0.00     0.022 C 
HETATM   24  C   UNL     1      40.392  -7.768  18.068  1.00  0.00     0.007 C 
ENDBRANCH  22  23
ENDBRANCH  21  22
ENDBRANCH  18  21
ENDBRANCH  12  15
ENDBRANCH   8  11
ENDBRANCH   1   7
BRANCH   3  25
HETATM   25  C   UNL     1      42.610 -14.901   5.521  1.00  0.00     0.183 A 
HETATM   26  O   UNL     1      42.714 -15.286   4.209  1.00  0.00    -0.288 OA
HETATM   27  C   UNL     1      43.124 -16.588   4.267  1.00  0.00     0.112 A 
HETATM   28  C   UNL     1      43.240 -16.927   5.603  1.00  0.00     0.094 A 
HETATM   29  C   UNL     1      43.379 -17.446   3.197  1.00  0.00    -0.025 A 
HETATM   30  N   UNL     1      42.904 -15.856   6.391  1.00  0.00    -0.221 NA
HETATM   31  C   UNL     1      43.644 -18.224   5.946  1.00  0.00     0.041 A 
HETATM   32  C   UNL     1      43.916 -19.139   4.912  1.00  0.00    -0.059 A 
HETATM   33  C   UNL     1      43.781 -18.745   3.567  1.00  0.00     0.016 A 
HETATM   34  C   UNL     1      44.338 -20.537   5.262  1.00  0.00     0.048 C 
HETATM   35  C   UNL     1      43.239 -17.060   1.760  1.00  0.00     0.051 C 
ENDBRANCH   3  25
BRANCH   4  36
HETATM   36  O   UNL     1      39.805 -14.047   5.347  1.00  0.00    -0.360 OA
HETATM   37  H   UNL     1      38.938 -13.737   5.652  1.00  0.00     0.217 HD
ENDBRANCH   4  36
TORSDOF 8
ENDMDL
MODEL 5
REMARK VINA RESULT:      -8.8      7.403     10.937
REMARK  8 active torsions:
REMARK  status: ('A' for Active; 'I' for Inactive)
REMARK    1  A    between atoms: C_2  and  C_3 
REMARK    2  A    between atoms: C_3  and  O_4 
REMARK    3  A    between atoms: O_4  and  C_5 
REMARK    4  A    between atoms: C_8  and  C_9 
REMARK       I    between atoms: C_9  and  N_10 
REMARK    5  A    between atoms: N_10  and  C_11 
REMARK    6  A    between atoms: N_12  and  C_13 
REMARK    7  A    between atoms: C_15  and  C_16 
REMARK    8  A    between atoms: C_27  and  O_28 
ROOT
HETATM    1  C   UNL     1      40.009 -12.459   0.866  1.00  0.00     0.035 A 
HETATM    2  C   UNL     1      40.527 -13.687   1.301  1.00  0.00     0.048 A 
HETATM    3  C   UNL     1      41.712 -13.776   2.060  1.00  0.00     0.052 A 
HETATM    4  C   UNL     1      42.361 -12.581   2.395  1.00  0.00     0.080 A 
HETATM    5  C   UNL     1      41.855 -11.349   1.965  1.00  0.00     0.040 A 
HETATM    6  C   UNL     1      40.691 -11.291   1.192  1.00  0.00     0.032 A 
ENDROOT
BRANCH   1   7
HETATM    7  N   UNL     1      38.874 -12.514   0.030  1.00  0.00    -0.333 N 
HETATM    8  C   UNL     1      38.697 -12.164  -1.261  1.00  0.00     0.179 C 
HETATM    9  S   UNL     1      37.613 -13.047  -2.185  1.00  0.00    -0.040 SA
HETATM   10  H   UNL     1      38.126 -13.103   0.381  1.00  0.00     0.168 HD
BRANCH   8  11
HETATM   11  N   UNL     1      39.322 -11.118  -1.858  1.00  0.00    -0.299 N 
HETATM   12  C   UNL     1      40.523 -11.171  -2.558  1.00  0.00     0.257 C 
HETATM   13  O   UNL     1      41.030 -12.154  -3.078  1.00  0.00    -0.267 OA
HETATM   14  H   UNL     1      39.221 -10.285  -1.293  1.00  0.00     0.171 HD
BRANCH  12  15
HETATM   15  C   UNL     1      41.246  -9.869  -2.620  1.00  0.00     0.032 A 
HETATM   16  C   UNL     1      42.026  -9.491  -1.522  1.00  0.00     0.020 A 
HETATM   17  C   UNL     1      42.643  -8.238  -1.506  1.00  0.00     0.038 A 
HETATM   18  C   UNL     1      42.515  -7.376  -2.596  1.00  0.00     0.068 A 
HETATM   19  C   UNL     1      41.754  -7.759  -3.702  1.00  0.00     0.038 A 
HETATM   20  C   UNL     1      41.121  -9.007  -3.717  1.00  0.00     0.020 A 
BRANCH  18  21
HETATM   21  O   UNL     1      43.098  -6.148  -2.457  1.00  0.00    -0.351 OA
BRANCH  21  22
HETATM   22  C   UNL     1      44.208  -6.108  -1.557  1.00  0.00     0.175 C 
BRANCH  22  23
HETATM   23  C   UNL     1      44.360  -4.683  -1.024  1.00  0.00     0.022 C 
HETATM   24  C   UNL     1      44.418  -4.625   0.496  1.00  0.00     0.007 C 
ENDBRANCH  22  23
ENDBRANCH  21  22
ENDBRANCH  18  21
ENDBRANCH  12  15
ENDBRANCH   8  11
ENDBRANCH   1   7
BRANCH   3  25
HETATM   25  C   UNL     1      42.183 -15.114   2.427  1.00  0.00     0.183 A 
HETATM   26  O   UNL     1      42.871 -15.252   3.605  1.00  0.00    -0.288 OA
HETATM   27  C   UNL     1      43.231 -16.569   3.637  1.00  0.00     0.112 A 
HETATM   28  C   UNL     1      42.753 -17.159   2.481  1.00  0.00     0.094 A 
HETATM   29  C   UNL     1      43.956 -17.226   4.632  1.00  0.00    -0.025 A 
HETATM   30  N   UNL     1      42.098 -16.229   1.716  1.00  0.00    -0.221 NA
HETATM   31  C   UNL     1      42.995 -18.521   2.259  1.00  0.00     0.041 A 
HETATM   32  C   UNL     1      43.720 -19.242   3.226  1.00  0.00    -0.059 A 
HETATM   33  C   UNL     1      44.188 -18.594   4.385  1.00  0.00     0.016 A 
HETATM   34  C   UNL     1      43.998 -20.700   2.998  1.00  0.00     0.048 C 
HETATM   35  C   UNL     1      44.470 -16.567   5.871  1.00  0.00     0.051 C 
ENDBRANCH   3  25
BRANCH   4  36
HETATM   36  O   UNL     1      43.500 -12.591   3.151  1.00  0.00    -0.360 OA
HETATM   37  H   UNL     1      44.277 -12.576   2.571  1.00  0.00     0.217 HD
ENDBRANCH   4  36
TORSDOF 8
ENDMDL
MODEL 6
REMARK VINA RESULT:      -8.6      4.611      9.602
REMARK  8 active torsions:
REMARK  status: ('A' for Active; 'I' for Inactive)
REMARK    1  A    between atoms: C_2  and  C_3 
REMARK    2  A    between atoms: C_3  and  O_4 
REMARK    3  A    between atoms: O_4  and  C_5 
REMARK    4  A    between atoms: C_8  and  C_9 
REMARK       I    between atoms: C_9  and  N_10 
REMARK    5  A    between atoms: N_10  and  C_11 
REMARK    6  A    between atoms: N_12  and  C_13 
REMARK    7  A    between atoms: C_15  and  C_16 
REMARK    8  A    between atoms: C_27  and  O_28 
ROOT
HETATM    1  C   UNL     1      38.528 -11.370   0.997  1.00  0.00     0.035 A 
HETATM    2  C   UNL     1      39.334 -12.341   1.607  1.00  0.00     0.048 A 
HETATM    3  C   UNL     1      40.018 -13.324   0.864  1.00  0.00     0.052 A 
HETATM    4  C   UNL     1      39.889 -13.293  -0.530  1.00  0.00     0.080 A 
HETATM    5  C   UNL     1      39.087 -12.329  -1.152  1.00  0.00     0.040 A 
HETATM    6  C   UNL     1      38.399 -11.381  -0.388  1.00  0.00     0.032 A 
ENDROOT
BRANCH   1   7
HETATM    7  N   UNL     1      37.818 -10.507   1.858  1.00  0.00    -0.333 N 
HETATM    8  C   UNL     1      38.242  -9.607   2.770  1.00  0.00     0.179 C 
HETATM    9  S   UNL     1      37.326  -8.225   3.012  1.00  0.00    -0.040 SA
HETATM   10  H   UNL     1      36.842 -10.383   1.612  1.00  0.00     0.168 HD
BRANCH   8  11
HETATM   11  N   UNL     1      39.355  -9.762   3.531  1.00  0.00    -0.299 N 
HETATM   12  C   UNL     1      40.640  -9.346   3.200  1.00  0.00     0.257 C 
HETATM   13  O   UNL     1      40.950  -8.478   2.397  1.00  0.00    -0.267 OA
HETATM   14  H   UNL     1      39.330 -10.656   4.005  1.00  0.00     0.171 HD
BRANCH  12  15
HETATM   15  C   UNL     1      41.720 -10.099   3.899  1.00  0.00     0.032 A 
HETATM   16  C   UNL     1      41.888  -9.896   5.272  1.00  0.00     0.020 A 
HETATM   17  C   UNL     1      42.947 -10.513   5.942  1.00  0.00     0.038 A 
HETATM   18  C   UNL     1      43.817 -11.360   5.254  1.00  0.00     0.068 A 
HETATM   19  C   UNL     1      43.639 -11.581   3.887  1.00  0.00     0.038 A 
HETATM   20  C   UNL     1      42.589 -10.953   3.208  1.00  0.00     0.020 A 
BRANCH  18  21
HETATM   21  O   UNL     1      44.860 -11.861   5.981  1.00  0.00    -0.351 OA
BRANCH  21  22
HETATM   22  C   UNL     1      44.932 -11.394   7.330  1.00  0.00     0.175 C 
BRANCH  22  23
HETATM   23  C   UNL     1      46.272 -10.686   7.536  1.00  0.00     0.022 C 
HETATM   24  C   UNL     1      46.115  -9.279   8.094  1.00  0.00     0.007 C 
ENDBRANCH  22  23
ENDBRANCH  21  22
ENDBRANCH  18  21
ENDBRANCH  12  15
ENDBRANCH   8  11
ENDBRANCH   1   7
BRANCH   3  25
HETATM   25  C   UNL     1      40.801 -14.314   1.609  1.00  0.00     0.183 A 
HETATM   26  O   UNL     1      41.027 -14.084   2.942  1.00  0.00    -0.288 OA
HETATM   27  C   UNL     1      41.826 -15.120   3.336  1.00  0.00     0.112 A 
HETATM   28  C   UNL     1      42.048 -15.917   2.228  1.00  0.00     0.094 A 
HETATM   29  C   UNL     1      42.345 -15.353   4.609  1.00  0.00    -0.025 A 
HETATM   30  N   UNL     1      41.404 -15.395   1.136  1.00  0.00    -0.221 NA
HETATM   31  C   UNL     1      42.852 -17.058   2.358  1.00  0.00     0.041 A 
HETATM   32  C   UNL     1      43.406 -17.350   3.618  1.00  0.00    -0.059 A 
HETATM   33  C   UNL     1      43.151 -16.505   4.714  1.00  0.00     0.016 A 
HETATM   34  C   UNL     1      44.279 -18.562   3.772  1.00  0.00     0.048 C 
HETATM   35  C   UNL     1      42.097 -14.473   5.791  1.00  0.00     0.051 C 
ENDBRANCH   3  25
BRANCH   4  36
HETATM   36  O   UNL     1      40.547 -14.200  -1.314  1.00  0.00    -0.360 OA
HETATM   37  H   UNL     1      41.470 -14.272  -1.026  1.00  0.00     0.217 HD
ENDBRANCH   4  36
TORSDOF 8
ENDMDL
MODEL 7
REMARK VINA RESULT:      -8.6      2.458     11.039
REMARK  8 active torsions:
REMARK  status: ('A' for Active; 'I' for Inactive)
REMARK    1  A    between atoms: C_2  and  C_3 
REMARK    2  A    between atoms: C_3  and  O_4 
REMARK    3  A    between atoms: O_4  and  C_5 
REMARK    4  A    between atoms: C_8  and  C_9 
REMARK       I    between atoms: C_9  and  N_10 
REMARK    5  A    between atoms: N_10  and  C_11 
REMARK    6  A    between atoms: N_12  and  C_13 
REMARK    7  A    between atoms: C_15  and  C_16 
REMARK    8  A    between atoms: C_27  and  O_28 
ROOT
HETATM    1  C   UNL     1      43.213 -11.625   5.880  1.00  0.00     0.035 A 
HETATM    2  C   UNL     1      43.370 -12.922   5.371  1.00  0.00     0.048 A 
HETATM    3  C   UNL     1      42.270 -13.764   5.108  1.00  0.00     0.052 A 
HETATM    4  C   UNL     1      40.989 -13.254   5.352  1.00  0.00     0.080 A 
HETATM    5  C   UNL     1      40.819 -11.962   5.862  1.00  0.00     0.040 A 
HETATM    6  C   UNL     1      41.929 -11.157   6.137  1.00  0.00     0.032 A 
ENDROOT
BRANCH   1   7
HETATM    7  N   UNL     1      44.397 -10.923   6.194  1.00  0.00    -0.333 N 
HETATM    8  C   UNL     1      44.887 -10.479   7.369  1.00  0.00     0.179 C 
HETATM    9  S   UNL     1      46.550 -10.452   7.581  1.00  0.00    -0.040 SA
HETATM   10  H   UNL     1      45.096 -10.936   5.458  1.00  0.00     0.168 HD
BRANCH   8  11
HETATM   11  N   UNL     1      44.119 -10.020   8.389  1.00  0.00    -0.299 N 
HETATM   12  C   UNL     1      43.546  -8.755   8.482  1.00  0.00     0.257 C 
HETATM   13  O   UNL     1      43.307  -7.986   7.562  1.00  0.00    -0.267 OA
HETATM   14  H   UNL     1      44.469 -10.369   9.272  1.00  0.00     0.171 HD
BRANCH  12  15
HETATM   15  C   UNL     1      43.248  -8.326   9.877  1.00  0.00     0.032 A 
HETATM   16  C   UNL     1      42.403  -7.227  10.067  1.00  0.00     0.020 A 
HETATM   17  C   UNL     1      42.175  -6.740  11.356  1.00  0.00     0.038 A 
HETATM   18  C   UNL     1      42.757  -7.366  12.458  1.00  0.00     0.068 A 
HETATM   19  C   UNL     1      43.584  -8.475  12.274  1.00  0.00     0.038 A 
HETATM   20  C   UNL     1      43.829  -8.959  10.983  1.00  0.00     0.020 A 
BRANCH  18  21
HETATM   21  O   UNL     1      42.529  -6.774  13.669  1.00  0.00    -0.351 OA
BRANCH  21  22
HETATM   22  C   UNL     1      41.218  -6.980  14.201  1.00  0.00     0.175 C 
BRANCH  22  23
HETATM   23  C   UNL     1      41.157  -8.367  14.840  1.00  0.00     0.022 C 
HETATM   24  C   UNL     1      40.483  -9.399  13.947  1.00  0.00     0.007 C 
ENDBRANCH  22  23
ENDBRANCH  21  22
ENDBRANCH  18  21
ENDBRANCH  12  15
ENDBRANCH   8  11
ENDBRANCH   1   7
BRANCH   3  25
HETATM   25  C   UNL     1      42.553 -15.114   4.614  1.00  0.00     0.183 A 
HETATM   26  O   UNL     1      42.844 -16.087   5.534  1.00  0.00    -0.288 OA
HETATM   27  C   UNL     1      43.124 -17.194   4.784  1.00  0.00     0.112 A 
HETATM   28  C   UNL     1      42.997 -16.836   3.454  1.00  0.00     0.094 A 
HETATM   29  C   UNL     1      43.484 -18.461   5.243  1.00  0.00    -0.025 A 
HETATM   30  N   UNL     1      42.644 -15.515   3.354  1.00  0.00    -0.221 NA
HETATM   31  C   UNL     1      43.240 -17.796   2.463  1.00  0.00     0.041 A 
HETATM   32  C   UNL     1      43.607 -19.095   2.859  1.00  0.00    -0.059 A 
HETATM   33  C   UNL     1      43.725 -19.408   4.227  1.00  0.00     0.016 A 
HETATM   34  C   UNL     1      43.882 -20.133   1.810  1.00  0.00     0.048 C 
HETATM   35  C   UNL     1      43.622 -18.823   6.686  1.00  0.00     0.051 C 
ENDBRANCH   3  25
BRANCH   4  36
HETATM   36  O   UNL     1      39.876 -14.006   5.095  1.00  0.00    -0.360 OA
HETATM   37  H   UNL     1      40.141 -14.888   4.788  1.00  0.00     0.217 HD
ENDBRANCH   4  36
TORSDOF 8
ENDMDL
MODEL 8
REMARK VINA RESULT:      -8.5      3.574      7.187
REMARK  8 active torsions:
REMARK  status: ('A' for Active; 'I' for Inactive)
REMARK    1  A    between atoms: C_2  and  C_3 
REMARK    2  A    between atoms: C_3  and  O_4 
REMARK    3  A    between atoms: O_4  and  C_5 
REMARK    4  A    between atoms: C_8  and  C_9 
REMARK       I    between atoms: C_9  and  N_10 
REMARK    5  A    between atoms: N_10  and  C_11 
REMARK    6  A    between atoms: N_12  and  C_13 
REMARK    7  A    between atoms: C_15  and  C_16 
REMARK    8  A    between atoms: C_27  and  O_28 
ROOT
HETATM    1  C   UNL     1      43.165  -9.174   8.425  1.00  0.00     0.035 A 
HETATM    2  C   UNL     1      42.987 -10.362   7.703  1.00  0.00     0.048 A 
HETATM    3  C   UNL     1      44.065 -11.047   7.107  1.00  0.00     0.052 A 
HETATM    4  C   UNL     1      45.349 -10.513   7.276  1.00  0.00     0.080 A 
HETATM    5  C   UNL     1      45.540  -9.326   7.994  1.00  0.00     0.040 A 
HETATM    6  C   UNL     1      44.449  -8.653   8.554  1.00  0.00     0.032 A 
ENDROOT
BRANCH   1   7
HETATM    7  N   UNL     1      41.994  -8.534   8.886  1.00  0.00    -0.333 N 
HETATM    8  C   UNL     1      40.689  -8.802   8.678  1.00  0.00     0.179 C 
HETATM    9  S   UNL     1      39.601  -8.470   9.909  1.00  0.00    -0.040 SA
HETATM   10  H   UNL     1      42.145  -7.902   9.665  1.00  0.00     0.168 HD
BRANCH   8  11
HETATM   11  N   UNL     1      40.189  -9.300   7.519  1.00  0.00    -0.299 N 
HETATM   12  C   UNL     1      39.360 -10.411   7.392  1.00  0.00     0.257 C 
HETATM   13  O   UNL     1      38.646 -10.899   8.256  1.00  0.00    -0.267 OA
HETATM   14  H   UNL     1      40.881  -9.228   6.783  1.00  0.00     0.171 HD
BRANCH  12  15
HETATM   15  C   UNL     1      39.415 -11.058   6.050  1.00  0.00     0.032 A 
HETATM   16  C   UNL     1      39.795 -12.402   5.977  1.00  0.00     0.020 A 
HETATM   17  C   UNL     1      39.946 -13.014   4.731  1.00  0.00     0.038 A 
HETATM   18  C   UNL     1      39.685 -12.302   3.560  1.00  0.00     0.068 A 
HETATM   19  C   UNL     1      39.286 -10.967   3.631  1.00  0.00     0.038 A 
HETATM   20  C   UNL     1      39.147 -10.343   4.876  1.00  0.00     0.020 A 
BRANCH  18  21
HETATM   21  O   UNL     1      39.927 -12.968   2.391  1.00  0.00    -0.351 OA
BRANCH  21  22
HETATM   22  C   UNL     1      39.672 -14.373   2.435  1.00  0.00     0.175 C 
BRANCH  22  23
HETATM   23  C   UNL     1      39.990 -14.976   1.067  1.00  0.00     0.022 C 
HETATM   24  C   UNL     1      40.301 -13.920   0.016  1.00  0.00     0.007 C 
ENDBRANCH  22  23
ENDBRANCH  21  22
ENDBRANCH  18  21
ENDBRANCH  12  15
ENDBRANCH   8  11
ENDBRANCH   1   7
BRANCH   3  25
HETATM   25  C   UNL     1      43.759 -12.259   6.342  1.00  0.00     0.183 A 
HETATM   26  O   UNL     1      43.775 -13.458   7.005  1.00  0.00    -0.288 OA
HETATM   27  C   UNL     1      43.526 -14.388   6.035  1.00  0.00     0.112 A 
HETATM   28  C   UNL     1      43.381 -13.710   4.838  1.00  0.00     0.094 A 
HETATM   29  C   UNL     1      43.439 -15.771   6.189  1.00  0.00    -0.025 A 
HETATM   30  N   UNL     1      43.538 -12.362   5.039  1.00  0.00    -0.221 NA
HETATM   31  C   UNL     1      43.123 -14.437   3.669  1.00  0.00     0.041 A 
HETATM   32  C   UNL     1      43.023 -15.837   3.755  1.00  0.00    -0.059 A 
HETATM   33  C   UNL     1      43.182 -16.481   4.998  1.00  0.00     0.016 A 
HETATM   34  C   UNL     1      42.759 -16.633   2.510  1.00  0.00     0.048 C 
HETATM   35  C   UNL     1      43.608 -16.484   7.491  1.00  0.00     0.051 C 
ENDBRANCH   3  25
BRANCH   4  36
HETATM   36  O   UNL     1      46.443 -11.139   6.747  1.00  0.00    -0.360 OA
HETATM   37  H   UNL     1      46.208 -11.548   5.899  1.00  0.00     0.217 HD
ENDBRANCH   4  36
TORSDOF 8
ENDMDL
MODEL 9
REMARK VINA RESULT:      -8.4      3.206      4.070
REMARK  8 active torsions:
REMARK  status: ('A' for Active; 'I' for Inactive)
REMARK    1  A    between atoms: C_2  and  C_3 
REMARK    2  A    between atoms: C_3  and  O_4 
REMARK    3  A    between atoms: O_4  and  C_5 
REMARK    4  A    between atoms: C_8  and  C_9 
REMARK       I    between atoms: C_9  and  N_10 
REMARK    5  A    between atoms: N_10  and  C_11 
REMARK    6  A    between atoms: N_12  and  C_13 
REMARK    7  A    between atoms: C_15  and  C_16 
REMARK    8  A    between atoms: C_27  and  O_28 
ROOT
HETATM    1  C   UNL     1      44.106 -12.200   7.367  1.00  0.00     0.035 A 
HETATM    2  C   UNL     1      43.696 -11.349   8.403  1.00  0.00     0.048 A 
HETATM    3  C   UNL     1      44.379 -10.155   8.709  1.00  0.00     0.052 A 
HETATM    4  C   UNL     1      45.488  -9.820   7.921  1.00  0.00     0.080 A 
HETATM    5  C   UNL     1      45.909 -10.662   6.885  1.00  0.00     0.040 A 
HETATM    6  C   UNL     1      45.227 -11.854   6.619  1.00  0.00     0.032 A 
ENDROOT
BRANCH   1   7
HETATM    7  N   UNL     1      43.397 -13.413   7.229  1.00  0.00    -0.333 N 
HETATM    8  C   UNL     1      43.076 -14.141   6.140  1.00  0.00     0.179 C 
HETATM    9  S   UNL     1      43.005 -15.809   6.288  1.00  0.00    -0.040 SA
HETATM   10  H   UNL     1      43.294 -13.934   8.093  1.00  0.00     0.168 HD
BRANCH   8  11
HETATM   11  N   UNL     1      42.774 -13.606   4.929  1.00  0.00    -0.299 N 
HETATM   12  C   UNL     1      41.683 -12.793   4.640  1.00  0.00     0.257 C 
HETATM   13  O   UNL     1      41.034 -12.122   5.430  1.00  0.00    -0.267 OA
HETATM   14  H   UNL     1      42.990 -14.268   4.195  1.00  0.00     0.171 HD
BRANCH  12  15
HETATM   15  C   UNL     1      41.280 -12.808   3.205  1.00  0.00     0.032 A 
HETATM   16  C   UNL     1      40.710 -13.976   2.688  1.00  0.00     0.020 A 
HETATM   17  C   UNL     1      40.406 -14.057   1.327  1.00  0.00     0.038 A 
HETATM   18  C   UNL     1      40.634 -12.966   0.488  1.00  0.00     0.068 A 
HETATM   19  C   UNL     1      41.182 -11.792   1.006  1.00  0.00     0.038 A 
HETATM   20  C   UNL     1      41.504 -11.709   2.366  1.00  0.00     0.020 A 
BRANCH  18  21
HETATM   21  O   UNL     1      40.366 -13.167  -0.837  1.00  0.00    -0.351 OA
BRANCH  21  22
HETATM   22  C   UNL     1      39.693 -14.391  -1.136  1.00  0.00     0.175 C 
BRANCH  22  23
HETATM   23  C   UNL     1      38.656 -14.130  -2.228  1.00  0.00     0.022 C 
HETATM   24  C   UNL     1      37.806 -12.897  -1.952  1.00  0.00     0.007 C 
ENDBRANCH  22  23
ENDBRANCH  21  22
ENDBRANCH  18  21
ENDBRANCH  12  15
ENDBRANCH   8  11
ENDBRANCH   1   7
BRANCH   3  25
HETATM   25  C   UNL     1      43.887  -9.361   9.838  1.00  0.00     0.183 A 
HETATM   26  O   UNL     1      43.356  -8.125   9.571  1.00  0.00    -0.288 OA
HETATM   27  C   UNL     1      43.056  -7.611  10.801  1.00  0.00     0.112 A 
HETATM   28  C   UNL     1      43.424  -8.552  11.745  1.00  0.00     0.094 A 
HETATM   29  C   UNL     1      42.491  -6.368  11.085  1.00  0.00    -0.025 A 
HETATM   30  N   UNL     1      43.958  -9.654  11.128  1.00  0.00    -0.221 NA
HETATM   31  C   UNL     1      43.229  -8.268  13.104  1.00  0.00     0.041 A 
HETATM   32  C   UNL     1      42.662  -7.030  13.458  1.00  0.00    -0.059 A 
HETATM   33  C   UNL     1      42.306  -6.105  12.458  1.00  0.00     0.016 A 
HETATM   34  C   UNL     1      42.457  -6.705  14.909  1.00  0.00     0.048 C 
HETATM   35  C   UNL     1      42.108  -5.363  10.048  1.00  0.00     0.051 C 
ENDBRANCH   3  25
BRANCH   4  36
HETATM   36  O   UNL     1      46.182  -8.663   8.145  1.00  0.00    -0.360 OA
HETATM   37  H   UNL     1      47.001  -8.668   7.625  1.00  0.00     0.217 HD
ENDBRANCH   4  36
TORSDOF 8
ENDMDL
MODEL 10
REMARK VINA RESULT:      -8.4      2.558     10.728
REMARK  8 active torsions:
REMARK  status: ('A' for Active; 'I' for Inactive)
REMARK    1  A    between atoms: C_2  and  C_3 
REMARK    2  A    between atoms: C_3  and  O_4 
REMARK    3  A    between atoms: O_4  and  C_5 
REMARK    4  A    between atoms: C_8  and  C_9 
REMARK       I    between atoms: C_9  and  N_10 
REMARK    5  A    between atoms: N_10  and  C_11 
REMARK    6  A    between atoms: N_12  and  C_13 
REMARK    7  A    between atoms: C_15  and  C_16 
REMARK    8  A    between atoms: C_27  and  O_28 
ROOT
HETATM    1  C   UNL     1      43.607 -11.194   6.401  1.00  0.00     0.035 A 
HETATM    2  C   UNL     1      43.804 -12.544   6.076  1.00  0.00     0.048 A 
HETATM    3  C   UNL     1      42.731 -13.444   5.922  1.00  0.00     0.052 A 
HETATM    4  C   UNL     1      41.433 -12.942   6.083  1.00  0.00     0.080 A 
HETATM    5  C   UNL     1      41.222 -11.597   6.409  1.00  0.00     0.040 A 
HETATM    6  C   UNL     1      42.307 -10.731   6.580  1.00  0.00     0.032 A 
ENDROOT
BRANCH   1   7
HETATM    7  N   UNL     1      44.767 -10.423   6.625  1.00  0.00    -0.333 N 
HETATM    8  C   UNL     1      45.267  -9.866   7.747  1.00  0.00     0.179 C 
HETATM    9  S   UNL     1      46.931  -9.756   7.911  1.00  0.00    -0.040 SA
HETATM   10  H   UNL     1      45.448 -10.467   5.874  1.00  0.00     0.168 HD
BRANCH   8  11
HETATM   11  N   UNL     1      44.505  -9.357   8.749  1.00  0.00    -0.299 N 
HETATM   12  C   UNL     1      44.241  -9.968   9.971  1.00  0.00     0.257 C 
HETATM   13  O   UNL     1      44.902 -10.841  10.515  1.00  0.00    -0.267 OA
HETATM   14  H   UNL     1      43.708  -8.866   8.364  1.00  0.00     0.171 HD
BRANCH  12  15
HETATM   15  C   UNL     1      42.988  -9.497  10.626  1.00  0.00     0.032 A 
HETATM   16  C   UNL     1      42.978  -9.363  12.018  1.00  0.00     0.020 A 
HETATM   17  C   UNL     1      41.795  -9.014  12.673  1.00  0.00     0.038 A 
HETATM   18  C   UNL     1      40.633  -8.763  11.943  1.00  0.00     0.068 A 
HETATM   19  C   UNL     1      40.646  -8.876  10.552  1.00  0.00     0.038 A 
HETATM   20  C   UNL     1      41.824  -9.241   9.891  1.00  0.00     0.020 A 
BRANCH  18  21
HETATM   21  O   UNL     1      39.512  -8.496  12.679  1.00  0.00    -0.351 OA
BRANCH  21  22
HETATM   22  C   UNL     1      39.658  -7.444  13.636  1.00  0.00     0.175 C 
BRANCH  22  23
HETATM   23  C   UNL     1      38.331  -6.695  13.752  1.00  0.00     0.022 C 
HETATM   24  C   UNL     1      37.522  -6.726  12.463  1.00  0.00     0.007 C 
ENDBRANCH  22  23
ENDBRANCH  21  22
ENDBRANCH  18  21
ENDBRANCH  12  15
ENDBRANCH   8  11
ENDBRANCH   1   7
BRANCH   3  25
HETATM   25  C   UNL     1      43.055 -14.841   5.621  1.00  0.00     0.183 A 
HETATM   26  O   UNL     1      43.080 -15.225   4.305  1.00  0.00    -0.288 OA
HETATM   27  C   UNL     1      43.336 -16.566   4.346  1.00  0.00     0.112 A 
HETATM   28  C   UNL     1      43.445 -16.927   5.677  1.00  0.00     0.094 A 
HETATM   29  C   UNL     1      43.461 -17.439   3.265  1.00  0.00    -0.025 A 
HETATM   30  N   UNL     1      43.257 -15.831   6.478  1.00  0.00    -0.221 NA
HETATM   31  C   UNL     1      43.702 -18.265   6.002  1.00  0.00     0.041 A 
HETATM   32  C   UNL     1      43.839 -19.198   4.957  1.00  0.00    -0.059 A 
HETATM   33  C   UNL     1      43.717 -18.780   3.618  1.00  0.00     0.016 A 
HETATM   34  C   UNL     1      44.103 -20.638   5.288  1.00  0.00     0.048 C 
HETATM   35  C   UNL     1      43.331 -17.028   1.834  1.00  0.00     0.051 C 
ENDBRANCH   3  25
BRANCH   4  36
HETATM   36  O   UNL     1      40.344 -13.753   5.922  1.00  0.00    -0.360 OA
HETATM   37  H   UNL     1      40.178 -14.244   6.743  1.00  0.00     0.217 HD
ENDBRANCH   4  36
TORSDOF 8
ENDMDL
