MODEL 1
REMARK VINA RESULT:      -9.0      0.000      0.000
REMARK  5 active torsions:
REMARK  status: ('A' for Active; 'I' for Inactive)
REMARK    1  A    between atoms: C_2  and  C_3 
REMARK    2  A    between atoms: C_8  and  C_9 
REMARK       I    between atoms: C_9  and  N_10 
REMARK    3  A    between atoms: N_10  and  C_11 
REMARK    4  A    between atoms: C_11  and  C_12 
REMARK    5  A    between atoms: C_19  and  C_20 
ROOT
HETATM    1  C   UNL     1      42.318 -15.080   5.044  1.00  0.00     0.118 C 
HETATM    2  N   UNL     1      43.514 -14.565   5.717  1.00  0.00    -0.366 N 
HETATM    3  C   UNL     1      43.500 -13.288   6.154  1.00  0.00     0.123 A 
HETATM    4  N   UNL     1      42.854 -12.333   5.431  1.00  0.00    -0.240 N 
HETATM    5  N   UNL     1      42.850 -11.116   5.998  1.00  0.00    -0.165 NA
HETATM    6  C   UNL     1      43.618 -11.288   7.101  1.00  0.00     0.148 A 
HETATM    7  C   UNL     1      44.055 -12.639   7.222  1.00  0.00     0.088 A 
HETATM    8  C   UNL     1      42.205 -12.617   4.170  1.00  0.00     0.221 C 
HETATM    9  C   UNL     1      41.583 -14.026   4.182  1.00  0.00     0.066 C 
HETATM   10  H   UNL     1      43.962 -15.267   6.308  1.00  0.00     0.161 HD
ENDROOT
BRANCH   6  11
HETATM   11  C   UNL     1      43.933 -10.183   8.020  1.00  0.00     0.272 C 
HETATM   12  N   UNL     1      42.997 -10.008   9.014  1.00  0.00    -0.353 N 
HETATM   13  H   UNL     1      42.133 -10.534   8.895  1.00  0.00     0.162 HD
HETATM   14  O   UNL     1      44.929  -9.477   7.894  1.00  0.00    -0.266 OA
BRANCH  12  15
HETATM   15  C   UNL     1      42.983  -8.826   9.849  1.00  0.00     0.155 C 
BRANCH  15  16
HETATM   16  C   UNL     1      43.729  -9.062  11.168  1.00  0.00     0.139 C 
HETATM   17  O   UNL     1      43.512 -10.427  11.589  1.00  0.00    -0.384 OA
HETATM   18  C   UNL     1      42.690 -10.424  12.765  1.00  0.00     0.168 C 
HETATM   19  C   UNL     1      42.121  -9.029  12.902  1.00  0.00     0.029 C 
HETATM   20  C   UNL     1      43.212  -8.183  12.297  1.00  0.00     0.035 C 
ENDBRANCH  15  16
ENDBRANCH  12  15
ENDBRANCH   6  11
BRANCH   8  21
HETATM   21  C   UNL     1      43.185 -12.429   3.033  1.00  0.00     0.409 C 
HETATM   22  F   UNL     1      44.280 -11.729   3.408  1.00  0.00    -0.169 F 
HETATM   23  F   UNL     1      43.608 -13.582   2.477  1.00  0.00    -0.169 F 
HETATM   24  F   UNL     1      42.599 -11.710   2.038  1.00  0.00    -0.169 F 
ENDBRANCH   8  21
BRANCH   1  25
HETATM   25  C   UNL     1      42.660 -16.335   4.260  1.00  0.00    -0.035 A 
HETATM   26  C   UNL     1      43.547 -17.279   4.807  1.00  0.00     0.010 A 
HETATM   27  C   UNL     1      43.877 -18.441   4.104  1.00  0.00     0.019 A 
HETATM   28  C   UNL     1      43.317 -18.673   2.850  1.00  0.00     0.011 A 
HETATM   29  C   UNL     1      42.430 -17.756   2.294  1.00  0.00     0.019 A 
HETATM   30 BR   UNL     1      43.767 -20.242   1.897  1.00  0.00    -0.051 Br
HETATM   31  C   UNL     1      42.104 -16.592   2.996  1.00  0.00     0.010 A 
ENDBRANCH   1  25
TORSDOF 5
ENDMDL
MODEL 2
REMARK VINA RESULT:      -8.4      5.898      8.377
REMARK  5 active torsions:
REMARK  status: ('A' for Active; 'I' for Inactive)
REMARK    1  A    between atoms: C_2  and  C_3 
REMARK    2  A    between atoms: C_8  and  C_9 
REMARK       I    between atoms: C_9  and  N_10 
REMARK    3  A    between atoms: N_10  and  C_11 
REMARK    4  A    between atoms: C_11  and  C_12 
REMARK    5  A    between atoms: C_19  and  C_20 
ROOT
HETATM    1  C   UNL     1      42.900 -16.106   1.596  1.00  0.00     0.118 C 
HETATM    2  N   UNL     1      41.447 -16.016   1.430  1.00  0.00    -0.366 N 
HETATM    3  C   UNL     1      40.928 -14.867   0.948  1.00  0.00     0.123 A 
HETATM    4  N   UNL     1      41.491 -13.676   1.292  1.00  0.00    -0.240 N 
HETATM    5  N   UNL     1      40.933 -12.609   0.698  1.00  0.00    -0.165 NA
HETATM    6  C   UNL     1      39.897 -13.145   0.010  1.00  0.00     0.148 A 
HETATM    7  C   UNL     1      39.856 -14.562   0.157  1.00  0.00     0.088 A 
HETATM    8  C   UNL     1      42.611 -13.577   2.199  1.00  0.00     0.221 C 
HETATM    9  C   UNL     1      43.563 -14.774   2.024  1.00  0.00     0.066 C 
HETATM   10  H   UNL     1      41.035 -16.895   1.113  1.00  0.00     0.161 HD
ENDROOT
BRANCH   6  11
HETATM   11  C   UNL     1      38.960 -12.320  -0.770  1.00  0.00     0.272 C 
HETATM   12  N   UNL     1      39.317 -12.179  -2.091  1.00  0.00    -0.353 N 
HETATM   13  H   UNL     1      40.254 -12.504  -2.326  1.00  0.00     0.162 HD
HETATM   14  O   UNL     1      37.965 -11.798  -0.276  1.00  0.00    -0.266 OA
BRANCH  12  15
HETATM   15  C   UNL     1      38.683 -11.204  -2.953  1.00  0.00     0.155 C 
BRANCH  15  16
HETATM   16  C   UNL     1      39.678 -10.132  -3.416  1.00  0.00     0.139 C 
HETATM   17  O   UNL     1      40.984 -10.447  -2.885  1.00  0.00    -0.384 OA
HETATM   18  C   UNL     1      41.332  -9.468  -1.896  1.00  0.00     0.168 C 
HETATM   19  C   UNL     1      40.070  -8.695  -1.579  1.00  0.00     0.029 C 
HETATM   20  C   UNL     1      39.331  -8.747  -2.891  1.00  0.00     0.035 C 
ENDBRANCH  15  16
ENDBRANCH  12  15
ENDBRANCH   6  11
BRANCH   8  21
HETATM   21  C   UNL     1      42.112 -13.441   3.621  1.00  0.00     0.409 C 
HETATM   22  F   UNL     1      41.910 -12.151   3.974  1.00  0.00    -0.169 F 
HETATM   23  F   UNL     1      40.971 -14.115   3.868  1.00  0.00    -0.169 F 
HETATM   24  F   UNL     1      43.045 -13.928   4.482  1.00  0.00    -0.169 F 
ENDBRANCH   8  21
BRANCH   1  25
HETATM   25  C   UNL     1      43.251 -17.255   2.525  1.00  0.00    -0.035 A 
HETATM   26  C   UNL     1      43.257 -18.572   2.034  1.00  0.00     0.010 A 
HETATM   27  C   UNL     1      43.575 -19.645   2.870  1.00  0.00     0.019 A 
HETATM   28  C   UNL     1      43.898 -19.410   4.205  1.00  0.00     0.011 A 
HETATM   29  C   UNL     1      43.906 -18.113   4.709  1.00  0.00     0.019 A 
HETATM   30 BR   UNL     1      44.323 -20.862   5.337  1.00  0.00    -0.051 Br
HETATM   31  C   UNL     1      43.583 -17.041   3.873  1.00  0.00     0.010 A 
ENDBRANCH   1  25
TORSDOF 5
ENDMDL
MODEL 3
REMARK VINA RESULT:      -8.4      4.961      9.559
REMARK  5 active torsions:
REMARK  status: ('A' for Active; 'I' for Inactive)
REMARK    1  A    between atoms: C_2  and  C_3 
REMARK    2  A    between atoms: C_8  and  C_9 
REMARK       I    between atoms: C_9  and  N_10 
REMARK    3  A    between atoms: N_10  and  C_11 
REMARK    4  A    between atoms: C_11  and  C_12 
REMARK    5  A    between atoms: C_19  and  C_20 
ROOT
HETATM    1  C   UNL     1      42.620 -10.183  10.867  1.00  0.00     0.118 C 
HETATM    2  N   UNL     1      42.135  -9.417   9.716  1.00  0.00    -0.366 N 
HETATM    3  C   UNL     1      42.493  -9.825   8.480  1.00  0.00     0.123 A 
HETATM    4  N   UNL     1      43.731 -10.352   8.274  1.00  0.00    -0.240 N 
HETATM    5  N   UNL     1      43.948 -10.785   7.022  1.00  0.00    -0.165 NA
HETATM    6  C   UNL     1      42.814 -10.428   6.372  1.00  0.00     0.148 A 
HETATM    7  C   UNL     1      41.883  -9.809   7.256  1.00  0.00     0.088 A 
HETATM    8  C   UNL     1      44.717 -10.457   9.327  1.00  0.00     0.221 C 
HETATM    9  C   UNL     1      44.043 -10.762  10.677  1.00  0.00     0.066 C 
HETATM   10  H   UNL     1      41.182  -9.075   9.848  1.00  0.00     0.161 HD
ENDROOT
BRANCH   6  11
HETATM   11  C   UNL     1      42.625 -10.669   4.933  1.00  0.00     0.272 C 
HETATM   12  N   UNL     1      43.069 -11.903   4.516  1.00  0.00    -0.353 N 
HETATM   13  H   UNL     1      43.621 -12.419   5.199  1.00  0.00     0.162 HD
HETATM   14  O   UNL     1      42.131  -9.835   4.179  1.00  0.00    -0.266 OA
BRANCH  12  15
HETATM   15  C   UNL     1      43.214 -12.228   3.114  1.00  0.00     0.155 C 
BRANCH  15  16
HETATM   16  C   UNL     1      42.199 -13.292   2.676  1.00  0.00     0.139 C 
HETATM   17  O   UNL     1      41.606 -13.883   3.853  1.00  0.00    -0.384 OA
HETATM   18  C   UNL     1      42.055 -15.241   3.968  1.00  0.00     0.168 C 
HETATM   19  C   UNL     1      43.210 -15.406   3.004  1.00  0.00     0.029 C 
HETATM   20  C   UNL     1      42.846 -14.436   1.909  1.00  0.00     0.035 C 
ENDBRANCH  15  16
ENDBRANCH  12  15
ENDBRANCH   6  11
BRANCH   8  21
HETATM   21  C   UNL     1      45.557  -9.200   9.372  1.00  0.00     0.409 C 
HETATM   22  F   UNL     1      46.582  -9.233   8.491  1.00  0.00    -0.169 F 
HETATM   23  F   UNL     1      44.862  -8.067   9.147  1.00  0.00    -0.169 F 
HETATM   24  F   UNL     1      46.121  -9.071  10.604  1.00  0.00    -0.169 F 
ENDBRANCH   8  21
BRANCH   1  25
HETATM   25  C   UNL     1      42.494  -9.357  12.135  1.00  0.00    -0.035 A 
HETATM   26  C   UNL     1      43.354  -8.265  12.345  1.00  0.00     0.010 A 
HETATM   27  C   UNL     1      43.256  -7.491  13.505  1.00  0.00     0.019 A 
HETATM   28  C   UNL     1      42.293  -7.798  14.462  1.00  0.00     0.011 A 
HETATM   29  C   UNL     1      41.426  -8.870  14.270  1.00  0.00     0.019 A 
HETATM   30 BR   UNL     1      42.165  -6.755  16.032  1.00  0.00    -0.051 Br
HETATM   31  C   UNL     1      41.527  -9.646  13.112  1.00  0.00     0.010 A 
ENDBRANCH   1  25
TORSDOF 5
ENDMDL
MODEL 4
REMARK VINA RESULT:      -8.3      5.479      8.343
REMARK  5 active torsions:
REMARK  status: ('A' for Active; 'I' for Inactive)
REMARK    1  A    between atoms: C_2  and  C_3 
REMARK    2  A    between atoms: C_8  and  C_9 
REMARK       I    between atoms: C_9  and  N_10 
REMARK    3  A    between atoms: N_10  and  C_11 
REMARK    4  A    between atoms: C_11  and  C_12 
REMARK    5  A    between atoms: C_19  and  C_20 
ROOT
HETATM    1  C   UNL     1      42.842 -15.406   2.737  1.00  0.00     0.118 C 
HETATM    2  N   UNL     1      41.535 -15.486   2.079  1.00  0.00    -0.366 N 
HETATM    3  C   UNL     1      40.868 -14.337   1.841  1.00  0.00     0.123 A 
HETATM    4  N   UNL     1      40.941 -13.315   2.737  1.00  0.00    -0.240 N 
HETATM    5  N   UNL     1      40.294 -12.201   2.360  1.00  0.00    -0.165 NA
HETATM    6  C   UNL     1      39.699 -12.567   1.201  1.00  0.00     0.148 A 
HETATM    7  C   UNL     1      40.026 -13.909   0.851  1.00  0.00     0.088 A 
HETATM    8  C   UNL     1      41.678 -13.418   3.977  1.00  0.00     0.221 C 
HETATM    9  C   UNL     1      42.942 -14.277   3.790  1.00  0.00     0.066 C 
HETATM   10  H   UNL     1      41.502 -16.214   1.363  1.00  0.00     0.161 HD
ENDROOT
BRANCH   6  11
HETATM   11  C   UNL     1      38.828 -11.655   0.442  1.00  0.00     0.272 C 
HETATM   12  N   UNL     1      38.128 -12.273  -0.569  1.00  0.00    -0.353 N 
HETATM   13  H   UNL     1      38.420 -13.226  -0.780  1.00  0.00     0.162 HD
HETATM   14  O   UNL     1      38.753 -10.454   0.683  1.00  0.00    -0.266 OA
BRANCH  12  15
HETATM   15  C   UNL     1      37.429 -11.518  -1.587  1.00  0.00     0.155 C 
BRANCH  15  16
HETATM   16  C   UNL     1      38.112 -11.652  -2.954  1.00  0.00     0.139 C 
HETATM   17  O   UNL     1      39.140 -12.664  -2.864  1.00  0.00    -0.384 OA
HETATM   18  C   UNL     1      40.424 -12.032  -2.972  1.00  0.00     0.168 C 
HETATM   19  C   UNL     1      40.197 -10.545  -2.811  1.00  0.00     0.029 C 
HETATM   20  C   UNL     1      38.814 -10.373  -3.385  1.00  0.00     0.035 C 
ENDBRANCH  15  16
ENDBRANCH  12  15
ENDBRANCH   6  11
BRANCH   8  21
HETATM   21  C   UNL     1      40.775 -13.950   5.069  1.00  0.00     0.409 C 
HETATM   22  F   UNL     1      40.496 -15.263   4.911  1.00  0.00    -0.169 F 
HETATM   23  F   UNL     1      41.265 -13.784   6.313  1.00  0.00    -0.169 F 
HETATM   24  F   UNL     1      39.581 -13.301   5.031  1.00  0.00    -0.169 F 
ENDBRANCH   8  21
BRANCH   1  25
HETATM   25  C   UNL     1      43.226 -16.763   3.301  1.00  0.00    -0.035 A 
HETATM   26  C   UNL     1      43.477 -16.900   4.678  1.00  0.00     0.010 A 
HETATM   27  C   UNL     1      43.833 -18.138   5.219  1.00  0.00     0.019 A 
HETATM   28  C   UNL     1      43.935 -19.252   4.390  1.00  0.00     0.011 A 
HETATM   29  C   UNL     1      43.684 -19.140   3.026  1.00  0.00     0.019 A 
HETATM   30 BR   UNL     1      44.422 -20.925   5.121  1.00  0.00    -0.051 Br
HETATM   31  C   UNL     1      43.332 -17.900   2.484  1.00  0.00     0.010 A 
ENDBRANCH   1  25
TORSDOF 5
ENDMDL
MODEL 5
REMARK VINA RESULT:      -8.2      5.886      7.878
REMARK  5 active torsions:
REMARK  status: ('A' for Active; 'I' for Inactive)
REMARK    1  A    between atoms: C_2  and  C_3 
REMARK    2  A    between atoms: C_8  and  C_9 
REMARK       I    between atoms: C_9  and  N_10 
REMARK    3  A    between atoms: N_10  and  C_11 
REMARK    4  A    between atoms: C_11  and  C_12 
REMARK    5  A    between atoms: C_19  and  C_20 
ROOT
HETATM    1  C   UNL     1      42.855 -15.698   1.935  1.00  0.00     0.118 C 
HETATM    2  N   UNL     1      41.533 -15.878   1.329  1.00  0.00    -0.366 N 
HETATM    3  C   UNL     1      40.881 -14.786   0.879  1.00  0.00     0.123 A 
HETATM    4  N   UNL     1      40.992 -13.608   1.553  1.00  0.00    -0.240 N 
HETATM    5  N   UNL     1      40.356 -12.577   0.973  1.00  0.00    -0.165 NA
HETATM    6  C   UNL     1      39.729 -13.154  -0.079  1.00  0.00     0.148 A 
HETATM    7  C   UNL     1      40.026 -14.545  -0.160  1.00  0.00     0.088 A 
HETATM    8  C   UNL     1      41.753 -13.479   2.775  1.00  0.00     0.221 C 
HETATM    9  C   UNL     1      42.998 -14.384   2.740  1.00  0.00     0.066 C 
HETATM   10  H   UNL     1      41.472 -16.733   0.774  1.00  0.00     0.161 HD
ENDROOT
BRANCH   6  11
HETATM   11  C   UNL     1      38.858 -12.392  -0.989  1.00  0.00     0.272 C 
HETATM   12  N   UNL     1      39.245 -11.082  -1.156  1.00  0.00    -0.353 N 
HETATM   13  H   UNL     1      39.963 -10.756  -0.512  1.00  0.00     0.162 HD
HETATM   14  O   UNL     1      37.871 -12.884  -1.530  1.00  0.00    -0.266 OA
BRANCH  12  15
HETATM   15  C   UNL     1      38.384 -10.108  -1.791  1.00  0.00     0.155 C 
BRANCH  15  16
HETATM   16  C   UNL     1      37.859  -9.079  -0.782  1.00  0.00     0.139 C 
HETATM   17  O   UNL     1      38.471  -9.332   0.503  1.00  0.00    -0.384 OA
HETATM   18  C   UNL     1      37.468  -9.818   1.406  1.00  0.00     0.168 C 
HETATM   19  C   UNL     1      36.258 -10.174   0.572  1.00  0.00     0.029 C 
HETATM   20  C   UNL     1      36.358  -9.187  -0.564  1.00  0.00     0.035 C 
ENDBRANCH  15  16
ENDBRANCH  12  15
ENDBRANCH   6  11
BRANCH   8  21
HETATM   21  C   UNL     1      40.865 -13.764   3.967  1.00  0.00     0.409 C 
HETATM   22  F   UNL     1      40.697 -15.088   4.178  1.00  0.00    -0.169 F 
HETATM   23  F   UNL     1      41.304 -13.219   5.119  1.00  0.00    -0.169 F 
HETATM   24  F   UNL     1      39.624 -13.254   3.745  1.00  0.00    -0.169 F 
ENDBRANCH   8  21
BRANCH   1  25
HETATM   25  C   UNL     1      43.228 -16.923   2.751  1.00  0.00    -0.035 A 
HETATM   26  C   UNL     1      43.277 -18.184   2.132  1.00  0.00     0.010 A 
HETATM   27  C   UNL     1      43.618 -19.326   2.862  1.00  0.00     0.019 A 
HETATM   28  C   UNL     1      43.920 -19.216   4.217  1.00  0.00     0.011 A 
HETATM   29  C   UNL     1      43.884 -17.976   4.848  1.00  0.00     0.019 A 
HETATM   30 BR   UNL     1      44.375 -20.761   5.206  1.00  0.00    -0.051 Br
HETATM   31  C   UNL     1      43.539 -16.835   4.117  1.00  0.00     0.010 A 
ENDBRANCH   1  25
TORSDOF 5
ENDMDL
MODEL 6
REMARK VINA RESULT:      -8.1      1.541      2.258
REMARK  5 active torsions:
REMARK  status: ('A' for Active; 'I' for Inactive)
REMARK    1  A    between atoms: C_2  and  C_3 
REMARK    2  A    between atoms: C_8  and  C_9 
REMARK       I    between atoms: C_9  and  N_10 
REMARK    3  A    between atoms: N_10  and  C_11 
REMARK    4  A    between atoms: C_11  and  C_12 
REMARK    5  A    between atoms: C_19  and  C_20 
ROOT
HETATM    1  C   UNL     1      42.327 -15.014   5.062  1.00  0.00     0.118 C 
HETATM    2  N   UNL     1      43.512 -14.464   5.724  1.00  0.00    -0.366 N 
HETATM    3  C   UNL     1      43.481 -13.176   6.124  1.00  0.00     0.123 A 
HETATM    4  N   UNL     1      42.825 -12.251   5.372  1.00  0.00    -0.240 N 
HETATM    5  N   UNL     1      42.804 -11.018   5.904  1.00  0.00    -0.165 NA
HETATM    6  C   UNL     1      43.569 -11.148   7.014  1.00  0.00     0.148 A 
HETATM    7  C   UNL     1      44.023 -12.489   7.175  1.00  0.00     0.088 A 
HETATM    8  C   UNL     1      42.186 -12.579   4.117  1.00  0.00     0.221 C 
HETATM    9  C   UNL     1      41.582 -13.994   4.168  1.00  0.00     0.066 C 
HETATM   10  H   UNL     1      43.967 -15.143   6.337  1.00  0.00     0.161 HD
ENDROOT
BRANCH   6  11
HETATM   11  C   UNL     1      43.866 -10.013   7.901  1.00  0.00     0.272 C 
HETATM   12  N   UNL     1      42.914  -9.020   7.865  1.00  0.00    -0.353 N 
HETATM   13  H   UNL     1      42.226  -9.104   7.118  1.00  0.00     0.162 HD
HETATM   14  O   UNL     1      44.878  -9.957   8.593  1.00  0.00    -0.266 OA
BRANCH  12  15
HETATM   15  C   UNL     1      43.145  -7.718   8.454  1.00  0.00     0.155 C 
BRANCH  15  16
HETATM   16  C   UNL     1      42.041  -7.349   9.452  1.00  0.00     0.139 C 
HETATM   17  O   UNL     1      41.171  -6.369   8.844  1.00  0.00    -0.384 OA
HETATM   18  C   UNL     1      41.347  -5.113   9.515  1.00  0.00     0.168 C 
HETATM   19  C   UNL     1      42.593  -5.238  10.365  1.00  0.00     0.029 C 
HETATM   20  C   UNL     1      42.587  -6.704  10.717  1.00  0.00     0.035 C 
ENDBRANCH  15  16
ENDBRANCH  12  15
ENDBRANCH   6  11
BRANCH   8  21
HETATM   21  C   UNL     1      43.167 -12.411   2.979  1.00  0.00     0.409 C 
HETATM   22  F   UNL     1      42.684 -11.619   1.995  1.00  0.00    -0.169 F 
HETATM   23  F   UNL     1      44.362 -11.911   3.355  1.00  0.00    -0.169 F 
HETATM   24  F   UNL     1      43.415 -13.619   2.406  1.00  0.00    -0.169 F 
ENDBRANCH   8  21
BRANCH   1  25
HETATM   25  C   UNL     1      42.688 -16.287   4.316  1.00  0.00    -0.035 A 
HETATM   26  C   UNL     1      42.112 -16.546   3.060  1.00  0.00     0.010 A 
HETATM   27  C   UNL     1      42.429 -17.710   2.354  1.00  0.00     0.019 A 
HETATM   28  C   UNL     1      43.330 -18.623   2.896  1.00  0.00     0.011 A 
HETATM   29  C   UNL     1      43.917 -18.382   4.135  1.00  0.00     0.019 A 
HETATM   30 BR   UNL     1      43.753 -20.200   1.946  1.00  0.00    -0.051 Br
HETATM   31  C   UNL     1      43.596 -17.220   4.841  1.00  0.00     0.010 A 
ENDBRANCH   1  25
TORSDOF 5
ENDMDL
MODEL 7
REMARK VINA RESULT:      -7.8      5.939      8.015
REMARK  5 active torsions:
REMARK  status: ('A' for Active; 'I' for Inactive)
REMARK    1  A    between atoms: C_2  and  C_3 
REMARK    2  A    between atoms: C_8  and  C_9 
REMARK       I    between atoms: C_9  and  N_10 
REMARK    3  A    between atoms: N_10  and  C_11 
REMARK    4  A    between atoms: C_11  and  C_12 
REMARK    5  A    between atoms: C_19  and  C_20 
ROOT
HETATM    1  C   UNL     1      43.100 -14.808   2.407  1.00  0.00     0.118 C 
HETATM    2  N   UNL     1      42.070 -14.887   1.368  1.00  0.00    -0.366 N 
HETATM    3  C   UNL     1      41.466 -13.745   0.978  1.00  0.00     0.123 A 
HETATM    4  N   UNL     1      41.215 -12.768   1.892  1.00  0.00    -0.240 N 
HETATM    5  N   UNL     1      40.675 -11.653   1.375  1.00  0.00    -0.165 NA
HETATM    6  C   UNL     1      40.488 -11.975   0.073  1.00  0.00     0.148 A 
HETATM    7  C   UNL     1      40.961 -13.289  -0.208  1.00  0.00     0.088 A 
HETATM    8  C   UNL     1      41.529 -12.915   3.295  1.00  0.00     0.221 C 
HETATM    9  C   UNL     1      42.821 -13.731   3.482  1.00  0.00     0.066 C 
HETATM   10  H   UNL     1      42.292 -15.579   0.650  1.00  0.00     0.161 HD
ENDROOT
BRANCH   6  11
HETATM   11  C   UNL     1      39.864 -11.048  -0.884  1.00  0.00     0.272 C 
HETATM   12  N   UNL     1      40.762 -10.217  -1.514  1.00  0.00    -0.353 N 
HETATM   13  H   UNL     1      41.703 -10.220  -1.125  1.00  0.00     0.162 HD
HETATM   14  O   UNL     1      38.653 -11.014  -1.083  1.00  0.00    -0.266 OA
BRANCH  12  15
HETATM   15  C   UNL     1      40.331  -9.070  -2.284  1.00  0.00     0.155 C 
BRANCH  15  16
HETATM   16  C   UNL     1      40.851  -7.760  -1.679  1.00  0.00     0.139 C 
HETATM   17  O   UNL     1      41.297  -6.897  -2.749  1.00  0.00    -0.384 OA
HETATM   18  C   UNL     1      42.725  -6.779  -2.684  1.00  0.00     0.168 C 
HETATM   19  C   UNL     1      43.214  -7.849  -1.734  1.00  0.00     0.029 C 
HETATM   20  C   UNL     1      42.057  -7.972  -0.776  1.00  0.00     0.035 C 
ENDBRANCH  15  16
ENDBRANCH  12  15
ENDBRANCH   6  11
BRANCH   8  21
HETATM   21  C   UNL     1      40.351 -13.523   4.025  1.00  0.00     0.409 C 
HETATM   22  F   UNL     1      39.285 -13.710   3.216  1.00  0.00    -0.169 F 
HETATM   23  F   UNL     1      40.625 -14.703   4.618  1.00  0.00    -0.169 F 
HETATM   24  F   UNL     1      39.938 -12.680   5.009  1.00  0.00    -0.169 F 
ENDBRANCH   8  21
BRANCH   1  25
HETATM   25  C   UNL     1      43.342 -16.182   3.009  1.00  0.00    -0.035 A 
HETATM   26  C   UNL     1      43.307 -17.320   2.185  1.00  0.00     0.010 A 
HETATM   27  C   UNL     1      43.527 -18.594   2.716  1.00  0.00     0.019 A 
HETATM   28  C   UNL     1      43.790 -18.740   4.076  1.00  0.00     0.011 A 
HETATM   29  C   UNL     1      43.837 -17.626   4.908  1.00  0.00     0.019 A 
HETATM   30 BR   UNL     1      44.080 -20.463   4.795  1.00  0.00    -0.051 Br
HETATM   31  C   UNL     1      43.613 -16.352   4.376  1.00  0.00     0.010 A 
ENDBRANCH   1  25
TORSDOF 5
ENDMDL
MODEL 8
REMARK VINA RESULT:      -7.7      5.625     10.607
REMARK  5 active torsions:
REMARK  status: ('A' for Active; 'I' for Inactive)
REMARK    1  A    between atoms: C_2  and  C_3 
REMARK    2  A    between atoms: C_8  and  C_9 
REMARK       I    between atoms: C_9  and  N_10 
REMARK    3  A    between atoms: N_10  and  C_11 
REMARK    4  A    between atoms: C_11  and  C_12 
REMARK    5  A    between atoms: C_19  and  C_20 
ROOT
HETATM    1  C   UNL     1      42.517  -7.424  12.568  1.00  0.00     0.118 C 
HETATM    2  N   UNL     1      43.082  -8.774  12.489  1.00  0.00    -0.366 N 
HETATM    3  C   UNL     1      43.230  -9.334  11.270  1.00  0.00     0.123 A 
HETATM    4  N   UNL     1      42.305  -9.096  10.300  1.00  0.00    -0.240 N 
HETATM    5  N   UNL     1      42.594  -9.649   9.111  1.00  0.00    -0.165 NA
HETATM    6  C   UNL     1      43.720 -10.357   9.367  1.00  0.00     0.148 A 
HETATM    7  C   UNL     1      44.140 -10.193  10.719  1.00  0.00     0.088 A 
HETATM    8  C   UNL     1      41.126  -8.291  10.529  1.00  0.00     0.221 C 
HETATM    9  C   UNL     1      41.434  -7.137  11.501  1.00  0.00     0.066 C 
HETATM   10  H   UNL     1      43.819  -8.930  13.178  1.00  0.00     0.161 HD
ENDROOT
BRANCH   6  11
HETATM   11  C   UNL     1      44.382 -11.179   8.341  1.00  0.00     0.272 C 
HETATM   12  N   UNL     1      43.515 -11.980   7.633  1.00  0.00    -0.353 N 
HETATM   13  H   UNL     1      42.571 -12.040   8.010  1.00  0.00     0.162 HD
HETATM   14  O   UNL     1      45.595 -11.158   8.153  1.00  0.00    -0.266 OA
BRANCH  12  15
HETATM   15  C   UNL     1      43.989 -13.044   6.773  1.00  0.00     0.155 C 
BRANCH  15  16
HETATM   16  C   UNL     1      42.953 -14.168   6.647  1.00  0.00     0.139 C 
HETATM   17  O   UNL     1      42.961 -14.948   7.863  1.00  0.00    -0.384 OA
HETATM   18  C   UNL     1      43.499 -16.247   7.578  1.00  0.00     0.168 C 
HETATM   19  C   UNL     1      44.135 -16.169   6.208  1.00  0.00     0.029 C 
HETATM   20  C   UNL     1      43.277 -15.138   5.521  1.00  0.00     0.035 C 
ENDBRANCH  15  16
ENDBRANCH  12  15
ENDBRANCH   6  11
BRANCH   8  21
HETATM   21  C   UNL     1      39.992  -9.167  11.015  1.00  0.00     0.409 C 
HETATM   22  F   UNL     1      39.106  -9.451  10.034  1.00  0.00    -0.169 F 
HETATM   23  F   UNL     1      40.394 -10.335  11.554  1.00  0.00    -0.169 F 
HETATM   24  F   UNL     1      39.292  -8.514  11.981  1.00  0.00    -0.169 F 
ENDBRANCH   8  21
BRANCH   1  25
HETATM   25  C   UNL     1      42.031  -7.142  13.979  1.00  0.00    -0.035 A 
HETATM   26  C   UNL     1      41.783  -5.818  14.380  1.00  0.00     0.010 A 
HETATM   27  C   UNL     1      41.336  -5.534  15.673  1.00  0.00     0.019 A 
HETATM   28  C   UNL     1      41.126  -6.574  16.576  1.00  0.00     0.011 A 
HETATM   29  C   UNL     1      41.358  -7.893  16.197  1.00  0.00     0.019 A 
HETATM   30 BR   UNL     1      40.527  -6.190  18.327  1.00  0.00    -0.051 Br
HETATM   31  C   UNL     1      41.810  -8.175  14.905  1.00  0.00     0.010 A 
ENDBRANCH   1  25
TORSDOF 5
ENDMDL
MODEL 9
REMARK VINA RESULT:      -7.7      2.670      3.287
REMARK  5 active torsions:
REMARK  status: ('A' for Active; 'I' for Inactive)
REMARK    1  A    between atoms: C_2  and  C_3 
REMARK    2  A    between atoms: C_8  and  C_9 
REMARK       I    between atoms: C_9  and  N_10 
REMARK    3  A    between atoms: N_10  and  C_11 
REMARK    4  A    between atoms: C_11  and  C_12 
REMARK    5  A    between atoms: C_19  and  C_20 
ROOT
HETATM    1  C   UNL     1      42.163 -13.397   3.879  1.00  0.00     0.118 C 
HETATM    2  N   UNL     1      41.235 -13.336   5.012  1.00  0.00    -0.366 N 
HETATM    3  C   UNL     1      41.096 -12.161   5.662  1.00  0.00     0.123 A 
HETATM    4  N   UNL     1      42.174 -11.346   5.824  1.00  0.00    -0.240 N 
HETATM    5  N   UNL     1      41.899 -10.177   6.423  1.00  0.00    -0.165 NA
HETATM    6  C   UNL     1      40.588 -10.295   6.743  1.00  0.00     0.148 A 
HETATM    7  C   UNL     1      40.055 -11.537   6.292  1.00  0.00     0.088 A 
HETATM    8  C   UNL     1      43.497 -11.705   5.363  1.00  0.00     0.221 C 
HETATM    9  C   UNL     1      43.419 -12.509   4.053  1.00  0.00     0.066 C 
HETATM   10  H   UNL     1      40.398 -13.901   4.862  1.00  0.00     0.161 HD
ENDROOT
BRANCH   6  11
HETATM   11  C   UNL     1      39.859  -9.244   7.471  1.00  0.00     0.272 C 
HETATM   12  N   UNL     1      40.504  -8.811   8.607  1.00  0.00    -0.353 N 
HETATM   13  H   UNL     1      41.300  -9.376   8.898  1.00  0.00     0.162 HD
HETATM   14  O   UNL     1      38.771  -8.814   7.102  1.00  0.00    -0.266 OA
BRANCH  12  15
HETATM   15  C   UNL     1      39.840  -7.984   9.593  1.00  0.00     0.155 C 
BRANCH  15  16
HETATM   16  C   UNL     1      40.531  -8.076  10.959  1.00  0.00     0.139 C 
HETATM   17  O   UNL     1      40.303  -6.845  11.680  1.00  0.00    -0.384 OA
HETATM   18  C   UNL     1      41.543  -6.133  11.787  1.00  0.00     0.168 C 
HETATM   19  C   UNL     1      42.514  -6.793  10.833  1.00  0.00     0.029 C 
HETATM   20  C   UNL     1      42.040  -8.224  10.842  1.00  0.00     0.035 C 
ENDBRANCH  15  16
ENDBRANCH  12  15
ENDBRANCH   6  11
BRANCH   8  21
HETATM   21  C   UNL     1      44.237 -12.448   6.453  1.00  0.00     0.409 C 
HETATM   22  F   UNL     1      45.545 -12.110   6.509  1.00  0.00    -0.169 F 
HETATM   23  F   UNL     1      43.718 -12.275   7.685  1.00  0.00    -0.169 F 
HETATM   24  F   UNL     1      44.201 -13.784   6.201  1.00  0.00    -0.169 F 
ENDBRANCH   8  21
BRANCH   1  25
HETATM   25  C   UNL     1      42.511 -14.841   3.565  1.00  0.00    -0.035 A 
HETATM   26  C   UNL     1      42.937 -15.190   2.272  1.00  0.00     0.010 A 
HETATM   27  C   UNL     1      43.263 -16.513   1.959  1.00  0.00     0.019 A 
HETATM   28  C   UNL     1      43.172 -17.498   2.940  1.00  0.00     0.011 A 
HETATM   29  C   UNL     1      42.760 -17.172   4.229  1.00  0.00     0.019 A 
HETATM   30 BR   UNL     1      43.606 -19.287   2.516  1.00  0.00    -0.051 Br
HETATM   31  C   UNL     1      42.430 -15.850   4.539  1.00  0.00     0.010 A 
ENDBRANCH   1  25
TORSDOF 5
ENDMDL
MODEL 10
REMARK VINA RESULT:      -7.6      6.765      9.605
REMARK  5 active torsions:
REMARK  status: ('A' for Active; 'I' for Inactive)
REMARK    1  A    between atoms: C_2  and  C_3 
REMARK    2  A    between atoms: C_8  and  C_9 
REMARK       I    between atoms: C_9  and  N_10 
REMARK    3  A    between atoms: N_10  and  C_11 
REMARK    4  A    between atoms: C_11  and  C_12 
REMARK    5  A    between atoms: C_19  and  C_20 
ROOT
HETATM    1  C   UNL     1      38.862 -11.170   0.335  1.00  0.00     0.118 C 
HETATM    2  N   UNL     1      38.619 -12.174   1.375  1.00  0.00    -0.366 N 
HETATM    3  C   UNL     1      39.624 -13.015   1.698  1.00  0.00     0.123 A 
HETATM    4  N   UNL     1      40.471 -13.459   0.729  1.00  0.00    -0.240 N 
HETATM    5  N   UNL     1      41.470 -14.234   1.179  1.00  0.00    -0.165 NA
HETATM    6  C   UNL     1      41.188 -14.366   2.497  1.00  0.00     0.148 A 
HETATM    7  C   UNL     1      40.025 -13.624   2.854  1.00  0.00     0.088 A 
HETATM    8  C   UNL     1      40.318 -13.100  -0.663  1.00  0.00     0.221 C 
HETATM    9  C   UNL     1      39.792 -11.660  -0.801  1.00  0.00     0.066 C 
HETATM   10  H   UNL     1      38.033 -11.818   2.132  1.00  0.00     0.161 HD
ENDROOT
BRANCH   6  11
HETATM   11  C   UNL     1      42.009 -15.189   3.399  1.00  0.00     0.272 C 
HETATM   12  N   UNL     1      42.119 -16.502   3.001  1.00  0.00    -0.353 N 
HETATM   13  H   UNL     1      41.493 -16.782   2.248  1.00  0.00     0.162 HD
HETATM   14  O   UNL     1      42.529 -14.742   4.417  1.00  0.00    -0.266 OA
BRANCH  12  15
HETATM   15  C   UNL     1      42.656 -17.522   3.876  1.00  0.00     0.155 C 
BRANCH  15  16
HETATM   16  C   UNL     1      43.866 -18.223   3.246  1.00  0.00     0.139 C 
HETATM   17  O   UNL     1      43.408 -19.052   2.155  1.00  0.00    -0.384 OA
HETATM   18  C   UNL     1      43.573 -20.430   2.518  1.00  0.00     0.168 C 
HETATM   19  C   UNL     1      43.854 -20.464   4.004  1.00  0.00     0.029 C 
HETATM   20  C   UNL     1      44.573 -19.156   4.218  1.00  0.00     0.035 C 
ENDBRANCH  15  16
ENDBRANCH  12  15
ENDBRANCH   6  11
BRANCH   8  21
HETATM   21  C   UNL     1      39.430 -14.108  -1.360  1.00  0.00     0.409 C 
HETATM   22  F   UNL     1      39.361 -15.281  -0.691  1.00  0.00    -0.169 F 
HETATM   23  F   UNL     1      38.168 -13.679  -1.562  1.00  0.00    -0.169 F 
HETATM   24  F   UNL     1      39.942 -14.399  -2.586  1.00  0.00    -0.169 F 
ENDBRANCH   8  21
BRANCH   1  25
HETATM   25  C   UNL     1      37.542 -10.629  -0.187  1.00  0.00    -0.035 A 
HETATM   26  C   UNL     1      36.554 -10.208   0.720  1.00  0.00     0.010 A 
HETATM   27  C   UNL     1      35.332  -9.707   0.263  1.00  0.00     0.019 A 
HETATM   28  C   UNL     1      35.090  -9.615  -1.105  1.00  0.00     0.011 A 
HETATM   29  C   UNL     1      36.058 -10.019  -2.020  1.00  0.00     0.019 A 
HETATM   30 BR   UNL     1      33.435  -8.943  -1.723  1.00  0.00    -0.051 Br
HETATM   31  C   UNL     1      37.278 -10.524  -1.562  1.00  0.00     0.010 A 
ENDBRANCH   1  25
TORSDOF 5
ENDMDL
