MODEL 1
REMARK VINA RESULT:      -7.6      0.000      0.000
REMARK  6 active torsions:
REMARK  status: ('A' for Active; 'I' for Inactive)
REMARK    1  A    between atoms: C_2  and  O_3 
REMARK    2  A    between atoms: O_3  and  C_4 
REMARK    3  A    between atoms: C_4  and  C_5 
REMARK    4  A    between atoms: C_6  and  O_7 
REMARK    5  A    between atoms: C_12  and  O_13 
REMARK    6  A    between atoms: C_17  and  C_18 
ROOT
HETATM    1  C   UNL     1      43.222 -12.809   3.692  1.00  0.00     0.133 C 
HETATM    2  C   UNL     1      42.062 -11.928   3.121  1.00  0.00     0.073 C 
HETATM    3  C   UNL     1      41.370 -12.623   1.934  1.00  0.00     0.047 C 
HETATM    4  C   UNL     1      41.002 -11.541   4.189  1.00  0.00     0.097 C 
HETATM    5  C   UNL     1      40.670 -12.723   5.015  1.00  0.00     0.042 A 
HETATM    6  C   UNL     1      41.468 -13.826   5.237  1.00  0.00     0.030 A 
HETATM    7  C   UNL     1      40.692 -14.605   6.112  1.00  0.00     0.190 A 
HETATM    8  N   UNL     1      39.510 -14.073   6.397  1.00  0.00    -0.149 NA
HETATM    9  N   UNL     1      39.518 -12.912   5.720  1.00  0.00    -0.279 N 
HETATM   10  H   UNL     1      38.709 -12.303   5.796  1.00  0.00     0.189 HD
HETATM   11  C   UNL     1      42.841 -13.963   4.672  1.00  0.00     0.074 C 
ENDROOT
BRANCH  11  12
HETATM   12  C   UNL     1      42.991 -15.349   4.056  1.00  0.00    -0.048 A 
HETATM   13  C   UNL     1      42.489 -15.709   2.796  1.00  0.00     0.009 A 
HETATM   14  C   UNL     1      42.675 -17.001   2.290  1.00  0.00     0.024 A 
HETATM   15  C   UNL     1      43.373 -17.945   3.036  1.00  0.00     0.034 A 
HETATM   16 CL   UNL     1      43.597 -19.534   2.416  1.00  0.00    -0.084 Cl
HETATM   17  C   UNL     1      43.889 -17.611   4.283  1.00  0.00     0.024 A 
HETATM   18  C   UNL     1      43.704 -16.321   4.786  1.00  0.00     0.009 A 
ENDBRANCH  11  12
BRANCH   1  19
HETATM   19  C   UNL     1      44.271 -11.931   4.348  1.00  0.00     0.267 C 
HETATM   20  O   UNL     1      45.080 -11.277   3.699  1.00  0.00    -0.265 OA
BRANCH  19  21
HETATM   21  O   UNL     1      44.198 -11.958   5.703  1.00  0.00    -0.321 OA
BRANCH  21  22
HETATM   22  C   UNL     1      45.393 -11.586   6.407  1.00  0.00     0.174 C 
HETATM   23  C   UNL     1      45.029 -10.991   7.753  1.00  0.00     0.034 C 
ENDBRANCH  21  22
ENDBRANCH  19  21
ENDBRANCH   1  19
BRANCH   2  24
HETATM   24  O   UNL     1      42.584 -10.701   2.580  1.00  0.00    -0.389 OA
HETATM   25  H   UNL     1      41.867 -10.228   2.119  1.00  0.00     0.210 HD
ENDBRANCH   2  24
BRANCH   7  26
HETATM   26  O   UNL     1      40.962 -15.785   6.674  1.00  0.00    -0.343 OA
HETATM   27  H   UNL     1      41.362 -16.376   6.018  1.00  0.00     0.219 HD
ENDBRANCH   7  26
TORSDOF 6
ENDMDL
MODEL 2
REMARK VINA RESULT:      -7.6      3.191      5.977
REMARK  6 active torsions:
REMARK  status: ('A' for Active; 'I' for Inactive)
REMARK    1  A    between atoms: C_2  and  O_3 
REMARK    2  A    between atoms: O_3  and  C_4 
REMARK    3  A    between atoms: C_4  and  C_5 
REMARK    4  A    between atoms: C_6  and  O_7 
REMARK    5  A    between atoms: C_12  and  O_13 
REMARK    6  A    between atoms: C_17  and  C_18 
ROOT
HETATM    1  C   UNL     1      41.885 -13.891   6.398  1.00  0.00     0.133 C 
HETATM    2  C   UNL     1      40.439 -13.694   5.832  1.00  0.00     0.073 C 
HETATM    3  C   UNL     1      39.832 -12.364   6.315  1.00  0.00     0.047 C 
HETATM    4  C   UNL     1      40.371 -13.766   4.283  1.00  0.00     0.097 C 
HETATM    5  C   UNL     1      41.486 -12.991   3.696  1.00  0.00     0.042 A 
HETATM    6  C   UNL     1      42.692 -12.694   4.296  1.00  0.00     0.030 A 
HETATM    7  C   UNL     1      43.378 -11.988   3.294  1.00  0.00     0.190 A 
HETATM    8  N   UNL     1      42.676 -11.822   2.180  1.00  0.00    -0.149 NA
HETATM    9  N   UNL     1      41.518 -12.453   2.443  1.00  0.00    -0.279 N 
HETATM   10  H   UNL     1      40.808 -12.479   1.718  1.00  0.00     0.189 HD
HETATM   11  C   UNL     1      43.056 -13.164   5.664  1.00  0.00     0.074 C 
ENDROOT
BRANCH  11  12
HETATM   12  C   UNL     1      43.627 -11.995   6.457  1.00  0.00    -0.048 A 
HETATM   13  C   UNL     1      42.875 -10.889   6.883  1.00  0.00     0.009 A 
HETATM   14  C   UNL     1      43.468  -9.857   7.618  1.00  0.00     0.024 A 
HETATM   15  C   UNL     1      44.819  -9.921   7.943  1.00  0.00     0.034 A 
HETATM   16 CL   UNL     1      45.548  -8.649   8.842  1.00  0.00    -0.084 Cl
HETATM   17  C   UNL     1      45.585 -11.010   7.542  1.00  0.00     0.024 A 
HETATM   18  C   UNL     1      44.991 -12.041   6.809  1.00  0.00     0.009 A 
ENDBRANCH  11  12
BRANCH   1  19
HETATM   19  C   UNL     1      42.209 -15.370   6.498  1.00  0.00     0.267 C 
HETATM   20  O   UNL     1      41.690 -16.101   7.334  1.00  0.00    -0.265 OA
BRANCH  19  21
HETATM   21  O   UNL     1      43.117 -15.768   5.571  1.00  0.00    -0.321 OA
BRANCH  21  22
HETATM   22  C   UNL     1      42.648 -16.709   4.592  1.00  0.00     0.174 C 
HETATM   23  C   UNL     1      43.160 -16.317   3.220  1.00  0.00     0.034 C 
ENDBRANCH  21  22
ENDBRANCH  19  21
ENDBRANCH   1  19
BRANCH   2  24
HETATM   24  O   UNL     1      39.559 -14.711   6.342  1.00  0.00    -0.389 OA
HETATM   25  H   UNL     1      38.732 -14.291   6.646  1.00  0.00     0.210 HD
ENDBRANCH   2  24
BRANCH   7  26
HETATM   26  O   UNL     1      44.603 -11.458   3.307  1.00  0.00    -0.343 OA
HETATM   27  H   UNL     1      44.578 -10.587   3.730  1.00  0.00     0.219 HD
ENDBRANCH   7  26
TORSDOF 6
ENDMDL
MODEL 3
REMARK VINA RESULT:      -7.0      3.274      5.127
REMARK  6 active torsions:
REMARK  status: ('A' for Active; 'I' for Inactive)
REMARK    1  A    between atoms: C_2  and  O_3 
REMARK    2  A    between atoms: O_3  and  C_4 
REMARK    3  A    between atoms: C_4  and  C_5 
REMARK    4  A    between atoms: C_6  and  O_7 
REMARK    5  A    between atoms: C_12  and  O_13 
REMARK    6  A    between atoms: C_17  and  C_18 
ROOT
HETATM    1  C   UNL     1      42.456 -14.716   5.719  1.00  0.00     0.133 C 
HETATM    2  C   UNL     1      41.946 -16.107   6.223  1.00  0.00     0.073 C 
HETATM    3  C   UNL     1      40.446 -16.287   5.930  1.00  0.00     0.047 C 
HETATM    4  C   UNL     1      42.740 -17.303   5.631  1.00  0.00     0.097 C 
HETATM    5  C   UNL     1      42.952 -17.096   4.181  1.00  0.00     0.042 A 
HETATM    6  C   UNL     1      42.970 -15.888   3.514  1.00  0.00     0.030 A 
HETATM    7  C   UNL     1      43.247 -16.264   2.189  1.00  0.00     0.190 A 
HETATM    8  N   UNL     1      43.365 -17.575   2.018  1.00  0.00    -0.149 NA
HETATM    9  N   UNL     1      43.188 -18.069   3.256  1.00  0.00    -0.279 N 
HETATM   10  H   UNL     1      43.252 -19.074   3.388  1.00  0.00     0.189 HD
HETATM   11  C   UNL     1      42.802 -14.576   4.203  1.00  0.00     0.074 C 
ENDROOT
BRANCH  11  12
HETATM   12  C   UNL     1      41.791 -13.735   3.432  1.00  0.00    -0.048 A 
HETATM   13  C   UNL     1      42.097 -12.519   2.799  1.00  0.00     0.009 A 
HETATM   14  C   UNL     1      41.117 -11.807   2.100  1.00  0.00     0.024 A 
HETATM   15  C   UNL     1      39.820 -12.304   2.020  1.00  0.00     0.034 A 
HETATM   16 CL   UNL     1      38.615 -11.424   1.164  1.00  0.00    -0.084 Cl
HETATM   17  C   UNL     1      39.493 -13.509   2.629  1.00  0.00     0.024 A 
HETATM   18  C   UNL     1      40.473 -14.221   3.326  1.00  0.00     0.009 A 
ENDBRANCH  11  12
BRANCH   1  19
HETATM   19  C   UNL     1      43.651 -14.270   6.540  1.00  0.00     0.267 C 
HETATM   20  O   UNL     1      44.633 -14.983   6.714  1.00  0.00    -0.265 OA
BRANCH  19  21
HETATM   21  O   UNL     1      43.500 -13.016   7.039  1.00  0.00    -0.321 OA
BRANCH  21  22
HETATM   22  C   UNL     1      44.609 -12.124   6.851  1.00  0.00     0.174 C 
HETATM   23  C   UNL     1      44.504 -11.454   5.495  1.00  0.00     0.034 C 
ENDBRANCH  21  22
ENDBRANCH  19  21
ENDBRANCH   1  19
BRANCH   2  24
HETATM   24  O   UNL     1      42.058 -16.193   7.655  1.00  0.00    -0.389 OA
HETATM   25  H   UNL     1      41.176 -16.374   8.031  1.00  0.00     0.210 HD
ENDBRANCH   2  24
BRANCH   7  26
HETATM   26  O   UNL     1      43.392 -15.509   1.098  1.00  0.00    -0.343 OA
HETATM   27  H   UNL     1      43.283 -14.575   1.330  1.00  0.00     0.219 HD
ENDBRANCH   7  26
TORSDOF 6
ENDMDL
MODEL 4
REMARK VINA RESULT:      -6.9      3.107      5.470
REMARK  6 active torsions:
REMARK  status: ('A' for Active; 'I' for Inactive)
REMARK    1  A    between atoms: C_2  and  O_3 
REMARK    2  A    between atoms: O_3  and  C_4 
REMARK    3  A    between atoms: C_4  and  C_5 
REMARK    4  A    between atoms: C_6  and  O_7 
REMARK    5  A    between atoms: C_12  and  O_13 
REMARK    6  A    between atoms: C_17  and  C_18 
ROOT
HETATM    1  C   UNL     1      43.136 -15.120   3.696  1.00  0.00     0.133 C 
HETATM    2  C   UNL     1      43.073 -16.603   4.192  1.00  0.00     0.073 C 
HETATM    3  C   UNL     1      44.036 -16.834   5.371  1.00  0.00     0.047 C 
HETATM    4  C   UNL     1      41.643 -17.057   4.590  1.00  0.00     0.097 C 
HETATM    5  C   UNL     1      40.987 -16.001   5.393  1.00  0.00     0.042 A 
HETATM    6  C   UNL     1      41.278 -14.652   5.378  1.00  0.00     0.030 A 
HETATM    7  C   UNL     1      40.343 -14.119   6.280  1.00  0.00     0.190 A 
HETATM    8  N   UNL     1      39.556 -15.030   6.837  1.00  0.00    -0.149 NA
HETATM    9  N   UNL     1      39.961 -16.181   6.273  1.00  0.00    -0.279 N 
HETATM   10  H   UNL     1      39.486 -17.039   6.533  1.00  0.00     0.189 HD
HETATM   11  C   UNL     1      42.316 -14.055   4.490  1.00  0.00     0.074 C 
ENDROOT
BRANCH  11  12
HETATM   12  C   UNL     1      43.191 -13.113   5.309  1.00  0.00    -0.048 A 
HETATM   13  C   UNL     1      43.563 -13.344   6.643  1.00  0.00     0.009 A 
HETATM   14  C   UNL     1      44.380 -12.438   7.329  1.00  0.00     0.024 A 
HETATM   15  C   UNL     1      44.840 -11.293   6.686  1.00  0.00     0.034 A 
HETATM   16 CL   UNL     1      45.839 -10.177   7.531  1.00  0.00    -0.084 Cl
HETATM   17  C   UNL     1      44.494 -11.045   5.363  1.00  0.00     0.024 A 
HETATM   18  C   UNL     1      43.680 -11.952   4.679  1.00  0.00     0.009 A 
ENDBRANCH  11  12
BRANCH   1  19
HETATM   19  C   UNL     1      42.753 -15.044   2.229  1.00  0.00     0.267 C 
HETATM   20  O   UNL     1      43.520 -15.373   1.332  1.00  0.00    -0.265 OA
BRANCH  19  21
HETATM   21  O   UNL     1      41.490 -14.581   2.045  1.00  0.00    -0.321 OA
BRANCH  21  22
HETATM   22  C   UNL     1      41.229 -13.940   0.787  1.00  0.00     0.174 C 
HETATM   23  C   UNL     1      40.116 -14.669   0.062  1.00  0.00     0.034 C 
ENDBRANCH  21  22
ENDBRANCH  19  21
ENDBRANCH   1  19
BRANCH   2  24
HETATM   24  O   UNL     1      43.529 -17.496   3.160  1.00  0.00    -0.389 OA
HETATM   25  H   UNL     1      42.766 -17.997   2.816  1.00  0.00     0.210 HD
ENDBRANCH   2  24
BRANCH   7  26
HETATM   26  O   UNL     1      40.147 -12.854   6.660  1.00  0.00    -0.343 OA
HETATM   27  H   UNL     1      39.196 -12.670   6.706  1.00  0.00     0.219 HD
ENDBRANCH   7  26
TORSDOF 6
ENDMDL
MODEL 5
REMARK VINA RESULT:      -6.7      3.802      6.085
REMARK  6 active torsions:
REMARK  status: ('A' for Active; 'I' for Inactive)
REMARK    1  A    between atoms: C_2  and  O_3 
REMARK    2  A    between atoms: O_3  and  C_4 
REMARK    3  A    between atoms: C_4  and  C_5 
REMARK    4  A    between atoms: C_6  and  O_7 
REMARK    5  A    between atoms: C_12  and  O_13 
REMARK    6  A    between atoms: C_17  and  C_18 
ROOT
HETATM    1  C   UNL     1      41.059 -14.460   1.947  1.00  0.00     0.133 C 
HETATM    2  C   UNL     1      42.467 -15.136   2.044  1.00  0.00     0.073 C 
HETATM    3  C   UNL     1      43.550 -14.108   2.420  1.00  0.00     0.047 C 
HETATM    4  C   UNL     1      42.509 -16.326   3.041  1.00  0.00     0.097 C 
HETATM    5  C   UNL     1      41.797 -15.962   4.286  1.00  0.00     0.042 A 
HETATM    6  C   UNL     1      40.805 -15.013   4.423  1.00  0.00     0.030 A 
HETATM    7  C   UNL     1      40.462 -15.109   5.781  1.00  0.00     0.190 A 
HETATM    8  N   UNL     1      41.177 -16.002   6.452  1.00  0.00    -0.149 NA
HETATM    9  N   UNL     1      41.988 -16.523   5.514  1.00  0.00    -0.279 N 
HETATM   10  H   UNL     1      42.633 -17.257   5.788  1.00  0.00     0.189 HD
HETATM   11  C   UNL     1      40.277 -14.218   3.276  1.00  0.00     0.074 C 
ENDROOT
BRANCH  11  12
HETATM   12  C   UNL     1      40.213 -12.749   3.676  1.00  0.00    -0.048 A 
HETATM   13  C   UNL     1      41.243 -12.068   4.346  1.00  0.00     0.009 A 
HETATM   14  C   UNL     1      41.116 -10.713   4.671  1.00  0.00     0.024 A 
HETATM   15  C   UNL     1      39.961 -10.020   4.324  1.00  0.00     0.034 A 
HETATM   16 CL   UNL     1      39.804  -8.355   4.728  1.00  0.00    -0.084 Cl
HETATM   17  C   UNL     1      38.931 -10.667   3.651  1.00  0.00     0.024 A 
HETATM   18  C   UNL     1      39.059 -12.020   3.326  1.00  0.00     0.009 A 
ENDBRANCH  11  12
BRANCH   1  19
HETATM   19  C   UNL     1      40.174 -15.234   0.988  1.00  0.00     0.267 C 
HETATM   20  O   UNL     1      39.662 -16.307   1.287  1.00  0.00    -0.265 OA
BRANCH  19  21
HETATM   21  O   UNL     1      40.023 -14.604  -0.205  1.00  0.00    -0.321 OA
BRANCH  21  22
HETATM   22  C   UNL     1      40.300 -13.195  -0.214  1.00  0.00     0.174 C 
HETATM   23  C   UNL     1      39.012 -12.422  -0.411  1.00  0.00     0.034 C 
ENDBRANCH  21  22
ENDBRANCH  19  21
ENDBRANCH   1  19
BRANCH   2  24
HETATM   24  O   UNL     1      42.868 -15.646   0.760  1.00  0.00    -0.389 OA
HETATM   25  H   UNL     1      43.842 -15.686   0.726  1.00  0.00     0.210 HD
ENDBRANCH   2  24
BRANCH   7  26
HETATM   26  O   UNL     1      39.548 -14.434   6.483  1.00  0.00    -0.343 OA
HETATM   27  H   UNL     1      38.693 -14.473   6.028  1.00  0.00     0.219 HD
ENDBRANCH   7  26
TORSDOF 6
ENDMDL
MODEL 6
REMARK VINA RESULT:      -6.6      8.090     10.345
REMARK  6 active torsions:
REMARK  status: ('A' for Active; 'I' for Inactive)
REMARK    1  A    between atoms: C_2  and  O_3 
REMARK    2  A    between atoms: O_3  and  C_4 
REMARK    3  A    between atoms: C_4  and  C_5 
REMARK    4  A    between atoms: C_6  and  O_7 
REMARK    5  A    between atoms: C_12  and  O_13 
REMARK    6  A    between atoms: C_17  and  C_18 
ROOT
HETATM    1  C   UNL     1      40.767  -7.979  10.367  1.00  0.00     0.133 C 
HETATM    2  C   UNL     1      41.661  -7.459   9.194  1.00  0.00     0.073 C 
HETATM    3  C   UNL     1      42.635  -6.370   9.681  1.00  0.00     0.047 C 
HETATM    4  C   UNL     1      42.455  -8.586   8.480  1.00  0.00     0.097 C 
HETATM    5  C   UNL     1      43.044  -9.498   9.485  1.00  0.00     0.042 A 
HETATM    6  C   UNL     1      42.592  -9.713  10.770  1.00  0.00     0.030 A 
HETATM    7  C   UNL     1      43.478 -10.687  11.257  1.00  0.00     0.190 A 
HETATM    8  N   UNL     1      44.418 -11.039  10.389  1.00  0.00    -0.149 NA
HETATM    9  N   UNL     1      44.129 -10.303   9.301  1.00  0.00    -0.279 N 
HETATM   10  H   UNL     1      44.712 -10.412   8.476  1.00  0.00     0.189 HD
HETATM   11  C   UNL     1      41.379  -9.048  11.327  1.00  0.00     0.074 C 
ENDROOT
BRANCH  11  12
HETATM   12  C   UNL     1      41.704  -8.495  12.710  1.00  0.00    -0.048 A 
HETATM   13  C   UNL     1      42.810  -7.678  12.993  1.00  0.00     0.009 A 
HETATM   14  C   UNL     1      43.037  -7.199  14.288  1.00  0.00     0.024 A 
HETATM   15  C   UNL     1      42.158  -7.526  15.315  1.00  0.00     0.034 A 
HETATM   16 CL   UNL     1      42.442  -6.941  16.907  1.00  0.00    -0.084 Cl
HETATM   17  C   UNL     1      41.050  -8.326  15.060  1.00  0.00     0.024 A 
HETATM   18  C   UNL     1      40.823  -8.803  13.766  1.00  0.00     0.009 A 
ENDBRANCH  11  12
BRANCH   1  19
HETATM   19  C   UNL     1      39.448  -8.501   9.826  1.00  0.00     0.267 C 
HETATM   20  O   UNL     1      39.368  -9.538   9.178  1.00  0.00    -0.265 OA
BRANCH  19  21
HETATM   21  O   UNL     1      38.401  -7.698  10.146  1.00  0.00    -0.321 OA
BRANCH  21  22
HETATM   22  C   UNL     1      38.661  -6.683  11.129  1.00  0.00     0.174 C 
HETATM   23  C   UNL     1      37.814  -6.934  12.360  1.00  0.00     0.034 C 
ENDBRANCH  21  22
ENDBRANCH  19  21
ENDBRANCH   1  19
BRANCH   2  24
HETATM   24  O   UNL     1      40.852  -6.813   8.195  1.00  0.00    -0.389 OA
HETATM   25  H   UNL     1      39.916  -7.035   8.354  1.00  0.00     0.210 HD
ENDBRANCH   2  24
BRANCH   7  26
HETATM   26  O   UNL     1      43.520 -11.288  12.449  1.00  0.00    -0.343 OA
HETATM   27  H   UNL     1      43.853 -12.192  12.349  1.00  0.00     0.219 HD
ENDBRANCH   7  26
TORSDOF 6
ENDMDL
MODEL 7
REMARK VINA RESULT:      -6.6      3.578      5.528
REMARK  6 active torsions:
REMARK  status: ('A' for Active; 'I' for Inactive)
REMARK    1  A    between atoms: C_2  and  O_3 
REMARK    2  A    between atoms: O_3  and  C_4 
REMARK    3  A    between atoms: C_4  and  C_5 
REMARK    4  A    between atoms: C_6  and  O_7 
REMARK    5  A    between atoms: C_12  and  O_13 
REMARK    6  A    between atoms: C_17  and  C_18 
ROOT
HETATM    1  C   UNL     1      41.262 -14.415   2.951  1.00  0.00     0.133 C 
HETATM    2  C   UNL     1      42.261 -15.189   2.029  1.00  0.00     0.073 C 
HETATM    3  C   UNL     1      43.630 -14.487   1.983  1.00  0.00     0.047 C 
HETATM    4  C   UNL     1      42.451 -16.675   2.441  1.00  0.00     0.097 C 
HETATM    5  C   UNL     1      42.602 -16.772   3.910  1.00  0.00     0.042 A 
HETATM    6  C   UNL     1      42.138 -15.874   4.849  1.00  0.00     0.030 A 
HETATM    7  C   UNL     1      42.513 -16.468   6.065  1.00  0.00     0.190 A 
HETATM    8  N   UNL     1      43.173 -17.610   5.922  1.00  0.00    -0.149 NA
HETATM    9  N   UNL     1      43.211 -17.785   4.590  1.00  0.00    -0.279 N 
HETATM   10  H   UNL     1      43.661 -18.619   4.225  1.00  0.00     0.189 HD
HETATM   11  C   UNL     1      41.363 -14.651   4.491  1.00  0.00     0.074 C 
ENDROOT
BRANCH  11  12
HETATM   12  C   UNL     1      41.938 -13.458   5.244  1.00  0.00    -0.048 A 
HETATM   13  C   UNL     1      43.306 -13.275   5.504  1.00  0.00     0.009 A 
HETATM   14  C   UNL     1      43.761 -12.146   6.194  1.00  0.00     0.024 A 
HETATM   15  C   UNL     1      42.855 -11.183   6.627  1.00  0.00     0.034 A 
HETATM   16 CL   UNL     1      43.416  -9.798   7.480  1.00  0.00    -0.084 Cl
HETATM   17  C   UNL     1      41.497 -11.335   6.374  1.00  0.00     0.024 A 
HETATM   18  C   UNL     1      41.043 -12.462   5.684  1.00  0.00     0.009 A 
ENDBRANCH  11  12
BRANCH   1  19
HETATM   19  C   UNL     1      39.834 -14.672   2.505  1.00  0.00     0.267 C 
HETATM   20  O   UNL     1      39.446 -15.779   2.148  1.00  0.00    -0.265 OA
BRANCH  19  21
HETATM   21  O   UNL     1      39.065 -13.555   2.555  1.00  0.00    -0.321 OA
BRANCH  21  22
HETATM   22  C   UNL     1      39.679 -12.344   2.089  1.00  0.00     0.174 C 
HETATM   23  C   UNL     1      39.076 -11.154   2.808  1.00  0.00     0.034 C 
ENDBRANCH  21  22
ENDBRANCH  19  21
ENDBRANCH   1  19
BRANCH   2  24
HETATM   24  O   UNL     1      41.795 -15.184   0.668  1.00  0.00    -0.389 OA
HETATM   25  H   UNL     1      41.274 -14.374   0.515  1.00  0.00     0.210 HD
ENDBRANCH   2  24
BRANCH   7  26
HETATM   26  O   UNL     1      42.317 -16.050   7.318  1.00  0.00    -0.343 OA
HETATM   27  H   UNL     1      42.366 -15.083   7.352  1.00  0.00     0.219 HD
ENDBRANCH   7  26
TORSDOF 6
ENDMDL
MODEL 8
REMARK VINA RESULT:      -6.5      3.011      5.301
REMARK  6 active torsions:
REMARK  status: ('A' for Active; 'I' for Inactive)
REMARK    1  A    between atoms: C_2  and  O_3 
REMARK    2  A    between atoms: O_3  and  C_4 
REMARK    3  A    between atoms: C_4  and  C_5 
REMARK    4  A    between atoms: C_6  and  O_7 
REMARK    5  A    between atoms: C_12  and  O_13 
REMARK    6  A    between atoms: C_17  and  C_18 
ROOT
HETATM    1  C   UNL     1      40.345 -13.148   0.991  1.00  0.00     0.133 C 
HETATM    2  C   UNL     1      39.248 -12.304   1.721  1.00  0.00     0.073 C 
HETATM    3  C   UNL     1      38.724 -13.038   2.969  1.00  0.00     0.047 C 
HETATM    4  C   UNL     1      39.730 -10.882   2.116  1.00  0.00     0.097 C 
HETATM    5  C   UNL     1      41.087 -10.957   2.699  1.00  0.00     0.042 A 
HETATM    6  C   UNL     1      42.028 -11.941   2.477  1.00  0.00     0.030 A 
HETATM    7  C   UNL     1      43.129 -11.501   3.230  1.00  0.00     0.190 A 
HETATM    8  N   UNL     1      42.909 -10.370   3.889  1.00  0.00    -0.149 NA
HETATM    9  N   UNL     1      41.651 -10.046   3.544  1.00  0.00    -0.279 N 
HETATM   10  H   UNL     1      41.253  -9.190   3.917  1.00  0.00     0.189 HD
HETATM   11  C   UNL     1      41.799 -13.091   1.556  1.00  0.00     0.074 C 
ENDROOT
BRANCH  11  12
HETATM   12  C   UNL     1      42.223 -14.379   2.252  1.00  0.00    -0.048 A 
HETATM   13  C   UNL     1      41.862 -14.721   3.565  1.00  0.00     0.009 A 
HETATM   14  C   UNL     1      42.281 -15.929   4.134  1.00  0.00     0.024 A 
HETATM   15  C   UNL     1      43.061 -16.813   3.395  1.00  0.00     0.034 A 
HETATM   16 CL   UNL     1      43.580 -18.295   4.097  1.00  0.00    -0.084 Cl
HETATM   17  C   UNL     1      43.424 -16.503   2.089  1.00  0.00     0.024 A 
HETATM   18  C   UNL     1      43.004 -15.297   1.522  1.00  0.00     0.009 A 
ENDBRANCH  11  12
BRANCH   1  19
HETATM   19  C   UNL     1      40.376 -12.799  -0.485  1.00  0.00     0.267 C 
HETATM   20  O   UNL     1      41.210 -12.039  -0.964  1.00  0.00    -0.265 OA
BRANCH  19  21
HETATM   21  O   UNL     1      39.393 -13.420  -1.187  1.00  0.00    -0.321 OA
BRANCH  21  22
HETATM   22  C   UNL     1      39.787 -14.017  -2.432  1.00  0.00     0.174 C 
HETATM   23  C   UNL     1      38.789 -15.088  -2.825  1.00  0.00     0.034 C 
ENDBRANCH  21  22
ENDBRANCH  19  21
ENDBRANCH   1  19
BRANCH   2  24
HETATM   24  O   UNL     1      38.096 -12.141   0.875  1.00  0.00    -0.389 OA
HETATM   25  H   UNL     1      38.355 -12.311  -0.050  1.00  0.00     0.210 HD
ENDBRANCH   2  24
BRANCH   7  26
HETATM   26  O   UNL     1      44.335 -12.052   3.386  1.00  0.00    -0.343 OA
HETATM   27  H   UNL     1      44.524 -12.641   2.640  1.00  0.00     0.219 HD
ENDBRANCH   7  26
TORSDOF 6
ENDMDL
MODEL 9
REMARK VINA RESULT:      -6.5      2.978      5.583
REMARK  6 active torsions:
REMARK  status: ('A' for Active; 'I' for Inactive)
REMARK    1  A    between atoms: C_2  and  O_3 
REMARK    2  A    between atoms: O_3  and  C_4 
REMARK    3  A    between atoms: C_4  and  C_5 
REMARK    4  A    between atoms: C_6  and  O_7 
REMARK    5  A    between atoms: C_12  and  O_13 
REMARK    6  A    between atoms: C_17  and  C_18 
ROOT
HETATM    1  C   UNL     1      42.509 -14.413   4.268  1.00  0.00     0.133 C 
HETATM    2  C   UNL     1      41.022 -14.838   4.509  1.00  0.00     0.073 C 
HETATM    3  C   UNL     1      40.633 -14.677   5.989  1.00  0.00     0.047 C 
HETATM    4  C   UNL     1      40.011 -14.069   3.616  1.00  0.00     0.097 C 
HETATM    5  C   UNL     1      40.354 -12.630   3.597  1.00  0.00     0.042 A 
HETATM    6  C   UNL     1      41.594 -12.073   3.830  1.00  0.00     0.030 A 
HETATM    7  C   UNL     1      41.364 -10.700   3.646  1.00  0.00     0.190 A 
HETATM    8  N   UNL     1      40.103 -10.403   3.356  1.00  0.00    -0.149 NA
HETATM    9  N   UNL     1      39.499 -11.603   3.322  1.00  0.00    -0.279 N 
HETATM   10  H   UNL     1      38.509 -11.639   3.097  1.00  0.00     0.189 HD
HETATM   11  C   UNL     1      42.811 -12.889   4.114  1.00  0.00     0.074 C 
ENDROOT
BRANCH  11  12
HETATM   12  C   UNL     1      43.539 -12.297   5.315  1.00  0.00    -0.048 A 
HETATM   13  C   UNL     1      43.046 -12.328   6.629  1.00  0.00     0.009 A 
HETATM   14  C   UNL     1      43.778 -11.773   7.685  1.00  0.00     0.024 A 
HETATM   15  C   UNL     1      45.014 -11.185   7.440  1.00  0.00     0.034 A 
HETATM   16 CL   UNL     1      45.911 -10.498   8.737  1.00  0.00    -0.084 Cl
HETATM   17  C   UNL     1      45.529 -11.149   6.149  1.00  0.00     0.024 A 
HETATM   18  C   UNL     1      44.799 -11.706   5.096  1.00  0.00     0.009 A 
ENDBRANCH  11  12
BRANCH   1  19
HETATM   19  C   UNL     1      43.075 -15.151   3.069  1.00  0.00     0.267 C 
HETATM   20  O   UNL     1      43.193 -14.624   1.968  1.00  0.00    -0.265 OA
BRANCH  19  21
HETATM   21  O   UNL     1      43.426 -16.429   3.364  1.00  0.00    -0.321 OA
BRANCH  21  22
HETATM   22  C   UNL     1      43.333 -17.374   2.286  1.00  0.00     0.174 C 
HETATM   23  C   UNL     1      43.686 -18.759   2.789  1.00  0.00     0.034 C 
ENDBRANCH  21  22
ENDBRANCH  19  21
ENDBRANCH   1  19
BRANCH   2  24
HETATM   24  O   UNL     1      40.851 -16.240   4.231  1.00  0.00    -0.389 OA
HETATM   25  H   UNL     1      39.904 -16.462   4.300  1.00  0.00     0.210 HD
ENDBRANCH   2  24
BRANCH   7  26
HETATM   26  O   UNL     1      42.210  -9.671   3.734  1.00  0.00    -0.343 OA
HETATM   27  H   UNL     1      43.111  -9.999   3.874  1.00  0.00     0.219 HD
ENDBRANCH   7  26
TORSDOF 6
ENDMDL
MODEL 10
REMARK VINA RESULT:      -6.4     16.622     19.195
REMARK  6 active torsions:
REMARK  status: ('A' for Active; 'I' for Inactive)
REMARK    1  A    between atoms: C_2  and  O_3 
REMARK    2  A    between atoms: O_3  and  C_4 
REMARK    3  A    between atoms: C_4  and  C_5 
REMARK    4  A    between atoms: C_6  and  O_7 
REMARK    5  A    between atoms: C_12  and  O_13 
REMARK    6  A    between atoms: C_17  and  C_18 
ROOT
HETATM    1  C   UNL     1      49.334 -30.771   1.521  1.00  0.00     0.133 C 
HETATM    2  C   UNL     1      49.621 -32.283   1.803  1.00  0.00     0.073 C 
HETATM    3  C   UNL     1      48.616 -33.184   1.064  1.00  0.00     0.047 C 
HETATM    4  C   UNL     1      51.069 -32.711   1.441  1.00  0.00     0.097 C 
HETATM    5  C   UNL     1      51.449 -32.138   0.131  1.00  0.00     0.042 A 
HETATM    6  C   UNL     1      50.920 -31.009  -0.461  1.00  0.00     0.030 A 
HETATM    7  C   UNL     1      51.659 -30.902  -1.651  1.00  0.00     0.190 A 
HETATM    8  N   UNL     1      52.546 -31.874  -1.819  1.00  0.00    -0.149 NA
HETATM    9  N   UNL     1      52.408 -32.620  -0.710  1.00  0.00    -0.279 N 
HETATM   10  H   UNL     1      53.007 -33.432  -0.596  1.00  0.00     0.189 HD
HETATM   11  C   UNL     1      49.873 -30.167   0.186  1.00  0.00     0.074 C 
ENDROOT
BRANCH  11  12
HETATM   12  C   UNL     1      48.773 -29.874  -0.827  1.00  0.00    -0.048 A 
HETATM   13  C   UNL     1      48.206 -30.838  -1.677  1.00  0.00     0.009 A 
HETATM   14  C   UNL     1      47.190 -30.495  -2.575  1.00  0.00     0.024 A 
HETATM   15  C   UNL     1      46.723 -29.186  -2.631  1.00  0.00     0.034 A 
HETATM   16 CL   UNL     1      45.477 -28.765  -3.739  1.00  0.00    -0.084 Cl
HETATM   17  C   UNL     1      47.260 -28.214  -1.794  1.00  0.00     0.024 A 
HETATM   18  C   UNL     1      48.274 -28.558  -0.896  1.00  0.00     0.009 A 
ENDBRANCH  11  12
BRANCH   1  19
HETATM   19  C   UNL     1      49.825 -29.922   2.679  1.00  0.00     0.267 C 
HETATM   20  O   UNL     1      50.975 -29.984   3.099  1.00  0.00    -0.265 OA
BRANCH  19  21
HETATM   21  O   UNL     1      48.858 -29.107   3.173  1.00  0.00    -0.321 OA
BRANCH  21  22
HETATM   22  C   UNL     1      47.510 -29.592   3.069  1.00  0.00     0.174 C 
HETATM   23  C   UNL     1      46.658 -28.582   2.327  1.00  0.00     0.034 C 
ENDBRANCH  21  22
ENDBRANCH  19  21
ENDBRANCH   1  19
BRANCH   2  24
HETATM   24  O   UNL     1      49.429 -32.578   3.198  1.00  0.00    -0.389 OA
HETATM   25  H   UNL     1      49.745 -33.483   3.376  1.00  0.00     0.210 HD
ENDBRANCH   2  24
BRANCH   7  26
HETATM   26  O   UNL     1      51.588 -29.989  -2.623  1.00  0.00    -0.343 OA
HETATM   27  H   UNL     1      51.816 -30.397  -3.472  1.00  0.00     0.219 HD
ENDBRANCH   7  26
TORSDOF 6
ENDMDL
