MODEL 1
REMARK VINA RESULT:      -7.6      0.000      0.000
REMARK  9 active torsions:
REMARK  status: ('A' for Active; 'I' for Inactive)
REMARK    1  A    between atoms: C_2  and  C_3 
REMARK    2  A    between atoms: C_6  and  N_7 
REMARK    3  A    between atoms: C_8  and  C_10 
REMARK    4  A    between atoms: C_8  and  O_9 
REMARK       I    between atoms: C_10  and  N_11 
REMARK    5  A    between atoms: N_11  and  C_12 
REMARK    6  A    between atoms: C_12  and  C_13 
REMARK    7  A    between atoms: C_13  and  N_14 
REMARK    8  A    between atoms: N_14  and  C_16 
REMARK    9  A    between atoms: N_14  and  C_18 
ROOT
HETATM    1  N   UNL     1      40.657 -13.778   1.503  1.00  0.00    -0.254 N 
HETATM    2  C   UNL     1      40.746 -12.503   2.247  1.00  0.00     0.256 C 
HETATM    3  C   UNL     1      39.639 -11.509   1.968  1.00  0.00     0.034 A 
HETATM    4  C   UNL     1      38.733 -11.771   0.954  1.00  0.00     0.048 A 
HETATM    5  N   UNL     1      38.877 -12.930   0.214  1.00  0.00    -0.308 N 
HETATM    6  C   UNL     1      39.797 -13.908   0.419  1.00  0.00     0.330 C 
HETATM    7  O   UNL     1      39.784 -14.852  -0.369  1.00  0.00    -0.246 OA
HETATM    8  C   UNL     1      39.522 -10.292   2.667  1.00  0.00     0.015 A 
HETATM    9  C   UNL     1      38.487  -9.399   2.380  1.00  0.00     0.001 A 
HETATM   10  C   UNL     1      37.573  -9.696   1.374  1.00  0.00     0.002 A 
HETATM   11  C   UNL     1      37.701 -10.880   0.650  1.00  0.00     0.030 A 
HETATM   12  H   UNL     1      38.268 -13.096  -0.579  1.00  0.00     0.170 HD
ENDROOT
BRANCH   2  13
HETATM   13  C   UNL     1      40.704 -12.800   3.833  1.00  0.00     0.279 C 
HETATM   14  N   UNL     1      41.896 -12.644   4.516  1.00  0.00    -0.355 N 
HETATM   15  H   UNL     1      42.695 -12.358   3.953  1.00  0.00     0.162 HD
HETATM   16  O   UNL     1      39.700 -13.221   4.415  1.00  0.00    -0.268 OA
BRANCH  14  17
HETATM   17  C   UNL     1      42.130 -12.805   5.946  1.00  0.00     0.150 C 
BRANCH  17  18
HETATM   18  C   UNL     1      43.165 -13.858   6.407  1.00  0.00     0.254 C 
BRANCH  18  19
HETATM   19  N   UNL     1      42.781 -15.291   6.071  1.00  0.00    -0.070 N 
HETATM   20  H   UNL     1      42.314 -15.202   5.142  1.00  0.00     0.279 HD
BRANCH  19  21
HETATM   21  C   UNL     1      43.922 -16.247   5.809  1.00  0.00     0.230 C 
HETATM   22  C   UNL     1      43.603 -17.658   6.267  1.00  0.00     0.034 C 
ENDBRANCH  19  21
BRANCH  19  23
HETATM   23  C   UNL     1      41.735 -15.873   6.997  1.00  0.00     0.230 C 
HETATM   24  C   UNL     1      40.386 -15.976   6.308  1.00  0.00     0.034 C 
ENDBRANCH  19  23
ENDBRANCH  18  19
ENDBRANCH  17  18
ENDBRANCH  14  17
ENDBRANCH   2  13
BRANCH   2  25
HETATM   25  O   UNL     1      41.939 -11.857   1.833  1.00  0.00    -0.359 OA
HETATM   26  H   UNL     1      41.640 -11.109   1.289  1.00  0.00     0.213 HD
ENDBRANCH   2  25
BRANCH   1  27
HETATM   27  C   UNL     1      41.491 -14.899   1.911  1.00  0.00     0.043 A 
HETATM   28  C   UNL     1      40.966 -16.020   2.579  1.00  0.00     0.030 A 
HETATM   29  C   UNL     1      41.749 -17.155   2.830  1.00  0.00     0.009 A 
HETATM   30  C   UNL     1      43.082 -17.204   2.420  1.00  0.00    -0.058 A 
HETATM   31  C   UNL     1      43.625 -16.092   1.777  1.00  0.00     0.009 A 
HETATM   32  C   UNL     1      42.843 -14.957   1.533  1.00  0.00     0.030 A 
BRANCH  30  33
HETATM   33  C   UNL     1      43.913 -18.444   2.636  1.00  0.00     0.034 C 
HETATM   34  C   UNL     1      43.192 -19.688   2.136  1.00  0.00     0.010 C 
ENDBRANCH  30  33
ENDBRANCH   1  27
TORSDOF 9
ENDMDL
MODEL 2
REMARK VINA RESULT:      -7.5      1.984      7.616
REMARK  9 active torsions:
REMARK  status: ('A' for Active; 'I' for Inactive)
REMARK    1  A    between atoms: C_2  and  C_3 
REMARK    2  A    between atoms: C_6  and  N_7 
REMARK    3  A    between atoms: C_8  and  C_10 
REMARK    4  A    between atoms: C_8  and  O_9 
REMARK       I    between atoms: C_10  and  N_11 
REMARK    5  A    between atoms: N_11  and  C_12 
REMARK    6  A    between atoms: C_12  and  C_13 
REMARK    7  A    between atoms: C_13  and  N_14 
REMARK    8  A    between atoms: N_14  and  C_16 
REMARK    9  A    between atoms: N_14  and  C_18 
ROOT
HETATM    1  N   UNL     1      42.538 -14.395   4.049  1.00  0.00    -0.254 N 
HETATM    2  C   UNL     1      42.655 -15.325   2.907  1.00  0.00     0.256 C 
HETATM    3  C   UNL     1      43.149 -16.715   3.248  1.00  0.00     0.034 A 
HETATM    4  C   UNL     1      43.600 -16.977   4.530  1.00  0.00     0.048 A 
HETATM    5  N   UNL     1      43.600 -15.954   5.460  1.00  0.00    -0.308 N 
HETATM    6  C   UNL     1      43.128 -14.694   5.271  1.00  0.00     0.330 C 
HETATM    7  O   UNL     1      43.245 -13.914   6.215  1.00  0.00    -0.246 OA
HETATM    8  C   UNL     1      43.220 -17.748   2.293  1.00  0.00     0.015 A 
HETATM    9  C   UNL     1      43.684 -19.017   2.645  1.00  0.00     0.001 A 
HETATM   10  C   UNL     1      44.108 -19.264   3.947  1.00  0.00     0.002 A 
HETATM   11  C   UNL     1      44.078 -18.240   4.891  1.00  0.00     0.030 A 
HETATM   12  H   UNL     1      43.999 -16.112   6.379  1.00  0.00     0.170 HD
ENDROOT
BRANCH   2  13
HETATM   13  C   UNL     1      41.208 -15.512   2.214  1.00  0.00     0.279 C 
HETATM   14  N   UNL     1      41.059 -14.965   0.953  1.00  0.00    -0.355 N 
HETATM   15  H   UNL     1      41.877 -14.488   0.577  1.00  0.00     0.162 HD
HETATM   16  O   UNL     1      40.249 -16.039   2.785  1.00  0.00    -0.268 OA
BRANCH  14  17
HETATM   17  C   UNL     1      39.884 -15.021   0.091  1.00  0.00     0.150 C 
BRANCH  17  18
HETATM   18  C   UNL     1      39.778 -14.011  -1.074  1.00  0.00     0.254 C 
BRANCH  18  19
HETATM   19  N   UNL     1      38.451 -13.270  -1.132  1.00  0.00    -0.070 N 
HETATM   20  H   UNL     1      37.877 -13.749  -0.404  1.00  0.00     0.279 HD
BRANCH  19  21
HETATM   21  C   UNL     1      38.468 -11.827  -0.684  1.00  0.00     0.230 C 
HETATM   22  C   UNL     1      38.498 -11.698   0.827  1.00  0.00     0.034 C 
ENDBRANCH  19  21
BRANCH  19  23
HETATM   23  C   UNL     1      37.702 -13.467  -2.433  1.00  0.00     0.230 C 
HETATM   24  C   UNL     1      38.355 -14.539  -3.287  1.00  0.00     0.034 C 
ENDBRANCH  19  23
ENDBRANCH  18  19
ENDBRANCH  17  18
ENDBRANCH  14  17
ENDBRANCH   2  13
BRANCH   2  25
HETATM   25  O   UNL     1      43.628 -14.789   2.026  1.00  0.00    -0.359 OA
HETATM   26  H   UNL     1      43.321 -13.886   1.837  1.00  0.00     0.213 HD
ENDBRANCH   2  25
BRANCH   1  27
HETATM   27  C   UNL     1      41.804 -13.148   3.881  1.00  0.00     0.043 A 
HETATM   28  C   UNL     1      40.514 -12.961   4.409  1.00  0.00     0.030 A 
HETATM   29  C   UNL     1      39.883 -11.710   4.369  1.00  0.00     0.009 A 
HETATM   30  C   UNL     1      40.523 -10.608   3.800  1.00  0.00    -0.058 A 
HETATM   31  C   UNL     1      41.792 -10.782   3.251  1.00  0.00     0.009 A 
HETATM   32  C   UNL     1      42.418 -12.034   3.286  1.00  0.00     0.030 A 
BRANCH  30  33
HETATM   33  C   UNL     1      39.872  -9.247   3.806  1.00  0.00     0.034 C 
HETATM   34  C   UNL     1      38.460  -9.310   4.372  1.00  0.00     0.010 C 
ENDBRANCH  30  33
ENDBRANCH   1  27
TORSDOF 9
ENDMDL
MODEL 3
REMARK VINA RESULT:      -7.3      1.873      5.240
REMARK  9 active torsions:
REMARK  status: ('A' for Active; 'I' for Inactive)
REMARK    1  A    between atoms: C_2  and  C_3 
REMARK    2  A    between atoms: C_6  and  N_7 
REMARK    3  A    between atoms: C_8  and  C_10 
REMARK    4  A    between atoms: C_8  and  O_9 
REMARK       I    between atoms: C_10  and  N_11 
REMARK    5  A    between atoms: N_11  and  C_12 
REMARK    6  A    between atoms: C_12  and  C_13 
REMARK    7  A    between atoms: C_13  and  N_14 
REMARK    8  A    between atoms: N_14  and  C_16 
REMARK    9  A    between atoms: N_14  and  C_18 
ROOT
HETATM    1  N   UNL     1      41.905 -13.642   2.920  1.00  0.00    -0.254 N 
HETATM    2  C   UNL     1      40.430 -13.567   2.852  1.00  0.00     0.256 C 
HETATM    3  C   UNL     1      39.865 -12.220   2.452  1.00  0.00     0.034 A 
HETATM    4  C   UNL     1      40.717 -11.136   2.337  1.00  0.00     0.048 A 
HETATM    5  N   UNL     1      42.062 -11.312   2.605  1.00  0.00    -0.308 N 
HETATM    6  C   UNL     1      42.674 -12.485   2.915  1.00  0.00     0.330 C 
HETATM    7  O   UNL     1      43.880 -12.432   3.151  1.00  0.00    -0.246 OA
HETATM    8  C   UNL     1      38.488 -12.010   2.243  1.00  0.00     0.015 A 
HETATM    9  C   UNL     1      38.004 -10.752   1.878  1.00  0.00     0.001 A 
HETATM   10  C   UNL     1      38.884  -9.683   1.743  1.00  0.00     0.002 A 
HETATM   11  C   UNL     1      40.243  -9.870   1.983  1.00  0.00     0.030 A 
HETATM   12  H   UNL     1      42.684 -10.511   2.599  1.00  0.00     0.170 HD
ENDROOT
BRANCH   2  13
HETATM   13  C   UNL     1      39.885 -14.630   1.766  1.00  0.00     0.279 C 
HETATM   14  N   UNL     1      39.909 -14.222   0.445  1.00  0.00    -0.355 N 
HETATM   15  H   UNL     1      40.266 -13.282   0.278  1.00  0.00     0.162 HD
HETATM   16  O   UNL     1      39.396 -15.721   2.075  1.00  0.00    -0.268 OA
BRANCH  14  17
HETATM   17  C   UNL     1      39.518 -14.990  -0.732  1.00  0.00     0.150 C 
BRANCH  17  18
HETATM   18  C   UNL     1      39.244 -14.228  -2.048  1.00  0.00     0.254 C 
BRANCH  18  19
HETATM   19  N   UNL     1      38.937 -12.750  -1.856  1.00  0.00    -0.070 N 
HETATM   20  H   UNL     1      39.050 -12.614  -0.827  1.00  0.00     0.279 HD
BRANCH  19  21
HETATM   21  C   UNL     1      39.923 -11.776  -2.457  1.00  0.00     0.230 C 
HETATM   22  C   UNL     1      40.938 -11.288  -1.442  1.00  0.00     0.034 C 
ENDBRANCH  19  21
BRANCH  19  23
HETATM   23  C   UNL     1      37.500 -12.385  -2.157  1.00  0.00     0.230 C 
HETATM   24  C   UNL     1      37.194 -10.959  -1.735  1.00  0.00     0.034 C 
ENDBRANCH  19  23
ENDBRANCH  18  19
ENDBRANCH  17  18
ENDBRANCH  14  17
ENDBRANCH   2  13
BRANCH   2  25
HETATM   25  O   UNL     1      39.936 -13.805   4.159  1.00  0.00    -0.359 OA
HETATM   26  H   UNL     1      40.730 -13.946   4.702  1.00  0.00     0.213 HD
ENDBRANCH   2  25
BRANCH   1  27
HETATM   27  C   UNL     1      42.548 -14.945   3.004  1.00  0.00     0.043 A 
HETATM   28  C   UNL     1      42.658 -15.650   4.215  1.00  0.00     0.030 A 
HETATM   29  C   UNL     1      43.144 -16.964   4.255  1.00  0.00     0.009 A 
HETATM   30  C   UNL     1      43.534 -17.614   3.083  1.00  0.00    -0.058 A 
HETATM   31  C   UNL     1      43.454 -16.921   1.876  1.00  0.00     0.009 A 
HETATM   32  C   UNL     1      42.975 -15.606   1.840  1.00  0.00     0.030 A 
BRANCH  30  33
HETATM   33  C   UNL     1      44.003 -19.047   3.113  1.00  0.00     0.034 C 
HETATM   34  C   UNL     1      43.264 -19.893   2.084  1.00  0.00     0.010 C 
ENDBRANCH  30  33
ENDBRANCH   1  27
TORSDOF 9
ENDMDL
MODEL 4
REMARK VINA RESULT:      -7.3      2.224      7.326
REMARK  9 active torsions:
REMARK  status: ('A' for Active; 'I' for Inactive)
REMARK    1  A    between atoms: C_2  and  C_3 
REMARK    2  A    between atoms: C_6  and  N_7 
REMARK    3  A    between atoms: C_8  and  C_10 
REMARK    4  A    between atoms: C_8  and  O_9 
REMARK       I    between atoms: C_10  and  N_11 
REMARK    5  A    between atoms: N_11  and  C_12 
REMARK    6  A    between atoms: C_12  and  C_13 
REMARK    7  A    between atoms: C_13  and  N_14 
REMARK    8  A    between atoms: N_14  and  C_16 
REMARK    9  A    between atoms: N_14  and  C_18 
ROOT
HETATM    1  N   UNL     1      43.247 -15.585   4.328  1.00  0.00    -0.254 N 
HETATM    2  C   UNL     1      43.007 -16.327   3.072  1.00  0.00     0.256 C 
HETATM    3  C   UNL     1      43.261 -17.818   3.140  1.00  0.00     0.034 A 
HETATM    4  C   UNL     1      43.834 -18.357   4.279  1.00  0.00     0.048 A 
HETATM    5  N   UNL     1      44.174 -17.511   5.319  1.00  0.00    -0.308 N 
HETATM    6  C   UNL     1      43.939 -16.174   5.379  1.00  0.00     0.330 C 
HETATM    7  O   UNL     1      44.346 -15.588   6.381  1.00  0.00    -0.246 OA
HETATM    8  C   UNL     1      42.984 -18.682   2.062  1.00  0.00     0.015 A 
HETATM    9  C   UNL     1      43.233 -20.052   2.161  1.00  0.00     0.001 A 
HETATM   10  C   UNL     1      43.786 -20.574   3.326  1.00  0.00     0.002 A 
HETATM   11  C   UNL     1      44.099 -19.724   4.385  1.00  0.00     0.030 A 
HETATM   12  H   UNL     1      44.664 -17.881   6.126  1.00  0.00     0.170 HD
ENDROOT
BRANCH   2  13
HETATM   13  C   UNL     1      41.467 -16.146   2.624  1.00  0.00     0.279 C 
HETATM   14  N   UNL     1      41.254 -15.547   1.396  1.00  0.00    -0.355 N 
HETATM   15  H   UNL     1      42.092 -15.272   0.886  1.00  0.00     0.162 HD
HETATM   16  O   UNL     1      40.513 -16.440   3.350  1.00  0.00    -0.268 OA
BRANCH  14  17
HETATM   17  C   UNL     1      39.978 -15.300   0.735  1.00  0.00     0.150 C 
BRANCH  17  18
HETATM   18  C   UNL     1      39.742 -13.917   0.086  1.00  0.00     0.254 C 
BRANCH  18  19
HETATM   19  N   UNL     1      40.274 -12.750   0.905  1.00  0.00    -0.070 N 
HETATM   20  H   UNL     1      40.914 -13.211   1.590  1.00  0.00     0.279 HD
BRANCH  19  21
HETATM   21  C   UNL     1      41.169 -11.774   0.179  1.00  0.00     0.230 C 
HETATM   22  C   UNL     1      41.187 -10.410   0.843  1.00  0.00     0.034 C 
ENDBRANCH  19  21
BRANCH  19  23
HETATM   23  C   UNL     1      39.216 -12.061   1.739  1.00  0.00     0.230 C 
HETATM   24  C   UNL     1      39.062 -12.728   3.094  1.00  0.00     0.034 C 
ENDBRANCH  19  23
ENDBRANCH  18  19
ENDBRANCH  17  18
ENDBRANCH  14  17
ENDBRANCH   2  13
BRANCH   2  25
HETATM   25  O   UNL     1      43.927 -15.836   2.112  1.00  0.00    -0.359 OA
HETATM   26  H   UNL     1      44.764 -15.739   2.597  1.00  0.00     0.213 HD
ENDBRANCH   2  25
BRANCH   1  27
HETATM   27  C   UNL     1      42.759 -14.219   4.453  1.00  0.00     0.043 A 
HETATM   28  C   UNL     1      41.904 -13.821   5.495  1.00  0.00     0.030 A 
HETATM   29  C   UNL     1      41.564 -12.474   5.689  1.00  0.00     0.009 A 
HETATM   30  C   UNL     1      42.069 -11.485   4.844  1.00  0.00    -0.058 A 
HETATM   31  C   UNL     1      42.900 -11.866   3.790  1.00  0.00     0.009 A 
HETATM   32  C   UNL     1      43.232 -13.212   3.596  1.00  0.00     0.030 A 
BRANCH  30  33
HETATM   33  C   UNL     1      41.754 -10.029   5.081  1.00  0.00     0.034 C 
HETATM   34  C   UNL     1      41.071  -9.822   6.426  1.00  0.00     0.010 C 
ENDBRANCH  30  33
ENDBRANCH   1  27
TORSDOF 9
ENDMDL
MODEL 5
REMARK VINA RESULT:      -7.3      2.218      5.335
REMARK  9 active torsions:
REMARK  status: ('A' for Active; 'I' for Inactive)
REMARK    1  A    between atoms: C_2  and  C_3 
REMARK    2  A    between atoms: C_6  and  N_7 
REMARK    3  A    between atoms: C_8  and  C_10 
REMARK    4  A    between atoms: C_8  and  O_9 
REMARK       I    between atoms: C_10  and  N_11 
REMARK    5  A    between atoms: N_11  and  C_12 
REMARK    6  A    between atoms: C_12  and  C_13 
REMARK    7  A    between atoms: C_13  and  N_14 
REMARK    8  A    between atoms: N_14  and  C_16 
REMARK    9  A    between atoms: N_14  and  C_18 
ROOT
HETATM    1  N   UNL     1      41.586 -13.258   5.165  1.00  0.00    -0.254 N 
HETATM    2  C   UNL     1      40.252 -12.632   5.040  1.00  0.00     0.256 C 
HETATM    3  C   UNL     1      40.111 -11.269   5.683  1.00  0.00     0.034 A 
HETATM    4  C   UNL     1      41.146 -10.777   6.460  1.00  0.00     0.048 A 
HETATM    5  N   UNL     1      42.275 -11.554   6.639  1.00  0.00    -0.308 N 
HETATM    6  C   UNL     1      42.522 -12.760   6.064  1.00  0.00     0.330 C 
HETATM    7  O   UNL     1      43.576 -13.313   6.373  1.00  0.00    -0.246 OA
HETATM    8  C   UNL     1      38.940 -10.496   5.567  1.00  0.00     0.015 A 
HETATM    9  C   UNL     1      38.846  -9.243   6.177  1.00  0.00     0.001 A 
HETATM   10  C   UNL     1      39.909  -8.758   6.932  1.00  0.00     0.002 A 
HETATM   11  C   UNL     1      41.059  -9.530   7.085  1.00  0.00     0.030 A 
HETATM   12  H   UNL     1      43.006 -11.239   7.267  1.00  0.00     0.170 HD
ENDROOT
BRANCH   2  13
HETATM   13  C   UNL     1      39.892 -12.440   3.478  1.00  0.00     0.279 C 
HETATM   14  N   UNL     1      40.719 -11.597   2.759  1.00  0.00    -0.355 N 
HETATM   15  H   UNL     1      41.481 -11.171   3.284  1.00  0.00     0.162 HD
HETATM   16  O   UNL     1      38.895 -12.939   2.949  1.00  0.00    -0.268 OA
BRANCH  14  17
HETATM   17  C   UNL     1      40.648 -11.279   1.338  1.00  0.00     0.150 C 
BRANCH  17  18
HETATM   18  C   UNL     1      40.894 -12.415   0.318  1.00  0.00     0.254 C 
BRANCH  18  19
HETATM   19  N   UNL     1      39.621 -13.059  -0.210  1.00  0.00    -0.070 N 
HETATM   20  H   UNL     1      38.967 -12.996   0.600  1.00  0.00     0.279 HD
BRANCH  19  21
HETATM   21  C   UNL     1      38.901 -12.316  -1.311  1.00  0.00     0.230 C 
HETATM   22  C   UNL     1      37.863 -13.181  -2.002  1.00  0.00     0.034 C 
ENDBRANCH  19  21
BRANCH  19  23
HETATM   23  C   UNL     1      39.764 -14.536  -0.502  1.00  0.00     0.230 C 
HETATM   24  C   UNL     1      40.053 -15.323   0.765  1.00  0.00     0.034 C 
ENDBRANCH  19  23
ENDBRANCH  18  19
ENDBRANCH  17  18
ENDBRANCH  14  17
ENDBRANCH   2  13
BRANCH   2  25
HETATM   25  O   UNL     1      39.331 -13.465   5.725  1.00  0.00    -0.359 OA
HETATM   26  H   UNL     1      38.904 -13.989   5.027  1.00  0.00     0.213 HD
ENDBRANCH   2  25
BRANCH   1  27
HETATM   27  C   UNL     1      41.909 -14.416   4.343  1.00  0.00     0.043 A 
HETATM   28  C   UNL     1      42.860 -14.358   3.309  1.00  0.00     0.030 A 
HETATM   29  C   UNL     1      43.270 -15.512   2.627  1.00  0.00     0.009 A 
HETATM   30  C   UNL     1      42.741 -16.760   2.960  1.00  0.00    -0.058 A 
HETATM   31  C   UNL     1      41.779 -16.832   3.967  1.00  0.00     0.009 A 
HETATM   32  C   UNL     1      41.367 -15.677   4.642  1.00  0.00     0.030 A 
BRANCH  30  33
HETATM   33  C   UNL     1      43.219 -18.013   2.269  1.00  0.00     0.034 C 
HETATM   34  C   UNL     1      43.866 -18.976   3.255  1.00  0.00     0.010 C 
ENDBRANCH  30  33
ENDBRANCH   1  27
TORSDOF 9
ENDMDL
MODEL 6
REMARK VINA RESULT:      -7.2      2.179      4.556
REMARK  9 active torsions:
REMARK  status: ('A' for Active; 'I' for Inactive)
REMARK    1  A    between atoms: C_2  and  C_3 
REMARK    2  A    between atoms: C_6  and  N_7 
REMARK    3  A    between atoms: C_8  and  C_10 
REMARK    4  A    between atoms: C_8  and  O_9 
REMARK       I    between atoms: C_10  and  N_11 
REMARK    5  A    between atoms: N_11  and  C_12 
REMARK    6  A    between atoms: C_12  and  C_13 
REMARK    7  A    between atoms: C_13  and  N_14 
REMARK    8  A    between atoms: N_14  and  C_16 
REMARK    9  A    between atoms: N_14  and  C_18 
ROOT
HETATM    1  N   UNL     1      41.118 -12.323   1.483  1.00  0.00    -0.254 N 
HETATM    2  C   UNL     1      40.259 -13.448   1.057  1.00  0.00     0.256 C 
HETATM    3  C   UNL     1      40.007 -13.547  -0.433  1.00  0.00     0.034 A 
HETATM    4  C   UNL     1      40.443 -12.527  -1.262  1.00  0.00     0.048 A 
HETATM    5  N   UNL     1      41.083 -11.438  -0.700  1.00  0.00    -0.308 N 
HETATM    6  C   UNL     1      41.405 -11.280   0.610  1.00  0.00     0.330 C 
HETATM    7  O   UNL     1      41.949 -10.221   0.921  1.00  0.00    -0.246 OA
HETATM    8  C   UNL     1      39.296 -14.616  -1.010  1.00  0.00     0.015 A 
HETATM    9  C   UNL     1      39.082 -14.671  -2.389  1.00  0.00     0.001 A 
HETATM   10  C   UNL     1      39.551 -13.647  -3.205  1.00  0.00     0.002 A 
HETATM   11  C   UNL     1      40.224 -12.565  -2.641  1.00  0.00     0.030 A 
HETATM   12  H   UNL     1      41.338 -10.649  -1.285  1.00  0.00     0.170 HD
ENDROOT
BRANCH   2  13
HETATM   13  C   UNL     1      40.941 -14.844   1.498  1.00  0.00     0.279 C 
HETATM   14  N   UNL     1      42.219 -15.076   1.024  1.00  0.00    -0.355 N 
HETATM   15  H   UNL     1      42.614 -14.344   0.436  1.00  0.00     0.162 HD
HETATM   16  O   UNL     1      40.350 -15.708   2.152  1.00  0.00    -0.268 OA
BRANCH  14  17
HETATM   17  C   UNL     1      43.075 -16.224   1.299  1.00  0.00     0.150 C 
BRANCH  17  18
HETATM   18  C   UNL     1      43.694 -16.359   2.709  1.00  0.00     0.254 C 
BRANCH  18  19
HETATM   19  N   UNL     1      43.265 -17.612   3.456  1.00  0.00    -0.070 N 
HETATM   20  H   UNL     1      42.315 -17.807   3.070  1.00  0.00     0.279 HD
BRANCH  19  21
HETATM   21  C   UNL     1      44.041 -18.873   3.154  1.00  0.00     0.230 C 
HETATM   22  C   UNL     1      43.299 -19.786   2.196  1.00  0.00     0.034 C 
ENDBRANCH  19  21
BRANCH  19  23
HETATM   23  C   UNL     1      43.064 -17.395   4.940  1.00  0.00     0.230 C 
HETATM   24  C   UNL     1      41.999 -16.345   5.203  1.00  0.00     0.034 C 
ENDBRANCH  19  23
ENDBRANCH  18  19
ENDBRANCH  17  18
ENDBRANCH  14  17
ENDBRANCH   2  13
BRANCH   2  25
HETATM   25  O   UNL     1      38.982 -13.246   1.638  1.00  0.00    -0.359 OA
HETATM   26  H   UNL     1      38.768 -14.091   2.067  1.00  0.00     0.213 HD
ENDBRANCH   2  25
BRANCH   1  27
HETATM   27  C   UNL     1      41.656 -12.310   2.836  1.00  0.00     0.043 A 
HETATM   28  C   UNL     1      40.827 -12.273   3.971  1.00  0.00     0.030 A 
HETATM   29  C   UNL     1      41.351 -12.412   5.264  1.00  0.00     0.009 A 
HETATM   30  C   UNL     1      42.720 -12.593   5.461  1.00  0.00    -0.058 A 
HETATM   31  C   UNL     1      43.559 -12.609   4.347  1.00  0.00     0.009 A 
HETATM   32  C   UNL     1      43.035 -12.463   3.057  1.00  0.00     0.030 A 
BRANCH  30  33
HETATM   33  C   UNL     1      43.283 -12.801   6.844  1.00  0.00     0.034 C 
HETATM   34  C   UNL     1      44.539 -11.969   7.063  1.00  0.00     0.010 C 
ENDBRANCH  30  33
ENDBRANCH   1  27
TORSDOF 9
ENDMDL
MODEL 7
REMARK VINA RESULT:      -7.1      2.000      6.439
REMARK  9 active torsions:
REMARK  status: ('A' for Active; 'I' for Inactive)
REMARK    1  A    between atoms: C_2  and  C_3 
REMARK    2  A    between atoms: C_6  and  N_7 
REMARK    3  A    between atoms: C_8  and  C_10 
REMARK    4  A    between atoms: C_8  and  O_9 
REMARK       I    between atoms: C_10  and  N_11 
REMARK    5  A    between atoms: N_11  and  C_12 
REMARK    6  A    between atoms: C_12  and  C_13 
REMARK    7  A    between atoms: C_13  and  N_14 
REMARK    8  A    between atoms: N_14  and  C_16 
REMARK    9  A    between atoms: N_14  and  C_18 
ROOT
HETATM    1  N   UNL     1      41.827 -15.720   3.020  1.00  0.00    -0.254 N 
HETATM    2  C   UNL     1      41.327 -15.399   4.374  1.00  0.00     0.256 C 
HETATM    3  C   UNL     1      42.248 -15.779   5.514  1.00  0.00     0.034 A 
HETATM    4  C   UNL     1      43.386 -16.522   5.247  1.00  0.00     0.048 A 
HETATM    5  N   UNL     1      43.639 -16.909   3.944  1.00  0.00    -0.308 N 
HETATM    6  C   UNL     1      42.910 -16.575   2.848  1.00  0.00     0.330 C 
HETATM    7  O   UNL     1      43.281 -17.045   1.774  1.00  0.00    -0.246 OA
HETATM    8  C   UNL     1      41.967 -15.451   6.854  1.00  0.00     0.015 A 
HETATM    9  C   UNL     1      42.839 -15.821   7.880  1.00  0.00     0.001 A 
HETATM   10  C   UNL     1      43.990 -16.545   7.584  1.00  0.00     0.002 A 
HETATM   11  C   UNL     1      44.260 -16.908   6.266  1.00  0.00     0.030 A 
HETATM   12  H   UNL     1      44.426 -17.517   3.747  1.00  0.00     0.170 HD
ENDROOT
BRANCH   2  13
HETATM   13  C   UNL     1      41.083 -13.808   4.495  1.00  0.00     0.279 C 
HETATM   14  N   UNL     1      39.769 -13.384   4.434  1.00  0.00    -0.355 N 
HETATM   15  H   UNL     1      39.072 -14.118   4.315  1.00  0.00     0.162 HD
HETATM   16  O   UNL     1      42.003 -12.987   4.557  1.00  0.00    -0.268 OA
BRANCH  14  17
HETATM   17  C   UNL     1      39.266 -12.021   4.557  1.00  0.00     0.150 C 
BRANCH  17  18
HETATM   18  C   UNL     1      39.814 -10.946   3.591  1.00  0.00     0.254 C 
BRANCH  18  19
HETATM   19  N   UNL     1      39.451 -11.183   2.132  1.00  0.00    -0.070 N 
HETATM   20  H   UNL     1      39.965 -12.060   1.897  1.00  0.00     0.279 HD
BRANCH  19  21
HETATM   21  C   UNL     1      38.007 -11.526   1.847  1.00  0.00     0.230 C 
HETATM   22  C   UNL     1      37.668 -11.396   0.374  1.00  0.00     0.034 C 
ENDBRANCH  19  21
BRANCH  19  23
HETATM   23  C   UNL     1      39.995 -10.128   1.193  1.00  0.00     0.230 C 
HETATM   24  C   UNL     1      41.513 -10.101   1.215  1.00  0.00     0.034 C 
ENDBRANCH  19  23
ENDBRANCH  18  19
ENDBRANCH  17  18
ENDBRANCH  14  17
ENDBRANCH   2  13
BRANCH   2  25
HETATM   25  O   UNL     1      40.148 -16.160   4.578  1.00  0.00    -0.359 OA
HETATM   26  H   UNL     1      39.559 -15.573   5.082  1.00  0.00     0.213 HD
ENDBRANCH   2  25
BRANCH   1  27
HETATM   27  C   UNL     1      41.166 -15.140   1.860  1.00  0.00     0.043 A 
HETATM   28  C   UNL     1      41.646 -13.981   1.226  1.00  0.00     0.030 A 
HETATM   29  C   UNL     1      41.089 -13.521   0.024  1.00  0.00     0.009 A 
HETATM   30  C   UNL     1      40.034 -14.207  -0.579  1.00  0.00    -0.058 A 
HETATM   31  C   UNL     1      39.530 -15.345   0.050  1.00  0.00     0.009 A 
HETATM   32  C   UNL     1      40.084 -15.799   1.253  1.00  0.00     0.030 A 
BRANCH  30  33
HETATM   33  C   UNL     1      39.468 -13.750  -1.901  1.00  0.00     0.034 C 
HETATM   34  C   UNL     1      38.834 -14.907  -2.662  1.00  0.00     0.010 C 
ENDBRANCH  30  33
ENDBRANCH   1  27
TORSDOF 9
ENDMDL
MODEL 8
REMARK VINA RESULT:      -7.0      2.554      5.841
REMARK  9 active torsions:
REMARK  status: ('A' for Active; 'I' for Inactive)
REMARK    1  A    between atoms: C_2  and  C_3 
REMARK    2  A    between atoms: C_6  and  N_7 
REMARK    3  A    between atoms: C_8  and  C_10 
REMARK    4  A    between atoms: C_8  and  O_9 
REMARK       I    between atoms: C_10  and  N_11 
REMARK    5  A    between atoms: N_11  and  C_12 
REMARK    6  A    between atoms: C_12  and  C_13 
REMARK    7  A    between atoms: C_13  and  N_14 
REMARK    8  A    between atoms: N_14  and  C_16 
REMARK    9  A    between atoms: N_14  and  C_18 
ROOT
HETATM    1  N   UNL     1      41.758 -15.307   2.683  1.00  0.00    -0.254 N 
HETATM    2  C   UNL     1      41.158 -15.188   4.029  1.00  0.00     0.256 C 
HETATM    3  C   UNL     1      42.043 -15.628   5.176  1.00  0.00     0.034 A 
HETATM    4  C   UNL     1      43.252 -16.243   4.901  1.00  0.00     0.048 A 
HETATM    5  N   UNL     1      43.610 -16.453   3.582  1.00  0.00    -0.308 N 
HETATM    6  C   UNL     1      42.917 -16.049   2.485  1.00  0.00     0.330 C 
HETATM    7  O   UNL     1      43.386 -16.359   1.391  1.00  0.00    -0.246 OA
HETATM    8  C   UNL     1      41.661 -15.484   6.523  1.00  0.00     0.015 A 
HETATM    9  C   UNL     1      42.504 -15.903   7.555  1.00  0.00     0.001 A 
HETATM   10  C   UNL     1      43.726 -16.496   7.254  1.00  0.00     0.002 A 
HETATM   11  C   UNL     1      44.099 -16.678   5.924  1.00  0.00     0.030 A 
HETATM   12  H   UNL     1      44.455 -16.971   3.368  1.00  0.00     0.170 HD
ENDROOT
BRANCH   2  13
HETATM   13  C   UNL     1      40.774 -13.646   4.313  1.00  0.00     0.279 C 
HETATM   14  N   UNL     1      41.831 -12.788   4.557  1.00  0.00    -0.355 N 
HETATM   15  H   UNL     1      42.758 -13.210   4.538  1.00  0.00     0.162 HD
HETATM   16  O   UNL     1      39.610 -13.244   4.395  1.00  0.00    -0.268 OA
BRANCH  14  17
HETATM   17  C   UNL     1      41.773 -11.351   4.801  1.00  0.00     0.150 C 
BRANCH  17  18
HETATM   18  C   UNL     1      41.405 -10.861   6.220  1.00  0.00     0.254 C 
BRANCH  18  19
HETATM   19  N   UNL     1      42.593 -10.755   7.165  1.00  0.00    -0.070 N 
HETATM   20  H   UNL     1      42.424 -11.525   7.848  1.00  0.00     0.279 HD
BRANCH  19  21
HETATM   21  C   UNL     1      43.947 -11.084   6.580  1.00  0.00     0.230 C 
HETATM   22  C   UNL     1      44.395 -12.490   6.930  1.00  0.00     0.034 C 
ENDBRANCH  19  21
BRANCH  19  23
HETATM   23  C   UNL     1      42.606  -9.482   7.982  1.00  0.00     0.230 C 
HETATM   24  C   UNL     1      43.966  -9.248   8.617  1.00  0.00     0.034 C 
ENDBRANCH  19  23
ENDBRANCH  18  19
ENDBRANCH  17  18
ENDBRANCH  14  17
ENDBRANCH   2  13
BRANCH   2  25
HETATM   25  O   UNL     1      40.038 -16.057   4.068  1.00  0.00    -0.359 OA
HETATM   26  H   UNL     1      39.269 -15.474   3.955  1.00  0.00     0.213 HD
ENDBRANCH   2  25
BRANCH   1  27
HETATM   27  C   UNL     1      41.115 -14.647   1.555  1.00  0.00     0.043 A 
HETATM   28  C   UNL     1      41.491 -13.362   1.125  1.00  0.00     0.030 A 
HETATM   29  C   UNL     1      40.970 -12.802  -0.049  1.00  0.00     0.009 A 
HETATM   30  C   UNL     1      40.056 -13.511  -0.830  1.00  0.00    -0.058 A 
HETATM   31  C   UNL     1      39.654 -14.777  -0.405  1.00  0.00     0.009 A 
HETATM   32  C   UNL     1      40.171 -15.332   0.772  1.00  0.00     0.030 A 
BRANCH  30  33
HETATM   33  C   UNL     1      39.535 -12.938  -2.124  1.00  0.00     0.034 C 
HETATM   34  C   UNL     1      40.675 -12.536  -3.050  1.00  0.00     0.010 C 
ENDBRANCH  30  33
ENDBRANCH   1  27
TORSDOF 9
ENDMDL
MODEL 9
REMARK VINA RESULT:      -7.0     15.631     17.632
REMARK  9 active torsions:
REMARK  status: ('A' for Active; 'I' for Inactive)
REMARK    1  A    between atoms: C_2  and  C_3 
REMARK    2  A    between atoms: C_6  and  N_7 
REMARK    3  A    between atoms: C_8  and  C_10 
REMARK    4  A    between atoms: C_8  and  O_9 
REMARK       I    between atoms: C_10  and  N_11 
REMARK    5  A    between atoms: N_11  and  C_12 
REMARK    6  A    between atoms: C_12  and  C_13 
REMARK    7  A    between atoms: C_13  and  N_14 
REMARK    8  A    between atoms: N_14  and  C_16 
REMARK    9  A    between atoms: N_14  and  C_18 
ROOT
HETATM    1  N   UNL     1      48.720 -29.739   1.218  1.00  0.00    -0.254 N 
HETATM    2  C   UNL     1      47.434 -29.011   1.241  1.00  0.00     0.256 C 
HETATM    3  C   UNL     1      46.847 -28.685  -0.116  1.00  0.00     0.034 A 
HETATM    4  C   UNL     1      47.595 -28.932  -1.255  1.00  0.00     0.048 A 
HETATM    5  N   UNL     1      48.867 -29.457  -1.116  1.00  0.00    -0.308 N 
HETATM    6  C   UNL     1      49.461 -29.834   0.046  1.00  0.00     0.330 C 
HETATM    7  O   UNL     1      50.615 -30.252  -0.035  1.00  0.00    -0.246 OA
HETATM    8  C   UNL     1      45.581 -28.087  -0.268  1.00  0.00     0.015 A 
HETATM    9  C   UNL     1      45.074 -27.799  -1.537  1.00  0.00     0.001 A 
HETATM   10  C   UNL     1      45.834 -28.080  -2.668  1.00  0.00     0.002 A 
HETATM   11  C   UNL     1      47.103 -28.638  -2.529  1.00  0.00     0.030 A 
HETATM   12  H   UNL     1      49.454 -29.570  -1.936  1.00  0.00     0.170 HD
ENDROOT
BRANCH   2  13
HETATM   13  C   UNL     1      46.328 -29.896   2.016  1.00  0.00     0.279 C 
HETATM   14  N   UNL     1      45.922 -31.057   1.386  1.00  0.00    -0.355 N 
HETATM   15  H   UNL     1      46.358 -31.248   0.485  1.00  0.00     0.162 HD
HETATM   16  O   UNL     1      45.798 -29.539   3.072  1.00  0.00    -0.268 OA
BRANCH  14  17
HETATM   17  C   UNL     1      44.976 -32.053   1.876  1.00  0.00     0.150 C 
BRANCH  17  18
HETATM   18  C   UNL     1      43.468 -31.715   1.836  1.00  0.00     0.254 C 
BRANCH  18  19
HETATM   19  N   UNL     1      43.006 -30.808   2.967  1.00  0.00    -0.070 N 
HETATM   20  H   UNL     1      43.897 -30.392   3.319  1.00  0.00     0.279 HD
BRANCH  19  21
HETATM   21  C   UNL     1      42.181 -29.607   2.570  1.00  0.00     0.230 C 
HETATM   22  C   UNL     1      42.450 -29.174   1.141  1.00  0.00     0.034 C 
ENDBRANCH  19  21
BRANCH  19  23
HETATM   23  C   UNL     1      42.417 -31.557   4.143  1.00  0.00     0.230 C 
HETATM   24  C   UNL     1      41.138 -30.899   4.629  1.00  0.00     0.034 C 
ENDBRANCH  19  23
ENDBRANCH  18  19
ENDBRANCH  17  18
ENDBRANCH  14  17
ENDBRANCH   2  13
BRANCH   2  25
HETATM   25  O   UNL     1      47.672 -27.756   1.855  1.00  0.00    -0.359 OA
HETATM   26  H   UNL     1      46.951 -27.653   2.498  1.00  0.00     0.213 HD
ENDBRANCH   2  25
BRANCH   1  27
HETATM   27  C   UNL     1      49.214 -30.351   2.443  1.00  0.00     0.043 A 
HETATM   28  C   UNL     1      49.152 -31.738   2.667  1.00  0.00     0.030 A 
HETATM   29  C   UNL     1      49.765 -32.328   3.781  1.00  0.00     0.009 A 
HETATM   30  C   UNL     1      50.461 -31.548   4.706  1.00  0.00    -0.058 A 
HETATM   31  C   UNL     1      50.512 -30.167   4.511  1.00  0.00     0.009 A 
HETATM   32  C   UNL     1      49.893 -29.580   3.401  1.00  0.00     0.030 A 
BRANCH  30  33
HETATM   33  C   UNL     1      51.171 -32.182   5.875  1.00  0.00     0.034 C 
HETATM   34  C   UNL     1      52.455 -31.437   6.214  1.00  0.00     0.010 C 
ENDBRANCH  30  33
ENDBRANCH   1  27
TORSDOF 9
ENDMDL
MODEL 10
REMARK VINA RESULT:      -6.9      2.080      5.434
REMARK  9 active torsions:
REMARK  status: ('A' for Active; 'I' for Inactive)
REMARK    1  A    between atoms: C_2  and  C_3 
REMARK    2  A    between atoms: C_6  and  N_7 
REMARK    3  A    between atoms: C_8  and  C_10 
REMARK    4  A    between atoms: C_8  and  O_9 
REMARK       I    between atoms: C_10  and  N_11 
REMARK    5  A    between atoms: N_11  and  C_12 
REMARK    6  A    between atoms: C_12  and  C_13 
REMARK    7  A    between atoms: C_13  and  N_14 
REMARK    8  A    between atoms: N_14  and  C_16 
REMARK    9  A    between atoms: N_14  and  C_18 
ROOT
HETATM    1  N   UNL     1      42.333 -14.539   5.328  1.00  0.00    -0.254 N 
HETATM    2  C   UNL     1      40.961 -14.301   4.832  1.00  0.00     0.256 C 
HETATM    3  C   UNL     1      40.562 -12.847   4.695  1.00  0.00     0.034 A 
HETATM    4  C   UNL     1      41.411 -11.864   5.175  1.00  0.00     0.048 A 
HETATM    5  N   UNL     1      42.594 -12.242   5.782  1.00  0.00    -0.308 N 
HETATM    6  C   UNL     1      43.068 -13.510   5.905  1.00  0.00     0.330 C 
HETATM    7  O   UNL     1      44.131 -13.645   6.507  1.00  0.00    -0.246 OA
HETATM    8  C   UNL     1      39.330 -12.450   4.142  1.00  0.00     0.015 A 
HETATM    9  C   UNL     1      38.996 -11.098   4.034  1.00  0.00     0.001 A 
HETATM   10  C   UNL     1      39.877 -10.127   4.501  1.00  0.00     0.002 A 
HETATM   11  C   UNL     1      41.083 -10.509   5.083  1.00  0.00     0.030 A 
HETATM   12  H   UNL     1      43.187 -11.537   6.206  1.00  0.00     0.170 HD
ENDROOT
BRANCH   2  13
HETATM   13  C   UNL     1      40.795 -14.960   3.368  1.00  0.00     0.279 C 
HETATM   14  N   UNL     1      41.441 -14.314   2.330  1.00  0.00    -0.355 N 
HETATM   15  H   UNL     1      41.962 -13.476   2.585  1.00  0.00     0.162 HD
HETATM   16  O   UNL     1      40.074 -15.937   3.144  1.00  0.00    -0.268 OA
BRANCH  14  17
HETATM   17  C   UNL     1      41.492 -14.712   0.928  1.00  0.00     0.150 C 
BRANCH  17  18
HETATM   18  C   UNL     1      40.352 -14.251  -0.008  1.00  0.00     0.254 C 
BRANCH  18  19
HETATM   19  N   UNL     1      40.820 -13.420  -1.193  1.00  0.00    -0.070 N 
HETATM   20  H   UNL     1      41.825 -13.688  -1.291  1.00  0.00     0.279 HD
BRANCH  19  21
HETATM   21  C   UNL     1      40.224 -13.772  -2.537  1.00  0.00     0.230 C 
HETATM   22  C   UNL     1      38.990 -14.644  -2.405  1.00  0.00     0.034 C 
ENDBRANCH  19  21
BRANCH  19  23
HETATM   23  C   UNL     1      40.820 -11.931  -0.928  1.00  0.00     0.230 C 
HETATM   24  C   UNL     1      39.802 -11.561   0.135  1.00  0.00     0.034 C 
ENDBRANCH  19  23
ENDBRANCH  18  19
ENDBRANCH  17  18
ENDBRANCH  14  17
ENDBRANCH   2  13
BRANCH   2  25
HETATM   25  O   UNL     1      40.068 -14.843   5.790  1.00  0.00    -0.359 OA
HETATM   26  H   UNL     1      39.281 -14.273   5.747  1.00  0.00     0.213 HD
ENDBRANCH   2  25
BRANCH   1  27
HETATM   27  C   UNL     1      42.909 -15.872   5.218  1.00  0.00     0.043 A 
HETATM   28  C   UNL     1      42.731 -16.850   6.212  1.00  0.00     0.030 A 
HETATM   29  C   UNL     1      43.162 -18.170   6.024  1.00  0.00     0.009 A 
HETATM   30  C   UNL     1      43.785 -18.553   4.835  1.00  0.00    -0.058 A 
HETATM   31  C   UNL     1      43.991 -17.589   3.849  1.00  0.00     0.009 A 
HETATM   32  C   UNL     1      43.565 -16.270   4.041  1.00  0.00     0.030 A 
BRANCH  30  33
HETATM   33  C   UNL     1      44.199 -19.985   4.604  1.00  0.00     0.034 C 
HETATM   34  C   UNL     1      43.837 -20.865   5.793  1.00  0.00     0.010 C 
ENDBRANCH  30  33
ENDBRANCH   1  27
TORSDOF 9
ENDMDL
