MODEL 1
REMARK VINA RESULT:      -9.2      0.000      0.000
REMARK  6 active torsions:
REMARK  status: ('A' for Active; 'I' for Inactive)
REMARK    1  A    between atoms: C_2  and  N_3 
REMARK    2  A    between atoms: C_2  and  C_15 
REMARK    3  A    between atoms: C_5  and  C_6 
REMARK       I    between atoms: C_15  and  N_16 
REMARK    4  A    between atoms: N_16  and  C_17 
REMARK    5  A    between atoms: C_20  and  O_21 
REMARK    6  A    between atoms: O_21  and  C_22 
ROOT
HETATM    1  C   UNL     1      43.202 -12.022   6.318  1.00  0.00     0.253 C 
HETATM    2  N   UNL     1      42.810 -13.078   7.116  1.00  0.00    -0.325 N 
HETATM    3  O   UNL     1      43.779 -12.101   5.234  1.00  0.00    -0.271 OA
HETATM    4  H   UNL     1      42.306 -12.885   7.975  1.00  0.00     0.169 HD
ENDROOT
BRANCH   1   5
HETATM    5  C   UNL     1      42.807 -10.613   6.828  1.00  0.00     0.276 C 
HETATM    6  C   UNL     1      41.311 -10.335   6.752  1.00  0.00     0.050 C 
BRANCH   5   7
HETATM    7  N   UNL     1      43.352 -10.386   8.252  1.00  0.00    -0.049 N 
HETATM    8  H   UNL     1      42.840 -11.085   8.819  1.00  0.00     0.281 HD
HETATM    9  C   UNL     1      43.014  -9.074   8.933  1.00  0.00     0.238 C 
HETATM   10  C   UNL     1      44.286  -8.248   8.746  1.00  0.00     0.041 C 
HETATM   11  C   UNL     1      45.436  -9.242   8.650  1.00  0.00     0.030 C 
HETATM   12  C   UNL     1      44.823 -10.613   8.425  1.00  0.00     0.237 C 
BRANCH   9  13
HETATM   13  C   UNL     1      42.672  -9.300  10.381  1.00  0.00     0.042 A 
HETATM   14  N   UNL     1      41.389  -9.504  10.862  1.00  0.00    -0.363 N 
HETATM   15  C   UNL     1      40.134  -9.524  10.135  1.00  0.00     0.155 C 
HETATM   16  C   UNL     1      41.432  -9.700  12.221  1.00  0.00     0.090 A 
HETATM   17  C   UNL     1      42.733  -9.598  12.638  1.00  0.00     0.019 A 
HETATM   18  C   UNL     1      43.513  -9.346  11.490  1.00  0.00     0.028 A 
ENDBRANCH   9  13
ENDBRANCH   5   7
ENDBRANCH   1   5
BRANCH   2  19
HETATM   19  C   UNL     1      42.997 -14.457   6.858  1.00  0.00     0.035 A 
HETATM   20  C   UNL     1      41.961 -15.389   6.779  1.00  0.00     0.032 A 
HETATM   21  C   UNL     1      42.241 -16.741   6.547  1.00  0.00     0.039 A 
HETATM   22  C   UNL     1      43.555 -17.176   6.377  1.00  0.00     0.076 A 
HETATM   23  C   UNL     1      44.597 -16.254   6.462  1.00  0.00     0.039 A 
HETATM   24  C   UNL     1      44.317 -14.901   6.693  1.00  0.00     0.032 A 
BRANCH  22  25
HETATM   25  O   UNL     1      43.720 -18.532   6.214  1.00  0.00    -0.311 OA
BRANCH  25  26
HETATM   26  C   UNL     1      43.763 -19.032   4.936  1.00  0.00     0.076 A 
HETATM   27  C   UNL     1      43.914 -20.410   4.783  1.00  0.00     0.037 A 
HETATM   28  C   UNL     1      43.909 -20.971   3.507  1.00  0.00     0.003 A 
HETATM   29  C   UNL     1      43.737 -20.154   2.388  1.00  0.00     0.000 A 
HETATM   30  C   UNL     1      43.560 -18.778   2.545  1.00  0.00     0.003 A 
HETATM   31  C   UNL     1      43.564 -18.214   3.821  1.00  0.00     0.037 A 
ENDBRANCH  25  26
ENDBRANCH  22  25
ENDBRANCH   2  19
TORSDOF 6
ENDMDL
MODEL 2
REMARK VINA RESULT:      -8.9      1.595      2.889
REMARK  6 active torsions:
REMARK  status: ('A' for Active; 'I' for Inactive)
REMARK    1  A    between atoms: C_2  and  N_3 
REMARK    2  A    between atoms: C_2  and  C_15 
REMARK    3  A    between atoms: C_5  and  C_6 
REMARK       I    between atoms: C_15  and  N_16 
REMARK    4  A    between atoms: N_16  and  C_17 
REMARK    5  A    between atoms: C_20  and  O_21 
REMARK    6  A    between atoms: O_21  and  C_22 
ROOT
HETATM    1  C   UNL     1      44.853 -11.413   7.653  1.00  0.00     0.253 C 
HETATM    2  N   UNL     1      43.681 -12.143   7.620  1.00  0.00    -0.325 N 
HETATM    3  O   UNL     1      45.758 -11.446   6.821  1.00  0.00    -0.271 OA
HETATM    4  H   UNL     1      42.992 -11.999   8.349  1.00  0.00     0.169 HD
ENDROOT
BRANCH   1   5
HETATM    5  C   UNL     1      44.986 -10.412   8.829  1.00  0.00     0.276 C 
HETATM    6  C   UNL     1      45.530  -9.051   8.412  1.00  0.00     0.050 C 
BRANCH   5   7
HETATM    7  N   UNL     1      43.642 -10.278   9.574  1.00  0.00    -0.049 N 
HETATM    8  H   UNL     1      43.023 -10.937   9.070  1.00  0.00     0.281 HD
HETATM    9  C   UNL     1      42.907  -8.957   9.465  1.00  0.00     0.238 C 
HETATM   10  C   UNL     1      43.248  -8.259  10.780  1.00  0.00     0.041 C 
HETATM   11  C   UNL     1      43.507  -9.361  11.800  1.00  0.00     0.030 C 
HETATM   12  C   UNL     1      43.667 -10.657  11.024  1.00  0.00     0.237 C 
BRANCH   9  13
HETATM   13  C   UNL     1      41.429  -9.185   9.292  1.00  0.00     0.042 A 
HETATM   14  N   UNL     1      40.816  -9.472   8.082  1.00  0.00    -0.363 N 
HETATM   15  C   UNL     1      41.408  -9.592   6.764  1.00  0.00     0.155 C 
HETATM   16  C   UNL     1      39.467  -9.644   8.279  1.00  0.00     0.090 A 
HETATM   17  C   UNL     1      39.189  -9.444   9.607  1.00  0.00     0.019 A 
HETATM   18  C   UNL     1      40.413  -9.155  10.243  1.00  0.00     0.028 A 
ENDBRANCH   9  13
ENDBRANCH   5   7
ENDBRANCH   1   5
BRANCH   2  19
HETATM   19  C   UNL     1      43.289 -13.079   6.634  1.00  0.00     0.035 A 
HETATM   20  C   UNL     1      43.277 -12.818   5.263  1.00  0.00     0.032 A 
HETATM   21  C   UNL     1      42.846 -13.796   4.359  1.00  0.00     0.039 A 
HETATM   22  C   UNL     1      42.436 -15.050   4.811  1.00  0.00     0.076 A 
HETATM   23  C   UNL     1      42.437 -15.318   6.179  1.00  0.00     0.039 A 
HETATM   24  C   UNL     1      42.869 -14.340   7.083  1.00  0.00     0.032 A 
BRANCH  22  25
HETATM   25  O   UNL     1      41.977 -15.914   3.844  1.00  0.00    -0.311 OA
BRANCH  25  26
HETATM   26  C   UNL     1      42.685 -17.068   3.615  1.00  0.00     0.076 A 
HETATM   27  C   UNL     1      42.418 -17.770   2.440  1.00  0.00     0.037 A 
HETATM   28  C   UNL     1      43.149 -18.918   2.137  1.00  0.00     0.003 A 
HETATM   29  C   UNL     1      44.155 -19.351   3.002  1.00  0.00     0.000 A 
HETATM   30  C   UNL     1      44.437 -18.632   4.165  1.00  0.00     0.003 A 
HETATM   31  C   UNL     1      43.708 -17.483   4.471  1.00  0.00     0.037 A 
ENDBRANCH  25  26
ENDBRANCH  22  25
ENDBRANCH   2  19
TORSDOF 6
ENDMDL
MODEL 3
REMARK VINA RESULT:      -8.7      2.603      9.316
REMARK  6 active torsions:
REMARK  status: ('A' for Active; 'I' for Inactive)
REMARK    1  A    between atoms: C_2  and  N_3 
REMARK    2  A    between atoms: C_2  and  C_15 
REMARK    3  A    between atoms: C_5  and  C_6 
REMARK       I    between atoms: C_15  and  N_16 
REMARK    4  A    between atoms: N_16  and  C_17 
REMARK    5  A    between atoms: C_20  and  O_21 
REMARK    6  A    between atoms: O_21  and  C_22 
ROOT
HETATM    1  C   UNL     1      41.327 -13.848   5.309  1.00  0.00     0.253 C 
HETATM    2  N   UNL     1      41.977 -12.643   5.137  1.00  0.00    -0.325 N 
HETATM    3  O   UNL     1      41.281 -14.513   6.344  1.00  0.00    -0.271 OA
HETATM    4  H   UNL     1      41.911 -12.172   4.242  1.00  0.00     0.169 HD
ENDROOT
BRANCH   1   5
HETATM    5  C   UNL     1      40.530 -14.361   4.083  1.00  0.00     0.276 C 
HETATM    6  C   UNL     1      40.129 -13.258   3.112  1.00  0.00     0.050 C 
BRANCH   5   7
HETATM    7  N   UNL     1      41.308 -15.486   3.370  1.00  0.00    -0.049 N 
HETATM    8  H   UNL     1      41.076 -16.327   3.926  1.00  0.00     0.281 HD
HETATM    9  C   UNL     1      42.822 -15.438   3.428  1.00  0.00     0.238 C 
HETATM   10  C   UNL     1      43.203 -14.857   2.066  1.00  0.00     0.041 C 
HETATM   11  C   UNL     1      42.091 -15.250   1.102  1.00  0.00     0.030 C 
HETATM   12  C   UNL     1      40.922 -15.734   1.943  1.00  0.00     0.237 C 
BRANCH   9  13
HETATM   13  C   UNL     1      43.388 -16.813   3.654  1.00  0.00     0.042 A 
HETATM   14  N   UNL     1      43.984 -17.232   4.834  1.00  0.00    -0.363 N 
HETATM   15  C   UNL     1      44.213 -16.486   6.055  1.00  0.00     0.155 C 
HETATM   16  C   UNL     1      44.370 -18.545   4.714  1.00  0.00     0.090 A 
HETATM   17  C   UNL     1      44.056 -18.981   3.453  1.00  0.00     0.019 A 
HETATM   18  C   UNL     1      43.444 -17.900   2.786  1.00  0.00     0.028 A 
ENDBRANCH   9  13
ENDBRANCH   5   7
ENDBRANCH   1   5
BRANCH   2  19
HETATM   19  C   UNL     1      42.726 -11.932   6.106  1.00  0.00     0.035 A 
HETATM   20  C   UNL     1      43.971 -12.338   6.588  1.00  0.00     0.032 A 
HETATM   21  C   UNL     1      44.629 -11.587   7.569  1.00  0.00     0.039 A 
HETATM   22  C   UNL     1      44.060 -10.417   8.070  1.00  0.00     0.076 A 
HETATM   23  C   UNL     1      42.813 -10.008   7.600  1.00  0.00     0.039 A 
HETATM   24  C   UNL     1      42.154 -10.758   6.618  1.00  0.00     0.032 A 
BRANCH  22  25
HETATM   25  O   UNL     1      44.764  -9.790   9.072  1.00  0.00    -0.311 OA
BRANCH  25  26
HETATM   26  C   UNL     1      44.153  -9.631  10.292  1.00  0.00     0.076 A 
HETATM   27  C   UNL     1      43.810  -8.336  10.681  1.00  0.00     0.037 A 
HETATM   28  C   UNL     1      43.140  -8.128  11.885  1.00  0.00     0.003 A 
HETATM   29  C   UNL     1      42.800  -9.217  12.690  1.00  0.00     0.000 A 
HETATM   30  C   UNL     1      43.123 -10.515  12.287  1.00  0.00     0.003 A 
HETATM   31  C   UNL     1      43.793 -10.725  11.081  1.00  0.00     0.037 A 
ENDBRANCH  25  26
ENDBRANCH  22  25
ENDBRANCH   2  19
TORSDOF 6
ENDMDL
MODEL 4
REMARK VINA RESULT:      -8.6      3.165      9.469
REMARK  6 active torsions:
REMARK  status: ('A' for Active; 'I' for Inactive)
REMARK    1  A    between atoms: C_2  and  N_3 
REMARK    2  A    between atoms: C_2  and  C_15 
REMARK    3  A    between atoms: C_5  and  C_6 
REMARK       I    between atoms: C_15  and  N_16 
REMARK    4  A    between atoms: N_16  and  C_17 
REMARK    5  A    between atoms: C_20  and  O_21 
REMARK    6  A    between atoms: O_21  and  C_22 
ROOT
HETATM    1  C   UNL     1      42.588 -14.763   6.345  1.00  0.00     0.253 C 
HETATM    2  N   UNL     1      42.870 -13.560   5.728  1.00  0.00    -0.325 N 
HETATM    3  O   UNL     1      42.756 -15.031   7.534  1.00  0.00    -0.271 OA
HETATM    4  H   UNL     1      42.652 -13.449   4.745  1.00  0.00     0.169 HD
ENDROOT
BRANCH   1   5
HETATM    5  C   UNL     1      41.933 -15.841   5.444  1.00  0.00     0.276 C 
HETATM    6  C   UNL     1      40.502 -16.179   5.841  1.00  0.00     0.050 C 
BRANCH   5   7
HETATM    7  N   UNL     1      42.026 -15.428   3.961  1.00  0.00    -0.049 N 
HETATM    8  H   UNL     1      41.857 -14.407   3.985  1.00  0.00     0.281 HD
HETATM    9  C   UNL     1      40.949 -15.935   3.022  1.00  0.00     0.238 C 
HETATM   10  C   UNL     1      41.624 -17.114   2.322  1.00  0.00     0.041 C 
HETATM   11  C   UNL     1      43.118 -16.816   2.320  1.00  0.00     0.030 C 
HETATM   12  C   UNL     1      43.348 -15.680   3.301  1.00  0.00     0.237 C 
BRANCH   9  13
HETATM   13  C   UNL     1      40.526 -14.853   2.066  1.00  0.00     0.042 A 
HETATM   14  N   UNL     1      40.022 -13.620   2.450  1.00  0.00    -0.363 N 
HETATM   15  C   UNL     1      39.772 -13.111   3.784  1.00  0.00     0.155 C 
HETATM   16  C   UNL     1      39.758 -12.863   1.334  1.00  0.00     0.090 A 
HETATM   17  C   UNL     1      40.059 -13.603   0.220  1.00  0.00     0.019 A 
HETATM   18  C   UNL     1      40.538 -14.849   0.674  1.00  0.00     0.028 A 
ENDBRANCH   9  13
ENDBRANCH   5   7
ENDBRANCH   1   5
BRANCH   2  19
HETATM   19  C   UNL     1      43.416 -12.401   6.331  1.00  0.00     0.035 A 
HETATM   20  C   UNL     1      44.740 -12.287   6.756  1.00  0.00     0.032 A 
HETATM   21  C   UNL     1      45.188 -11.111   7.368  1.00  0.00     0.039 A 
HETATM   22  C   UNL     1      44.324 -10.031   7.551  1.00  0.00     0.076 A 
HETATM   23  C   UNL     1      42.998 -10.138   7.136  1.00  0.00     0.039 A 
HETATM   24  C   UNL     1      42.550 -11.315   6.523  1.00  0.00     0.032 A 
BRANCH  22  25
HETATM   25  O   UNL     1      44.852  -8.948   8.216  1.00  0.00    -0.311 OA
BRANCH  25  26
HETATM   26  C   UNL     1      44.270  -8.567   9.400  1.00  0.00     0.076 A 
HETATM   27  C   UNL     1      43.488  -7.412   9.395  1.00  0.00     0.037 A 
HETATM   28  C   UNL     1      42.832  -7.015  10.559  1.00  0.00     0.003 A 
HETATM   29  C   UNL     1      42.947  -7.782  11.720  1.00  0.00     0.000 A 
HETATM   30  C   UNL     1      43.710  -8.951  11.715  1.00  0.00     0.003 A 
HETATM   31  C   UNL     1      44.367  -9.352  10.551  1.00  0.00     0.037 A 
ENDBRANCH  25  26
ENDBRANCH  22  25
ENDBRANCH   2  19
TORSDOF 6
ENDMDL
MODEL 5
REMARK VINA RESULT:      -8.5      2.420      9.341
REMARK  6 active torsions:
REMARK  status: ('A' for Active; 'I' for Inactive)
REMARK    1  A    between atoms: C_2  and  N_3 
REMARK    2  A    between atoms: C_2  and  C_15 
REMARK    3  A    between atoms: C_5  and  C_6 
REMARK       I    between atoms: C_15  and  N_16 
REMARK    4  A    between atoms: N_16  and  C_17 
REMARK    5  A    between atoms: C_20  and  O_21 
REMARK    6  A    between atoms: O_21  and  C_22 
ROOT
HETATM    1  C   UNL     1      42.202 -12.767   5.128  1.00  0.00     0.253 C 
HETATM    2  N   UNL     1      43.286 -11.920   5.244  1.00  0.00    -0.325 N 
HETATM    3  O   UNL     1      41.428 -13.089   6.029  1.00  0.00    -0.271 OA
HETATM    4  H   UNL     1      43.830 -11.701   4.417  1.00  0.00     0.169 HD
ENDROOT
BRANCH   1   5
HETATM    5  C   UNL     1      41.914 -13.297   3.700  1.00  0.00     0.276 C 
HETATM    6  C   UNL     1      42.881 -12.768   2.648  1.00  0.00     0.050 C 
BRANCH   5   7
HETATM    7  N   UNL     1      41.867 -14.838   3.700  1.00  0.00    -0.049 N 
HETATM    8  H   UNL     1      42.000 -15.082   4.697  1.00  0.00     0.281 HD
HETATM    9  C   UNL     1      42.997 -15.575   3.010  1.00  0.00     0.238 C 
HETATM   10  C   UNL     1      42.391 -15.955   1.659  1.00  0.00     0.041 C 
HETATM   11  C   UNL     1      40.889 -16.080   1.880  1.00  0.00     0.030 C 
HETATM   12  C   UNL     1      40.582 -15.445   3.225  1.00  0.00     0.237 C 
BRANCH   9  13
HETATM   13  C   UNL     1      43.421 -16.773   3.816  1.00  0.00     0.042 A 
HETATM   14  N   UNL     1      43.804 -16.726   5.148  1.00  0.00    -0.363 N 
HETATM   15  C   UNL     1      43.907 -15.580   6.028  1.00  0.00     0.155 C 
HETATM   16  C   UNL     1      44.105 -17.994   5.584  1.00  0.00     0.090 A 
HETATM   17  C   UNL     1      43.949 -18.867   4.539  1.00  0.00     0.019 A 
HETATM   18  C   UNL     1      43.523 -18.107   3.431  1.00  0.00     0.028 A 
ENDBRANCH   9  13
ENDBRANCH   5   7
ENDBRANCH   1   5
BRANCH   2  19
HETATM   19  C   UNL     1      43.732 -11.262   6.415  1.00  0.00     0.035 A 
HETATM   20  C   UNL     1      44.945 -11.527   7.052  1.00  0.00     0.032 A 
HETATM   21  C   UNL     1      45.293 -10.846   8.224  1.00  0.00     0.039 A 
HETATM   22  C   UNL     1      44.443  -9.883   8.766  1.00  0.00     0.076 A 
HETATM   23  C   UNL     1      43.226  -9.616   8.141  1.00  0.00     0.039 A 
HETATM   24  C   UNL     1      42.878 -10.297   6.968  1.00  0.00     0.032 A 
BRANCH  22  25
HETATM   25  O   UNL     1      44.856  -9.319   9.951  1.00  0.00    -0.311 OA
BRANCH  25  26
HETATM   26  C   UNL     1      44.001  -9.365  11.025  1.00  0.00     0.076 A 
HETATM   27  C   UNL     1      43.646 -10.621  11.517  1.00  0.00     0.037 A 
HETATM   28  C   UNL     1      42.824 -10.720  12.639  1.00  0.00     0.003 A 
HETATM   29  C   UNL     1      42.374  -9.562  13.275  1.00  0.00     0.000 A 
HETATM   30  C   UNL     1      42.752  -8.306  12.796  1.00  0.00     0.003 A 
HETATM   31  C   UNL     1      43.574  -8.205  11.674  1.00  0.00     0.037 A 
ENDBRANCH  25  26
ENDBRANCH  22  25
ENDBRANCH   2  19
TORSDOF 6
ENDMDL
MODEL 6
REMARK VINA RESULT:      -8.5      6.541      8.863
REMARK  6 active torsions:
REMARK  status: ('A' for Active; 'I' for Inactive)
REMARK    1  A    between atoms: C_2  and  N_3 
REMARK    2  A    between atoms: C_2  and  C_15 
REMARK    3  A    between atoms: C_5  and  C_6 
REMARK       I    between atoms: C_15  and  N_16 
REMARK    4  A    between atoms: N_16  and  C_17 
REMARK    5  A    between atoms: C_20  and  O_21 
REMARK    6  A    between atoms: O_21  and  C_22 
ROOT
HETATM    1  C   UNL     1      39.786 -12.872   1.522  1.00  0.00     0.253 C 
HETATM    2  N   UNL     1      39.827 -14.245   1.655  1.00  0.00    -0.325 N 
HETATM    3  O   UNL     1      40.643 -12.075   1.902  1.00  0.00    -0.271 OA
HETATM    4  H   UNL     1      39.072 -14.800   1.266  1.00  0.00     0.169 HD
ENDROOT
BRANCH   1   5
HETATM    5  C   UNL     1      38.562 -12.308   0.756  1.00  0.00     0.276 C 
HETATM    6  C   UNL     1      37.943 -11.082   1.416  1.00  0.00     0.050 C 
BRANCH   5   7
HETATM    7  N   UNL     1      38.930 -12.032  -0.715  1.00  0.00    -0.049 N 
HETATM    8  H   UNL     1      39.934 -11.786  -0.668  1.00  0.00     0.281 HD
HETATM    9  C   UNL     1      38.306 -10.822  -1.380  1.00  0.00     0.238 C 
HETATM   10  C   UNL     1      37.163 -11.424  -2.197  1.00  0.00     0.041 C 
HETATM   11  C   UNL     1      37.581 -12.848  -2.539  1.00  0.00     0.030 C 
HETATM   12  C   UNL     1      38.765 -13.191  -1.651  1.00  0.00     0.237 C 
BRANCH   9  13
HETATM   13  C   UNL     1      39.318 -10.104  -2.233  1.00  0.00     0.042 A 
HETATM   14  N   UNL     1      40.400  -9.395  -1.737  1.00  0.00    -0.363 N 
HETATM   15  C   UNL     1      40.786  -9.164  -0.359  1.00  0.00     0.155 C 
HETATM   16  C   UNL     1      41.134  -8.885  -2.781  1.00  0.00     0.090 A 
HETATM   17  C   UNL     1      40.523  -9.233  -3.957  1.00  0.00     0.019 A 
HETATM   18  C   UNL     1      39.386  -9.994  -3.619  1.00  0.00     0.028 A 
ENDBRANCH   9  13
ENDBRANCH   5   7
ENDBRANCH   1   5
BRANCH   2  19
HETATM   19  C   UNL     1      40.851 -15.013   2.260  1.00  0.00     0.035 A 
HETATM   20  C   UNL     1      40.739 -15.628   3.508  1.00  0.00     0.032 A 
HETATM   21  C   UNL     1      41.814 -16.346   4.042  1.00  0.00     0.039 A 
HETATM   22  C   UNL     1      43.009 -16.470   3.333  1.00  0.00     0.076 A 
HETATM   23  C   UNL     1      43.133 -15.853   2.089  1.00  0.00     0.039 A 
HETATM   24  C   UNL     1      42.056 -15.135   1.554  1.00  0.00     0.032 A 
BRANCH  22  25
HETATM   25  O   UNL     1      44.019 -17.146   3.977  1.00  0.00    -0.311 OA
BRANCH  25  26
HETATM   26  C   UNL     1      44.001 -18.519   3.951  1.00  0.00     0.076 A 
HETATM   27  C   UNL     1      44.092 -19.192   5.170  1.00  0.00     0.037 A 
HETATM   28  C   UNL     1      44.023 -20.584   5.200  1.00  0.00     0.003 A 
HETATM   29  C   UNL     1      43.848 -21.298   4.013  1.00  0.00     0.000 A 
HETATM   30  C   UNL     1      43.733 -20.621   2.798  1.00  0.00     0.003 A 
HETATM   31  C   UNL     1      43.800 -19.228   2.765  1.00  0.00     0.037 A 
ENDBRANCH  25  26
ENDBRANCH  22  25
ENDBRANCH   2  19
TORSDOF 6
ENDMDL
MODEL 7
REMARK VINA RESULT:      -8.0      6.219      9.317
REMARK  6 active torsions:
REMARK  status: ('A' for Active; 'I' for Inactive)
REMARK    1  A    between atoms: C_2  and  N_3 
REMARK    2  A    between atoms: C_2  and  C_15 
REMARK    3  A    between atoms: C_5  and  C_6 
REMARK       I    between atoms: C_15  and  N_16 
REMARK    4  A    between atoms: N_16  and  C_17 
REMARK    5  A    between atoms: C_20  and  O_21 
REMARK    6  A    between atoms: O_21  and  C_22 
ROOT
HETATM    1  C   UNL     1      41.438 -13.248   3.582  1.00  0.00     0.253 C 
HETATM    2  N   UNL     1      40.217 -13.567   3.022  1.00  0.00    -0.325 N 
HETATM    3  O   UNL     1      42.401 -12.750   2.999  1.00  0.00    -0.271 OA
HETATM    4  H   UNL     1      39.486 -13.941   3.617  1.00  0.00     0.169 HD
ENDROOT
BRANCH   1   5
HETATM    5  C   UNL     1      41.560 -13.490   5.108  1.00  0.00     0.276 C 
HETATM    6  C   UNL     1      40.224 -13.752   5.791  1.00  0.00     0.050 C 
BRANCH   5   7
HETATM    7  N   UNL     1      42.572 -14.618   5.393  1.00  0.00    -0.049 N 
HETATM    8  H   UNL     1      43.112 -14.683   4.512  1.00  0.00     0.281 HD
HETATM    9  C   UNL     1      42.027 -16.021   5.571  1.00  0.00     0.238 C 
HETATM   10  C   UNL     1      42.010 -16.197   7.090  1.00  0.00     0.041 C 
HETATM   11  C   UNL     1      43.114 -15.302   7.640  1.00  0.00     0.030 C 
HETATM   12  C   UNL     1      43.524 -14.361   6.521  1.00  0.00     0.237 C 
BRANCH   9  13
HETATM   13  C   UNL     1      42.908 -17.024   4.878  1.00  0.00     0.042 A 
HETATM   14  N   UNL     1      42.826 -17.341   3.531  1.00  0.00    -0.363 N 
HETATM   15  C   UNL     1      41.913 -16.833   2.527  1.00  0.00     0.155 C 
HETATM   16  C   UNL     1      43.786 -18.273   3.218  1.00  0.00     0.090 A 
HETATM   17  C   UNL     1      44.478 -18.590   4.358  1.00  0.00     0.019 A 
HETATM   18  C   UNL     1      43.931 -17.812   5.399  1.00  0.00     0.028 A 
ENDBRANCH   9  13
ENDBRANCH   5   7
ENDBRANCH   1   5
BRANCH   2  19
HETATM   19  C   UNL     1      39.827 -13.396   1.672  1.00  0.00     0.035 A 
HETATM   20  C   UNL     1      40.126 -14.297   0.648  1.00  0.00     0.032 A 
HETATM   21  C   UNL     1      39.725 -14.033  -0.666  1.00  0.00     0.039 A 
HETATM   22  C   UNL     1      39.008 -12.876  -0.972  1.00  0.00     0.076 A 
HETATM   23  C   UNL     1      38.711 -11.967   0.042  1.00  0.00     0.039 A 
HETATM   24  C   UNL     1      39.112 -12.231   1.358  1.00  0.00     0.032 A 
BRANCH  22  25
HETATM   25  O   UNL     1      38.716 -12.688  -2.304  1.00  0.00    -0.311 OA
BRANCH  25  26
HETATM   26  C   UNL     1      39.136 -11.526  -2.902  1.00  0.00     0.076 A 
HETATM   27  C   UNL     1      38.164 -10.588  -3.250  1.00  0.00     0.037 A 
HETATM   28  C   UNL     1      38.545  -9.370  -3.810  1.00  0.00     0.003 A 
HETATM   29  C   UNL     1      39.897  -9.086  -4.006  1.00  0.00     0.000 A 
HETATM   30  C   UNL     1      40.870 -10.016  -3.634  1.00  0.00     0.003 A 
HETATM   31  C   UNL     1      40.491 -11.236  -3.073  1.00  0.00     0.037 A 
ENDBRANCH  25  26
ENDBRANCH  22  25
ENDBRANCH   2  19
TORSDOF 6
ENDMDL
MODEL 8
REMARK VINA RESULT:      -7.5      2.358      3.790
REMARK  6 active torsions:
REMARK  status: ('A' for Active; 'I' for Inactive)
REMARK    1  A    between atoms: C_2  and  N_3 
REMARK    2  A    between atoms: C_2  and  C_15 
REMARK    3  A    between atoms: C_5  and  C_6 
REMARK       I    between atoms: C_15  and  N_16 
REMARK    4  A    between atoms: N_16  and  C_17 
REMARK    5  A    between atoms: C_20  and  O_21 
REMARK    6  A    between atoms: O_21  and  C_22 
ROOT
HETATM    1  C   UNL     1      42.359  -9.767   7.239  1.00  0.00     0.253 C 
HETATM    2  N   UNL     1      41.419 -10.097   6.283  1.00  0.00    -0.325 N 
HETATM    3  O   UNL     1      43.228 -10.508   7.695  1.00  0.00    -0.271 OA
HETATM    4  H   UNL     1      40.775  -9.384   5.960  1.00  0.00     0.169 HD
ENDROOT
BRANCH   1   5
HETATM    5  C   UNL     1      42.339  -8.293   7.718  1.00  0.00     0.276 C 
HETATM    6  C   UNL     1      41.861  -7.313   6.653  1.00  0.00     0.050 C 
BRANCH   5   7
HETATM    7  N   UNL     1      41.516  -8.162   9.015  1.00  0.00    -0.049 N 
HETATM    8  H   UNL     1      42.238  -8.017   9.743  1.00  0.00     0.281 HD
HETATM    9  C   UNL     1      40.774  -9.391   9.503  1.00  0.00     0.238 C 
HETATM   10  C   UNL     1      39.339  -9.137   9.041  1.00  0.00     0.041 C 
HETATM   11  C   UNL     1      39.166  -7.624   8.983  1.00  0.00     0.030 C 
HETATM   12  C   UNL     1      40.555  -7.013   9.058  1.00  0.00     0.237 C 
BRANCH   9  13
HETATM   13  C   UNL     1      40.891  -9.523  10.997  1.00  0.00     0.042 A 
HETATM   14  N   UNL     1      42.047  -9.899  11.663  1.00  0.00    -0.363 N 
HETATM   15  C   UNL     1      43.341 -10.256  11.116  1.00  0.00     0.155 C 
HETATM   16  C   UNL     1      41.818  -9.898  13.018  1.00  0.00     0.090 A 
HETATM   17  C   UNL     1      40.511  -9.552  13.242  1.00  0.00     0.019 A 
HETATM   18  C   UNL     1      39.927  -9.318  11.981  1.00  0.00     0.028 A 
ENDBRANCH   9  13
ENDBRANCH   5   7
ENDBRANCH   1   5
BRANCH   2  19
HETATM   19  C   UNL     1      41.257 -11.350   5.645  1.00  0.00     0.035 A 
HETATM   20  C   UNL     1      42.023 -11.785   4.562  1.00  0.00     0.032 A 
HETATM   21  C   UNL     1      41.775 -13.030   3.974  1.00  0.00     0.039 A 
HETATM   22  C   UNL     1      40.769 -13.862   4.467  1.00  0.00     0.076 A 
HETATM   23  C   UNL     1      39.993 -13.433   5.543  1.00  0.00     0.039 A 
HETATM   24  C   UNL     1      40.242 -12.187   6.132  1.00  0.00     0.032 A 
BRANCH  22  25
HETATM   25  O   UNL     1      40.572 -15.036   3.777  1.00  0.00    -0.311 OA
BRANCH  25  26
HETATM   26  C   UNL     1      41.612 -15.930   3.707  1.00  0.00     0.076 A 
HETATM   27  C   UNL     1      42.154 -16.388   4.908  1.00  0.00     0.037 A 
HETATM   28  C   UNL     1      43.174 -17.338   4.890  1.00  0.00     0.003 A 
HETATM   29  C   UNL     1      43.638 -17.839   3.672  1.00  0.00     0.000 A 
HETATM   30  C   UNL     1      43.076 -17.397   2.473  1.00  0.00     0.003 A 
HETATM   31  C   UNL     1      42.054 -16.447   2.488  1.00  0.00     0.037 A 
ENDBRANCH  25  26
ENDBRANCH  22  25
ENDBRANCH   2  19
TORSDOF 6
ENDMDL
MODEL 9
REMARK VINA RESULT:      -7.4      3.893      9.232
REMARK  6 active torsions:
REMARK  status: ('A' for Active; 'I' for Inactive)
REMARK    1  A    between atoms: C_2  and  N_3 
REMARK    2  A    between atoms: C_2  and  C_15 
REMARK    3  A    between atoms: C_5  and  C_6 
REMARK       I    between atoms: C_15  and  N_16 
REMARK    4  A    between atoms: N_16  and  C_17 
REMARK    5  A    between atoms: C_20  and  O_21 
REMARK    6  A    between atoms: O_21  and  C_22 
ROOT
HETATM    1  C   UNL     1      43.363 -12.605   3.541  1.00  0.00     0.253 C 
HETATM    2  N   UNL     1      43.341 -12.852   4.899  1.00  0.00    -0.325 N 
HETATM    3  O   UNL     1      43.634 -11.536   2.997  1.00  0.00    -0.271 OA
HETATM    4  H   UNL     1      43.138 -13.789   5.226  1.00  0.00     0.169 HD
ENDROOT
BRANCH   1   5
HETATM    5  C   UNL     1      43.080 -13.829   2.633  1.00  0.00     0.276 C 
HETATM    6  C   UNL     1      42.981 -15.144   3.397  1.00  0.00     0.050 C 
BRANCH   5   7
HETATM    7  N   UNL     1      41.825 -13.580   1.773  1.00  0.00    -0.049 N 
HETATM    8  H   UNL     1      42.132 -12.850   1.107  1.00  0.00     0.281 HD
HETATM    9  C   UNL     1      40.625 -12.948   2.450  1.00  0.00     0.238 C 
HETATM   10  C   UNL     1      39.711 -14.142   2.723  1.00  0.00     0.041 C 
HETATM   11  C   UNL     1      40.026 -15.180   1.654  1.00  0.00     0.030 C 
HETATM   12  C   UNL     1      41.329 -14.761   0.996  1.00  0.00     0.237 C 
BRANCH   9  13
HETATM   13  C   UNL     1      39.989 -11.920   1.553  1.00  0.00     0.042 A 
HETATM   14  N   UNL     1      40.001 -10.555   1.792  1.00  0.00    -0.363 N 
HETATM   15  C   UNL     1      40.573  -9.829   2.908  1.00  0.00     0.155 C 
HETATM   16  C   UNL     1      39.355  -9.903   0.769  1.00  0.00     0.090 A 
HETATM   17  C   UNL     1      38.895 -10.835  -0.124  1.00  0.00     0.019 A 
HETATM   18  C   UNL     1      39.288 -12.099   0.363  1.00  0.00     0.028 A 
ENDBRANCH   9  13
ENDBRANCH   5   7
ENDBRANCH   1   5
BRANCH   2  19
HETATM   19  C   UNL     1      43.615 -11.929   5.937  1.00  0.00     0.035 A 
HETATM   20  C   UNL     1      42.716 -10.958   6.383  1.00  0.00     0.032 A 
HETATM   21  C   UNL     1      43.082 -10.067   7.398  1.00  0.00     0.039 A 
HETATM   22  C   UNL     1      44.342 -10.142   7.990  1.00  0.00     0.076 A 
HETATM   23  C   UNL     1      45.250 -11.103   7.547  1.00  0.00     0.039 A 
HETATM   24  C   UNL     1      44.883 -11.996   6.532  1.00  0.00     0.032 A 
BRANCH  22  25
HETATM   25  O   UNL     1      44.618  -9.181   8.935  1.00  0.00    -0.311 OA
BRANCH  25  26
HETATM   26  C   UNL     1      44.025  -9.295  10.169  1.00  0.00     0.076 A 
HETATM   27  C   UNL     1      43.407  -8.162  10.697  1.00  0.00     0.037 A 
HETATM   28  C   UNL     1      42.744  -8.242  11.921  1.00  0.00     0.003 A 
HETATM   29  C   UNL     1      42.689  -9.457  12.605  1.00  0.00     0.000 A 
HETATM   30  C   UNL     1      43.287 -10.596  12.061  1.00  0.00     0.003 A 
HETATM   31  C   UNL     1      43.950 -10.519  10.836  1.00  0.00     0.037 A 
ENDBRANCH  25  26
ENDBRANCH  22  25
ENDBRANCH   2  19
TORSDOF 6
ENDMDL
MODEL 10
REMARK VINA RESULT:      -7.4      6.526      9.304
REMARK  6 active torsions:
REMARK  status: ('A' for Active; 'I' for Inactive)
REMARK    1  A    between atoms: C_2  and  N_3 
REMARK    2  A    between atoms: C_2  and  C_15 
REMARK    3  A    between atoms: C_5  and  C_6 
REMARK       I    between atoms: C_15  and  N_16 
REMARK    4  A    between atoms: N_16  and  C_17 
REMARK    5  A    between atoms: C_20  and  O_21 
REMARK    6  A    between atoms: O_21  and  C_22 
ROOT
HETATM    1  C   UNL     1      40.272 -14.845   2.390  1.00  0.00     0.253 C 
HETATM    2  N   UNL     1      40.745 -14.933   1.096  1.00  0.00    -0.325 N 
HETATM    3  O   UNL     1      39.418 -14.062   2.803  1.00  0.00    -0.271 OA
HETATM    4  H   UNL     1      41.427 -15.648   0.869  1.00  0.00     0.169 HD
ENDROOT
BRANCH   1   5
HETATM    5  C   UNL     1      40.839 -15.890   3.384  1.00  0.00     0.276 C 
HETATM    6  C   UNL     1      41.901 -16.797   2.774  1.00  0.00     0.050 C 
BRANCH   5   7
HETATM    7  N   UNL     1      41.358 -15.191   4.657  1.00  0.00    -0.049 N 
HETATM    8  H   UNL     1      41.113 -14.198   4.502  1.00  0.00     0.281 HD
HETATM    9  C   UNL     1      42.857 -15.150   4.875  1.00  0.00     0.238 C 
HETATM   10  C   UNL     1      43.094 -16.278   5.879  1.00  0.00     0.041 C 
HETATM   11  C   UNL     1      41.809 -16.415   6.685  1.00  0.00     0.030 C 
HETATM   12  C   UNL     1      40.732 -15.643   5.942  1.00  0.00     0.237 C 
BRANCH   9  13
HETATM   13  C   UNL     1      43.281 -13.804   5.398  1.00  0.00     0.042 A 
HETATM   14  N   UNL     1      43.351 -12.651   4.632  1.00  0.00    -0.363 N 
HETATM   15  C   UNL     1      43.074 -12.475   3.220  1.00  0.00     0.155 C 
HETATM   16  C   UNL     1      43.749 -11.598   5.420  1.00  0.00     0.090 A 
HETATM   17  C   UNL     1      43.967 -12.060   6.692  1.00  0.00     0.019 A 
HETATM   18  C   UNL     1      43.677 -13.440   6.682  1.00  0.00     0.028 A 
ENDBRANCH   9  13
ENDBRANCH   5   7
ENDBRANCH   1   5
BRANCH   2  19
HETATM   19  C   UNL     1      40.355 -14.140  -0.010  1.00  0.00     0.035 A 
HETATM   20  C   UNL     1      39.530 -14.587  -1.044  1.00  0.00     0.032 A 
HETATM   21  C   UNL     1      39.218 -13.742  -2.115  1.00  0.00     0.039 A 
HETATM   22  C   UNL     1      39.712 -12.438  -2.160  1.00  0.00     0.076 A 
HETATM   23  C   UNL     1      40.543 -11.986  -1.136  1.00  0.00     0.039 A 
HETATM   24  C   UNL     1      40.855 -12.831  -0.064  1.00  0.00     0.032 A 
BRANCH  22  25
HETATM   25  O   UNL     1      39.392 -11.715  -3.286  1.00  0.00    -0.311 OA
BRANCH  25  26
HETATM   26  C   UNL     1      39.635 -10.364  -3.281  1.00  0.00     0.076 A 
HETATM   27  C   UNL     1      40.844  -9.921  -3.817  1.00  0.00     0.037 A 
HETATM   28  C   UNL     1      41.113  -8.554  -3.884  1.00  0.00     0.003 A 
HETATM   29  C   UNL     1      40.166  -7.635  -3.429  1.00  0.00     0.000 A 
HETATM   30  C   UNL     1      38.947  -8.081  -2.915  1.00  0.00     0.003 A 
HETATM   31  C   UNL     1      38.674  -9.447  -2.848  1.00  0.00     0.037 A 
ENDBRANCH  25  26
ENDBRANCH  22  25
ENDBRANCH   2  19
TORSDOF 6
ENDMDL
