MODEL 1
REMARK VINA RESULT:      -9.8      0.000      0.000
REMARK  5 active torsions:
REMARK  status: ('A' for Active; 'I' for Inactive)
REMARK    1  A    between atoms: C_3  and  C_4 
REMARK    2  A    between atoms: C_9  and  C_10 
REMARK    3  A    between atoms: C_10  and  C_11 
REMARK       I    between atoms: C_11  and  N_12 
REMARK    4  A    between atoms: N_12  and  C_13 
REMARK    5  A    between atoms: C_20  and  C_21 
REMARK       I    between atoms: C_21  and  N_22 
ROOT
HETATM    1  C   UNL     1      40.721 -13.418   0.313  1.00  0.00     0.035 A 
HETATM    2  C   UNL     1      40.103 -14.055  -0.771  1.00  0.00     0.046 A 
HETATM    3  C   UNL     1      38.956 -13.478  -1.362  1.00  0.00     0.030 A 
HETATM    4  C   UNL     1      38.464 -12.286  -0.845  1.00  0.00     0.063 A 
HETATM    5  N   UNL     1      37.374 -11.981  -1.611  1.00  0.00    -0.277 N 
HETATM    6  H   UNL     1      36.766 -11.175  -1.521  1.00  0.00     0.189 HD
HETATM    7  N   UNL     1      37.112 -12.868  -2.585  1.00  0.00    -0.168 NA
HETATM    8  C   UNL     1      38.083 -13.800  -2.445  1.00  0.00     0.156 A 
HETATM    9  C   UNL     1      39.050 -11.625   0.236  1.00  0.00     0.034 A 
HETATM   10  C   UNL     1      40.189 -12.215   0.801  1.00  0.00     0.032 A 
ENDROOT
BRANCH   1  11
HETATM   11  N   UNL     1      41.891 -13.899   0.943  1.00  0.00    -0.327 N 
HETATM   12  C   UNL     1      41.974 -14.846   1.952  1.00  0.00     0.226 C 
HETATM   13  O   UNL     1      41.033 -15.337   2.567  1.00  0.00    -0.273 OA
HETATM   14  H   UNL     1      42.763 -13.485   0.639  1.00  0.00     0.169 HD
BRANCH  12  15
HETATM   15  C   UNL     1      43.405 -15.256   2.268  1.00  0.00     0.141 C 
BRANCH  15  16
HETATM   16  C   UNL     1      43.557 -16.510   3.098  1.00  0.00    -0.049 A 
HETATM   17  C   UNL     1      43.506 -17.760   2.457  1.00  0.00     0.023 A 
HETATM   18  C   UNL     1      43.564 -18.960   3.187  1.00  0.00     0.048 A 
HETATM   19  C   UNL     1      43.684 -18.899   4.581  1.00  0.00     0.016 A 
HETATM   20  C   UNL     1      43.722 -17.666   5.231  1.00  0.00     0.001 A 
HETATM   21  C   UNL     1      43.647 -16.480   4.496  1.00  0.00     0.007 A 
BRANCH  18  22
HETATM   22  C   UNL     1      43.503 -20.285   2.468  1.00  0.00     0.417 C 
HETATM   23  F   UNL     1      43.699 -21.360   3.281  1.00  0.00    -0.166 F 
HETATM   24  F   UNL     1      42.303 -20.496   1.856  1.00  0.00    -0.166 F 
HETATM   25  F   UNL     1      44.441 -20.383   1.485  1.00  0.00    -0.166 F 
ENDBRANCH  18  22
ENDBRANCH  15  16
ENDBRANCH  12  15
ENDBRANCH   1  11
BRANCH   8  26
HETATM   26  C   UNL     1      38.157 -14.962  -3.342  1.00  0.00     0.270 C 
HETATM   27  N   UNL     1      38.242 -16.164  -2.693  1.00  0.00    -0.365 N 
HETATM   28  H   UNL     1      38.243 -16.171  -1.681  1.00  0.00     0.159 HD
HETATM   29  H   UNL     1      38.292 -17.017  -3.228  1.00  0.00     0.159 HD
HETATM   30  O   UNL     1      38.144 -14.903  -4.567  1.00  0.00    -0.266 OA
ENDBRANCH   8  26
TORSDOF 5
ENDMDL
MODEL 2
REMARK VINA RESULT:      -9.1      1.704      2.263
REMARK  5 active torsions:
REMARK  status: ('A' for Active; 'I' for Inactive)
REMARK    1  A    between atoms: C_3  and  C_4 
REMARK    2  A    between atoms: C_9  and  C_10 
REMARK    3  A    between atoms: C_10  and  C_11 
REMARK       I    between atoms: C_11  and  N_12 
REMARK    4  A    between atoms: N_12  and  C_13 
REMARK    5  A    between atoms: C_20  and  C_21 
REMARK       I    between atoms: C_21  and  N_22 
ROOT
HETATM    1  C   UNL     1      40.510 -14.257   2.006  1.00  0.00     0.035 A 
HETATM    2  C   UNL     1      40.282 -14.452   0.637  1.00  0.00     0.046 A 
HETATM    3  C   UNL     1      39.405 -13.587  -0.056  1.00  0.00     0.030 A 
HETATM    4  C   UNL     1      38.783 -12.561   0.644  1.00  0.00     0.063 A 
HETATM    5  N   UNL     1      38.015 -11.907  -0.278  1.00  0.00    -0.277 N 
HETATM    6  H   UNL     1      37.422 -11.100  -0.122  1.00  0.00     0.189 HD
HETATM    7  N   UNL     1      38.083 -12.414  -1.520  1.00  0.00    -0.168 NA
HETATM    8  C   UNL     1      38.940 -13.454  -1.400  1.00  0.00     0.156 A 
HETATM    9  C   UNL     1      38.983 -12.339   2.008  1.00  0.00     0.034 A 
HETATM   10  C   UNL     1      39.861 -13.207   2.671  1.00  0.00     0.032 A 
ENDROOT
BRANCH   1  11
HETATM   11  N   UNL     1      41.397 -15.045   2.774  1.00  0.00    -0.327 N 
HETATM   12  C   UNL     1      42.750 -14.830   2.979  1.00  0.00     0.226 C 
HETATM   13  O   UNL     1      43.445 -13.987   2.421  1.00  0.00    -0.273 OA
HETATM   14  H   UNL     1      41.001 -15.874   3.199  1.00  0.00     0.169 HD
BRANCH  12  15
HETATM   15  C   UNL     1      43.355 -15.776   4.007  1.00  0.00     0.141 C 
BRANCH  15  16
HETATM   16  C   UNL     1      43.405 -17.233   3.604  1.00  0.00    -0.049 A 
HETATM   17  C   UNL     1      43.637 -18.203   4.594  1.00  0.00     0.023 A 
HETATM   18  C   UNL     1      43.771 -19.564   4.269  1.00  0.00     0.048 A 
HETATM   19  C   UNL     1      43.661 -19.953   2.927  1.00  0.00     0.016 A 
HETATM   20  C   UNL     1      43.444 -18.998   1.934  1.00  0.00     0.001 A 
HETATM   21  C   UNL     1      43.328 -17.647   2.269  1.00  0.00     0.007 A 
BRANCH  18  22
HETATM   22  C   UNL     1      44.024 -20.579   5.355  1.00  0.00     0.417 C 
HETATM   23  F   UNL     1      43.769 -20.115   6.610  1.00  0.00    -0.166 F 
HETATM   24  F   UNL     1      43.263 -21.701   5.213  1.00  0.00    -0.166 F 
HETATM   25  F   UNL     1      45.317 -21.009   5.371  1.00  0.00    -0.166 F 
ENDBRANCH  18  22
ENDBRANCH  15  16
ENDBRANCH  12  15
ENDBRANCH   1  11
BRANCH   8  26
HETATM   26  C   UNL     1      39.295 -14.284  -2.559  1.00  0.00     0.270 C 
HETATM   27  N   UNL     1      38.511 -15.397  -2.710  1.00  0.00    -0.365 N 
HETATM   28  H   UNL     1      37.768 -15.562  -2.043  1.00  0.00     0.159 HD
HETATM   29  H   UNL     1      38.680 -16.023  -3.481  1.00  0.00     0.159 HD
HETATM   30  O   UNL     1      40.203 -14.037  -3.346  1.00  0.00    -0.266 OA
ENDBRANCH   8  26
TORSDOF 5
ENDMDL
MODEL 3
REMARK VINA RESULT:      -8.9      6.110      8.945
REMARK  5 active torsions:
REMARK  status: ('A' for Active; 'I' for Inactive)
REMARK    1  A    between atoms: C_3  and  C_4 
REMARK    2  A    between atoms: C_9  and  C_10 
REMARK    3  A    between atoms: C_10  and  C_11 
REMARK       I    between atoms: C_11  and  N_12 
REMARK    4  A    between atoms: N_12  and  C_13 
REMARK    5  A    between atoms: C_20  and  C_21 
REMARK       I    between atoms: C_21  and  N_22 
ROOT
HETATM    1  C   UNL     1      43.838 -12.261   7.139  1.00  0.00     0.035 A 
HETATM    2  C   UNL     1      43.587 -11.128   7.926  1.00  0.00     0.046 A 
HETATM    3  C   UNL     1      44.556 -10.103   8.008  1.00  0.00     0.030 A 
HETATM    4  C   UNL     1      45.745 -10.248   7.305  1.00  0.00     0.063 A 
HETATM    5  N   UNL     1      46.465  -9.117   7.574  1.00  0.00    -0.277 N 
HETATM    6  H   UNL     1      47.387  -8.879   7.225  1.00  0.00     0.189 HD
HETATM    7  N   UNL     1      45.849  -8.245   8.388  1.00  0.00    -0.168 NA
HETATM    8  C   UNL     1      44.665  -8.840   8.665  1.00  0.00     0.156 A 
HETATM    9  C   UNL     1      46.033 -11.363   6.516  1.00  0.00     0.034 A 
HETATM   10  C   UNL     1      45.053 -12.363   6.447  1.00  0.00     0.032 A 
ENDROOT
BRANCH   1  11
HETATM   11  N   UNL     1      42.916 -13.317   6.967  1.00  0.00    -0.327 N 
HETATM   12  C   UNL     1      41.921 -13.416   6.007  1.00  0.00     0.226 C 
HETATM   13  O   UNL     1      41.582 -12.540   5.218  1.00  0.00    -0.273 OA
HETATM   14  H   UNL     1      42.973 -14.073   7.638  1.00  0.00     0.169 HD
BRANCH  12  15
HETATM   15  C   UNL     1      41.230 -14.772   6.002  1.00  0.00     0.141 C 
BRANCH  15  16
HETATM   16  C   UNL     1      42.133 -15.965   5.786  1.00  0.00    -0.049 A 
HETATM   17  C   UNL     1      42.431 -16.362   4.470  1.00  0.00     0.023 A 
HETATM   18  C   UNL     1      43.200 -17.509   4.208  1.00  0.00     0.048 A 
HETATM   19  C   UNL     1      43.684 -18.261   5.287  1.00  0.00     0.016 A 
HETATM   20  C   UNL     1      43.385 -17.886   6.596  1.00  0.00     0.001 A 
HETATM   21  C   UNL     1      42.605 -16.753   6.843  1.00  0.00     0.007 A 
BRANCH  18  22
HETATM   22  C   UNL     1      43.498 -17.909   2.785  1.00  0.00     0.417 C 
HETATM   23  F   UNL     1      43.704 -16.853   1.949  1.00  0.00    -0.166 F 
HETATM   24  F   UNL     1      44.613 -18.687   2.680  1.00  0.00    -0.166 F 
HETATM   25  F   UNL     1      42.487 -18.634   2.229  1.00  0.00    -0.166 F 
ENDBRANCH  18  22
ENDBRANCH  15  16
ENDBRANCH  12  15
ENDBRANCH   1  11
BRANCH   8  26
HETATM   26  C   UNL     1      43.675  -8.194   9.538  1.00  0.00     0.270 C 
HETATM   27  N   UNL     1      43.561  -8.768  10.775  1.00  0.00    -0.365 N 
HETATM   28  H   UNL     1      44.146  -9.564  10.997  1.00  0.00     0.159 HD
HETATM   29  H   UNL     1      42.908  -8.388  11.442  1.00  0.00     0.159 HD
HETATM   30  O   UNL     1      42.994  -7.223   9.225  1.00  0.00    -0.266 OA
ENDBRANCH   8  26
TORSDOF 5
ENDMDL
MODEL 4
REMARK VINA RESULT:      -8.9      4.514      7.131
REMARK  5 active torsions:
REMARK  status: ('A' for Active; 'I' for Inactive)
REMARK    1  A    between atoms: C_3  and  C_4 
REMARK    2  A    between atoms: C_9  and  C_10 
REMARK    3  A    between atoms: C_10  and  C_11 
REMARK       I    between atoms: C_11  and  N_12 
REMARK    4  A    between atoms: N_12  and  C_13 
REMARK    5  A    between atoms: C_20  and  C_21 
REMARK       I    between atoms: C_21  and  N_22 
ROOT
HETATM    1  C   UNL     1      41.692 -12.476   4.854  1.00  0.00     0.035 A 
HETATM    2  C   UNL     1      42.829 -12.163   5.612  1.00  0.00     0.046 A 
HETATM    3  C   UNL     1      42.855 -10.975   6.377  1.00  0.00     0.030 A 
HETATM    4  C   UNL     1      41.747 -10.138   6.352  1.00  0.00     0.063 A 
HETATM    5  N   UNL     1      42.064  -9.092   7.175  1.00  0.00    -0.277 N 
HETATM    6  H   UNL     1      41.486  -8.289   7.398  1.00  0.00     0.189 HD
HETATM    7  N   UNL     1      43.281  -9.175   7.736  1.00  0.00    -0.168 NA
HETATM    8  C   UNL     1      43.784 -10.335   7.253  1.00  0.00     0.156 A 
HETATM    9  C   UNL     1      40.599 -10.414   5.607  1.00  0.00     0.034 A 
HETATM   10  C   UNL     1      40.596 -11.601   4.861  1.00  0.00     0.032 A 
ENDROOT
BRANCH   1  11
HETATM   11  N   UNL     1      41.559 -13.657   4.091  1.00  0.00    -0.327 N 
HETATM   12  C   UNL     1      42.376 -14.086   3.056  1.00  0.00     0.226 C 
HETATM   13  O   UNL     1      43.283 -13.446   2.534  1.00  0.00    -0.273 OA
HETATM   14  H   UNL     1      40.762 -14.242   4.310  1.00  0.00     0.169 HD
BRANCH  12  15
HETATM   15  C   UNL     1      42.044 -15.492   2.578  1.00  0.00     0.141 C 
BRANCH  15  16
HETATM   16  C   UNL     1      42.885 -16.600   3.171  1.00  0.00    -0.049 A 
HETATM   17  C   UNL     1      42.876 -17.863   2.555  1.00  0.00     0.023 A 
HETATM   18  C   UNL     1      43.577 -18.951   3.104  1.00  0.00     0.048 A 
HETATM   19  C   UNL     1      44.303 -18.760   4.288  1.00  0.00     0.016 A 
HETATM   20  C   UNL     1      44.308 -17.515   4.916  1.00  0.00     0.001 A 
HETATM   21  C   UNL     1      43.595 -16.446   4.369  1.00  0.00     0.007 A 
BRANCH  18  22
HETATM   22  C   UNL     1      43.544 -20.294   2.419  1.00  0.00     0.417 C 
HETATM   23  F   UNL     1      44.519 -20.455   1.481  1.00  0.00    -0.166 F 
HETATM   24  F   UNL     1      43.693 -21.332   3.290  1.00  0.00    -0.166 F 
HETATM   25  F   UNL     1      42.365 -20.517   1.775  1.00  0.00    -0.166 F 
ENDBRANCH  18  22
ENDBRANCH  15  16
ENDBRANCH  12  15
ENDBRANCH   1  11
BRANCH   8  26
HETATM   26  C   UNL     1      45.122 -10.803   7.639  1.00  0.00     0.270 C 
HETATM   27  N   UNL     1      46.000 -10.908   6.594  1.00  0.00    -0.365 N 
HETATM   28  H   UNL     1      45.681 -10.662   5.665  1.00  0.00     0.159 HD
HETATM   29  H   UNL     1      46.944 -11.218   6.765  1.00  0.00     0.159 HD
HETATM   30  O   UNL     1      45.463 -11.082   8.783  1.00  0.00    -0.266 OA
ENDBRANCH   8  26
TORSDOF 5
ENDMDL
MODEL 5
REMARK VINA RESULT:      -8.8      6.078      8.888
REMARK  5 active torsions:
REMARK  status: ('A' for Active; 'I' for Inactive)
REMARK    1  A    between atoms: C_3  and  C_4 
REMARK    2  A    between atoms: C_9  and  C_10 
REMARK    3  A    between atoms: C_10  and  C_11 
REMARK       I    between atoms: C_11  and  N_12 
REMARK    4  A    between atoms: N_12  and  C_13 
REMARK    5  A    between atoms: C_20  and  C_21 
REMARK       I    between atoms: C_21  and  N_22 
ROOT
HETATM    1  C   UNL     1      43.455 -11.976   6.869  1.00  0.00     0.035 A 
HETATM    2  C   UNL     1      43.238 -10.743   7.500  1.00  0.00     0.046 A 
HETATM    3  C   UNL     1      44.330  -9.882   7.750  1.00  0.00     0.030 A 
HETATM    4  C   UNL     1      45.603 -10.285   7.365  1.00  0.00     0.063 A 
HETATM    5  N   UNL     1      46.433  -9.261   7.729  1.00  0.00    -0.277 N 
HETATM    6  H   UNL     1      47.437  -9.209   7.600  1.00  0.00     0.189 HD
HETATM    7  N   UNL     1      45.813  -8.223   8.315  1.00  0.00    -0.168 NA
HETATM    8  C   UNL     1      44.511  -8.591   8.334  1.00  0.00     0.156 A 
HETATM    9  C   UNL     1      45.859 -11.506   6.739  1.00  0.00     0.034 A 
HETATM   10  C   UNL     1      44.758 -12.340   6.498  1.00  0.00     0.032 A 
ENDROOT
BRANCH   1  11
HETATM   11  N   UNL     1      42.423 -12.884   6.545  1.00  0.00    -0.327 N 
HETATM   12  C   UNL     1      41.674 -12.924   5.379  1.00  0.00     0.226 C 
HETATM   13  O   UNL     1      41.689 -12.093   4.477  1.00  0.00    -0.273 OA
HETATM   14  H   UNL     1      42.189 -13.565   7.256  1.00  0.00     0.169 HD
BRANCH  12  15
HETATM   15  C   UNL     1      40.771 -14.146   5.293  1.00  0.00     0.141 C 
BRANCH  15  16
HETATM   16  C   UNL     1      41.260 -15.258   4.392  1.00  0.00    -0.049 A 
HETATM   17  C   UNL     1      42.316 -16.075   4.834  1.00  0.00     0.023 A 
HETATM   18  C   UNL     1      42.863 -17.074   4.009  1.00  0.00     0.048 A 
HETATM   19  C   UNL     1      42.333 -17.257   2.726  1.00  0.00     0.016 A 
HETATM   20  C   UNL     1      41.295 -16.444   2.271  1.00  0.00     0.001 A 
HETATM   21  C   UNL     1      40.771 -15.444   3.093  1.00  0.00     0.007 A 
BRANCH  18  22
HETATM   22  C   UNL     1      43.997 -17.931   4.513  1.00  0.00     0.417 C 
HETATM   23  F   UNL     1      44.660 -18.598   3.527  1.00  0.00    -0.166 F 
HETATM   24  F   UNL     1      44.946 -17.211   5.176  1.00  0.00    -0.166 F 
HETATM   25  F   UNL     1      43.575 -18.883   5.390  1.00  0.00    -0.166 F 
ENDBRANCH  18  22
ENDBRANCH  15  16
ENDBRANCH  12  15
ENDBRANCH   1  11
BRANCH   8  26
HETATM   26  C   UNL     1      43.480  -7.710   8.900  1.00  0.00     0.270 C 
HETATM   27  N   UNL     1      43.018  -8.106  10.126  1.00  0.00    -0.365 N 
HETATM   28  H   UNL     1      43.405  -8.943  10.544  1.00  0.00     0.159 HD
HETATM   29  H   UNL     1      42.311  -7.559  10.593  1.00  0.00     0.159 HD
HETATM   30  O   UNL     1      43.047  -6.700   8.356  1.00  0.00    -0.266 OA
ENDBRANCH   8  26
TORSDOF 5
ENDMDL
MODEL 6
REMARK VINA RESULT:      -8.6      2.406      2.918
REMARK  5 active torsions:
REMARK  status: ('A' for Active; 'I' for Inactive)
REMARK    1  A    between atoms: C_3  and  C_4 
REMARK    2  A    between atoms: C_9  and  C_10 
REMARK    3  A    between atoms: C_10  and  C_11 
REMARK       I    between atoms: C_11  and  N_12 
REMARK    4  A    between atoms: N_12  and  C_13 
REMARK    5  A    between atoms: C_20  and  C_21 
REMARK       I    between atoms: C_21  and  N_22 
ROOT
HETATM    1  C   UNL     1      40.928 -13.520   0.792  1.00  0.00     0.035 A 
HETATM    2  C   UNL     1      40.176 -13.626  -0.386  1.00  0.00     0.046 A 
HETATM    3  C   UNL     1      39.141 -12.698  -0.642  1.00  0.00     0.030 A 
HETATM    4  C   UNL     1      38.891 -11.699   0.291  1.00  0.00     0.063 A 
HETATM    5  N   UNL     1      37.857 -10.970  -0.227  1.00  0.00    -0.277 N 
HETATM    6  H   UNL     1      37.411 -10.158   0.186  1.00  0.00     0.189 HD
HETATM    7  N   UNL     1      37.411 -11.403  -1.418  1.00  0.00    -0.168 NA
HETATM    8  C   UNL     1      38.197 -12.471  -1.689  1.00  0.00     0.156 A 
HETATM    9  C   UNL     1      39.616 -11.565   1.477  1.00  0.00     0.034 A 
HETATM   10  C   UNL     1      40.639 -12.495   1.704  1.00  0.00     0.032 A 
ENDROOT
BRANCH   1  11
HETATM   11  N   UNL     1      42.004 -14.377   1.115  1.00  0.00    -0.327 N 
HETATM   12  C   UNL     1      41.929 -15.679   1.583  1.00  0.00     0.226 C 
HETATM   13  O   UNL     1      40.911 -16.272   1.925  1.00  0.00    -0.273 OA
HETATM   14  H   UNL     1      42.931 -13.984   1.017  1.00  0.00     0.169 HD
BRANCH  12  15
HETATM   15  C   UNL     1      43.286 -16.365   1.654  1.00  0.00     0.141 C 
BRANCH  15  16
HETATM   16  C   UNL     1      43.492 -17.287   2.835  1.00  0.00    -0.049 A 
HETATM   17  C   UNL     1      43.589 -16.730   4.122  1.00  0.00     0.023 A 
HETATM   18  C   UNL     1      43.857 -17.529   5.247  1.00  0.00     0.048 A 
HETATM   19  C   UNL     1      44.023 -18.909   5.073  1.00  0.00     0.016 A 
HETATM   20  C   UNL     1      43.943 -19.472   3.800  1.00  0.00     0.001 A 
HETATM   21  C   UNL     1      43.692 -18.665   2.688  1.00  0.00     0.007 A 
BRANCH  18  22
HETATM   22  C   UNL     1      43.958 -16.899   6.614  1.00  0.00     0.417 C 
HETATM   23  F   UNL     1      43.107 -15.851   6.800  1.00  0.00    -0.166 F 
HETATM   24  F   UNL     1      43.687 -17.779   7.620  1.00  0.00    -0.166 F 
HETATM   25  F   UNL     1      45.206 -16.417   6.871  1.00  0.00    -0.166 F 
ENDBRANCH  18  22
ENDBRANCH  15  16
ENDBRANCH  12  15
ENDBRANCH   1  11
BRANCH   8  26
HETATM   26  C   UNL     1      38.032 -13.240  -2.931  1.00  0.00     0.270 C 
HETATM   27  N   UNL     1      36.751 -13.255  -3.413  1.00  0.00    -0.365 N 
HETATM   28  H   UNL     1      36.035 -12.752  -2.905  1.00  0.00     0.159 HD
HETATM   29  H   UNL     1      36.545 -13.755  -4.264  1.00  0.00     0.159 HD
HETATM   30  O   UNL     1      38.937 -13.828  -3.515  1.00  0.00    -0.266 OA
ENDBRANCH   8  26
TORSDOF 5
ENDMDL
MODEL 7
REMARK VINA RESULT:      -8.5      5.911      8.360
REMARK  5 active torsions:
REMARK  status: ('A' for Active; 'I' for Inactive)
REMARK    1  A    between atoms: C_3  and  C_4 
REMARK    2  A    between atoms: C_9  and  C_10 
REMARK    3  A    between atoms: C_10  and  C_11 
REMARK       I    between atoms: C_11  and  N_12 
REMARK    4  A    between atoms: N_12  and  C_13 
REMARK    5  A    between atoms: C_20  and  C_21 
REMARK       I    between atoms: C_21  and  N_22 
ROOT
HETATM    1  C   UNL     1      43.483 -13.062   6.495  1.00  0.00     0.035 A 
HETATM    2  C   UNL     1      44.189 -12.033   7.134  1.00  0.00     0.046 A 
HETATM    3  C   UNL     1      43.588 -10.764   7.290  1.00  0.00     0.030 A 
HETATM    4  C   UNL     1      42.305 -10.565   6.796  1.00  0.00     0.063 A 
HETATM    5  N   UNL     1      41.999  -9.265   7.094  1.00  0.00    -0.277 N 
HETATM    6  H   UNL     1      41.138  -8.774   6.884  1.00  0.00     0.189 HD
HETATM    7  N   UNL     1      42.970  -8.599   7.740  1.00  0.00    -0.168 NA
HETATM    8  C   UNL     1      43.960  -9.513   7.870  1.00  0.00     0.156 A 
HETATM    9  C   UNL     1      41.573 -11.563   6.151  1.00  0.00     0.034 A 
HETATM   10  C   UNL     1      42.189 -12.814   6.014  1.00  0.00     0.032 A 
ENDROOT
BRANCH   1  11
HETATM   11  N   UNL     1      43.985 -14.372   6.327  1.00  0.00    -0.327 N 
HETATM   12  C   UNL     1      43.577 -15.520   6.988  1.00  0.00     0.226 C 
HETATM   13  O   UNL     1      42.796 -15.576   7.932  1.00  0.00    -0.273 OA
HETATM   14  H   UNL     1      44.747 -14.476   5.668  1.00  0.00     0.169 HD
BRANCH  12  15
HETATM   15  C   UNL     1      44.211 -16.785   6.430  1.00  0.00     0.141 C 
BRANCH  15  16
HETATM   16  C   UNL     1      43.797 -17.159   5.024  1.00  0.00    -0.049 A 
HETATM   17  C   UNL     1      42.738 -16.460   4.420  1.00  0.00     0.023 A 
HETATM   18  C   UNL     1      42.259 -16.814   3.146  1.00  0.00     0.048 A 
HETATM   19  C   UNL     1      42.862 -17.882   2.469  1.00  0.00     0.016 A 
HETATM   20  C   UNL     1      43.905 -18.592   3.063  1.00  0.00     0.001 A 
HETATM   21  C   UNL     1      44.361 -18.241   4.336  1.00  0.00     0.007 A 
BRANCH  18  22
HETATM   22  C   UNL     1      41.118 -16.045   2.528  1.00  0.00     0.417 C 
HETATM   23  F   UNL     1      40.121 -15.743   3.405  1.00  0.00    -0.166 F 
HETATM   24  F   UNL     1      41.515 -14.856   1.992  1.00  0.00    -0.166 F 
HETATM   25  F   UNL     1      40.525 -16.730   1.510  1.00  0.00    -0.166 F 
ENDBRANCH  18  22
ENDBRANCH  15  16
ENDBRANCH  12  15
ENDBRANCH   1  11
BRANCH   8  26
HETATM   26  C   UNL     1      45.222  -9.176   8.543  1.00  0.00     0.270 C 
HETATM   27  N   UNL     1      45.366  -9.745   9.779  1.00  0.00    -0.365 N 
HETATM   28  H   UNL     1      44.625 -10.339  10.130  1.00  0.00     0.159 HD
HETATM   29  H   UNL     1      46.203  -9.572  10.313  1.00  0.00     0.159 HD
HETATM   30  O   UNL     1      46.096  -8.455   8.071  1.00  0.00    -0.266 OA
ENDBRANCH   8  26
TORSDOF 5
ENDMDL
MODEL 8
REMARK VINA RESULT:      -8.5      2.067      2.965
REMARK  5 active torsions:
REMARK  status: ('A' for Active; 'I' for Inactive)
REMARK    1  A    between atoms: C_3  and  C_4 
REMARK    2  A    between atoms: C_9  and  C_10 
REMARK    3  A    between atoms: C_10  and  C_11 
REMARK       I    between atoms: C_11  and  N_12 
REMARK    4  A    between atoms: N_12  and  C_13 
REMARK    5  A    between atoms: C_20  and  C_21 
REMARK       I    between atoms: C_21  and  N_22 
ROOT
HETATM    1  C   UNL     1      39.844 -14.259  -0.028  1.00  0.00     0.035 A 
HETATM    2  C   UNL     1      39.916 -12.860  -0.087  1.00  0.00     0.046 A 
HETATM    3  C   UNL     1      39.577 -12.191  -1.284  1.00  0.00     0.030 A 
HETATM    4  C   UNL     1      39.184 -12.944  -2.384  1.00  0.00     0.063 A 
HETATM    5  N   UNL     1      38.923 -12.034  -3.371  1.00  0.00    -0.277 N 
HETATM    6  H   UNL     1      38.610 -12.226  -4.316  1.00  0.00     0.189 HD
HETATM    7  N   UNL     1      39.109 -10.753  -3.011  1.00  0.00    -0.168 NA
HETATM    8  C   UNL     1      39.513 -10.833  -1.722  1.00  0.00     0.156 A 
HETATM    9  C   UNL     1      39.105 -14.337  -2.365  1.00  0.00     0.034 A 
HETATM   10  C   UNL     1      39.442 -14.976  -1.164  1.00  0.00     0.032 A 
ENDROOT
BRANCH   1  11
HETATM   11  N   UNL     1      40.127 -15.011   1.134  1.00  0.00    -0.327 N 
HETATM   12  C   UNL     1      41.351 -15.151   1.767  1.00  0.00     0.226 C 
HETATM   13  O   UNL     1      42.435 -14.751   1.353  1.00  0.00    -0.273 OA
HETATM   14  H   UNL     1      39.351 -15.525   1.531  1.00  0.00     0.169 HD
BRANCH  12  15
HETATM   15  C   UNL     1      41.254 -15.888   3.096  1.00  0.00     0.141 C 
BRANCH  15  16
HETATM   16  C   UNL     1      42.414 -16.801   3.423  1.00  0.00    -0.049 A 
HETATM   17  C   UNL     1      42.502 -18.046   2.777  1.00  0.00     0.023 A 
HETATM   18  C   UNL     1      43.513 -18.968   3.098  1.00  0.00     0.048 A 
HETATM   19  C   UNL     1      44.454 -18.626   4.078  1.00  0.00     0.016 A 
HETATM   20  C   UNL     1      44.369 -17.401   4.737  1.00  0.00     0.001 A 
HETATM   21  C   UNL     1      43.350 -16.499   4.421  1.00  0.00     0.007 A 
BRANCH  18  22
HETATM   22  C   UNL     1      43.578 -20.297   2.387  1.00  0.00     0.417 C 
HETATM   23  F   UNL     1      43.813 -21.352   3.216  1.00  0.00    -0.166 F 
HETATM   24  F   UNL     1      42.424 -20.595   1.724  1.00  0.00    -0.166 F 
HETATM   25  F   UNL     1      44.564 -20.333   1.447  1.00  0.00    -0.166 F 
ENDBRANCH  18  22
ENDBRANCH  15  16
ENDBRANCH  12  15
ENDBRANCH   1  11
BRANCH   8  26
HETATM   26  C   UNL     1      39.820  -9.624  -0.945  1.00  0.00     0.270 C 
HETATM   27  N   UNL     1      38.715  -8.967  -0.475  1.00  0.00    -0.365 N 
HETATM   28  H   UNL     1      37.800  -9.346  -0.682  1.00  0.00     0.159 HD
HETATM   29  H   UNL     1      38.830  -8.128   0.073  1.00  0.00     0.159 HD
HETATM   30  O   UNL     1      40.951  -9.209  -0.714  1.00  0.00    -0.266 OA
ENDBRANCH   8  26
TORSDOF 5
ENDMDL
MODEL 9
REMARK VINA RESULT:      -8.4      5.191      6.661
REMARK  5 active torsions:
REMARK  status: ('A' for Active; 'I' for Inactive)
REMARK    1  A    between atoms: C_3  and  C_4 
REMARK    2  A    between atoms: C_9  and  C_10 
REMARK    3  A    between atoms: C_10  and  C_11 
REMARK       I    between atoms: C_11  and  N_12 
REMARK    4  A    between atoms: N_12  and  C_13 
REMARK    5  A    between atoms: C_20  and  C_21 
REMARK       I    between atoms: C_21  and  N_22 
ROOT
HETATM    1  C   UNL     1      43.590 -12.987   6.479  1.00  0.00     0.035 A 
HETATM    2  C   UNL     1      42.337 -12.516   6.064  1.00  0.00     0.046 A 
HETATM    3  C   UNL     1      41.956 -11.187   6.357  1.00  0.00     0.030 A 
HETATM    4  C   UNL     1      42.839 -10.377   7.062  1.00  0.00     0.063 A 
HETATM    5  N   UNL     1      42.203  -9.173   7.188  1.00  0.00    -0.277 N 
HETATM    6  H   UNL     1      42.554  -8.339   7.646  1.00  0.00     0.189 HD
HETATM    7  N   UNL     1      40.985  -9.124   6.625  1.00  0.00    -0.168 NA
HETATM    8  C   UNL     1      40.817 -10.363   6.106  1.00  0.00     0.156 A 
HETATM    9  C   UNL     1      44.092 -10.813   7.496  1.00  0.00     0.034 A 
HETATM   10  C   UNL     1      44.448 -12.133   7.187  1.00  0.00     0.032 A 
ENDROOT
BRANCH   1  11
HETATM   11  N   UNL     1      44.072 -14.285   6.200  1.00  0.00    -0.327 N 
HETATM   12  C   UNL     1      43.590 -15.486   6.696  1.00  0.00     0.226 C 
HETATM   13  O   UNL     1      42.740 -15.623   7.571  1.00  0.00    -0.273 OA
HETATM   14  H   UNL     1      44.877 -14.340   5.588  1.00  0.00     0.169 HD
BRANCH  12  15
HETATM   15  C   UNL     1      44.232 -16.702   6.043  1.00  0.00     0.141 C 
BRANCH  15  16
HETATM   16  C   UNL     1      43.743 -17.030   4.650  1.00  0.00    -0.049 A 
HETATM   17  C   UNL     1      43.775 -18.367   4.217  1.00  0.00     0.023 A 
HETATM   18  C   UNL     1      43.407 -18.721   2.907  1.00  0.00     0.048 A 
HETATM   19  C   UNL     1      42.992 -17.715   2.025  1.00  0.00     0.016 A 
HETATM   20  C   UNL     1      42.969 -16.383   2.438  1.00  0.00     0.001 A 
HETATM   21  C   UNL     1      43.353 -16.042   3.737  1.00  0.00     0.007 A 
BRANCH  18  22
HETATM   22  C   UNL     1      43.456 -20.165   2.473  1.00  0.00     0.417 C 
HETATM   23  F   UNL     1      42.330 -20.583   1.831  1.00  0.00    -0.166 F 
HETATM   24  F   UNL     1      44.487 -20.423   1.620  1.00  0.00    -0.166 F 
HETATM   25  F   UNL     1      43.624 -21.015   3.524  1.00  0.00    -0.166 F 
ENDBRANCH  18  22
ENDBRANCH  15  16
ENDBRANCH  12  15
ENDBRANCH   1  11
BRANCH   8  26
HETATM   26  C   UNL     1      39.589 -10.726   5.385  1.00  0.00     0.270 C 
HETATM   27  N   UNL     1      38.480 -10.817   6.182  1.00  0.00    -0.365 N 
HETATM   28  H   UNL     1      38.577 -10.631   7.173  1.00  0.00     0.159 HD
HETATM   29  H   UNL     1      37.591 -11.057   5.773  1.00  0.00     0.159 HD
HETATM   30  O   UNL     1      39.521 -10.934   4.178  1.00  0.00    -0.266 OA
ENDBRANCH   8  26
TORSDOF 5
ENDMDL
MODEL 10
REMARK VINA RESULT:      -8.2      6.247      9.048
REMARK  5 active torsions:
REMARK  status: ('A' for Active; 'I' for Inactive)
REMARK    1  A    between atoms: C_3  and  C_4 
REMARK    2  A    between atoms: C_9  and  C_10 
REMARK    3  A    between atoms: C_10  and  C_11 
REMARK       I    between atoms: C_11  and  N_12 
REMARK    4  A    between atoms: N_12  and  C_13 
REMARK    5  A    between atoms: C_20  and  C_21 
REMARK       I    between atoms: C_21  and  N_22 
ROOT
HETATM    1  C   UNL     1      43.583 -12.013   6.858  1.00  0.00     0.035 A 
HETATM    2  C   UNL     1      43.105 -10.810   7.396  1.00  0.00     0.046 A 
HETATM    3  C   UNL     1      44.017  -9.803   7.781  1.00  0.00     0.030 A 
HETATM    4  C   UNL     1      45.378 -10.035   7.620  1.00  0.00     0.063 A 
HETATM    5  N   UNL     1      45.994  -8.900   8.070  1.00  0.00    -0.277 N 
HETATM    6  H   UNL     1      46.990  -8.713   8.100  1.00  0.00     0.189 HD
HETATM    7  N   UNL     1      45.155  -7.946   8.507  1.00  0.00    -0.168 NA
HETATM    8  C   UNL     1      43.928  -8.489   8.334  1.00  0.00     0.156 A 
HETATM    9  C   UNL     1      45.892 -11.220   7.093  1.00  0.00     0.034 A 
HETATM   10  C   UNL     1      44.965 -12.201   6.714  1.00  0.00     0.032 A 
ENDROOT
BRANCH   1  11
HETATM   11  N   UNL     1      42.747 -13.060   6.410  1.00  0.00    -0.327 N 
HETATM   12  C   UNL     1      42.597 -14.316   6.977  1.00  0.00     0.226 C 
HETATM   13  O   UNL     1      43.266 -14.786   7.892  1.00  0.00    -0.273 OA
HETATM   14  H   UNL     1      42.219 -12.879   5.567  1.00  0.00     0.169 HD
BRANCH  12  15
HETATM   15  C   UNL     1      41.479 -15.127   6.339  1.00  0.00     0.141 C 
BRANCH  15  16
HETATM   16  C   UNL     1      41.792 -15.723   4.985  1.00  0.00    -0.049 A 
HETATM   17  C   UNL     1      40.997 -15.360   3.884  1.00  0.00     0.023 A 
HETATM   18  C   UNL     1      41.192 -15.940   2.618  1.00  0.00     0.048 A 
HETATM   19  C   UNL     1      42.208 -16.892   2.459  1.00  0.00     0.016 A 
HETATM   20  C   UNL     1      42.994 -17.270   3.547  1.00  0.00     0.001 A 
HETATM   21  C   UNL     1      42.780 -16.699   4.803  1.00  0.00     0.007 A 
BRANCH  18  22
HETATM   22  C   UNL     1      40.320 -15.531   1.458  1.00  0.00     0.417 C 
HETATM   23  F   UNL     1      39.511 -16.528   1.001  1.00  0.00    -0.166 F 
HETATM   24  F   UNL     1      39.492 -14.492   1.763  1.00  0.00    -0.166 F 
HETATM   25  F   UNL     1      41.049 -15.120   0.383  1.00  0.00    -0.166 F 
ENDBRANCH  18  22
ENDBRANCH  15  16
ENDBRANCH  12  15
ENDBRANCH   1  11
BRANCH   8  26
HETATM   26  C   UNL     1      42.711  -7.748   8.693  1.00  0.00     0.270 C 
HETATM   27  N   UNL     1      41.911  -7.437   7.626  1.00  0.00    -0.365 N 
HETATM   28  H   UNL     1      42.199  -7.732   6.701  1.00  0.00     0.159 HD
HETATM   29  H   UNL     1      41.052  -6.932   7.778  1.00  0.00     0.159 HD
HETATM   30  O   UNL     1      42.402  -7.419   9.833  1.00  0.00    -0.266 OA
ENDBRANCH   8  26
TORSDOF 5
ENDMDL
