MODEL 1
REMARK VINA RESULT:      -8.7      0.000      0.000
REMARK  9 active torsions:
REMARK  status: ('A' for Active; 'I' for Inactive)
REMARK    1  A    between atoms: C_2  and  O_3 
REMARK    2  A    between atoms: O_3  and  C_4 
REMARK    3  A    between atoms: C_7  and  N_8 
REMARK       I    between atoms: N_8  and  C_9 
REMARK    4  A    between atoms: C_9  and  C_10 
REMARK    5  A    between atoms: C_11  and  N_12 
REMARK       I    between atoms: N_12  and  C_13 
REMARK    6  A    between atoms: C_13  and  C_14 
REMARK    7  A    between atoms: C_14  and  N_15 
REMARK    8  A    between atoms: N_15  and  C_18 
REMARK    9  A    between atoms: C_18  and  C_19 
ROOT
HETATM    1  C   UNL     1      40.073 -14.046   0.513  1.00  0.00     0.073 A 
HETATM    2  C   UNL     1      40.235 -12.680   0.781  1.00  0.00     0.093 A 
HETATM    3  S   UNL     1      39.640 -11.666  -0.460  1.00  0.00    -0.075 SA
HETATM    4  C   UNL     1      39.213 -12.992  -1.373  1.00  0.00    -0.008 A 
HETATM    5  C   UNL     1      39.494 -14.196  -0.786  1.00  0.00    -0.026 A 
HETATM    6  C   UNL     1      39.109 -15.308  -1.701  1.00  0.00     0.041 C 
HETATM    7  C   UNL     1      38.886 -14.577  -3.060  1.00  0.00     0.010 C 
HETATM    8  C   UNL     1      38.599 -13.087  -2.719  1.00  0.00     0.047 C 
ENDROOT
BRANCH   2   9
HETATM    9  N   UNL     1      40.834 -12.149   1.919  1.00  0.00    -0.319 N 
HETATM   10  C   UNL     1      41.724 -11.104   1.977  1.00  0.00     0.248 C 
HETATM   11  O   UNL     1      42.117 -10.367   1.072  1.00  0.00    -0.271 OA
HETATM   12  H   UNL     1      40.518 -12.604   2.779  1.00  0.00     0.169 HD
BRANCH  10  13
HETATM   13  C   UNL     1      42.270 -10.830   3.378  1.00  0.00     0.335 C 
BRANCH  13  14
HETATM   14  N   UNL     1      42.514 -12.145   4.074  1.00  0.00    -0.059 N 
HETATM   15  H   UNL     1      41.722 -12.756   3.794  1.00  0.00     0.278 HD
HETATM   16  H   UNL     1      43.321 -12.621   3.652  1.00  0.00     0.278 HD
BRANCH  14  17
HETATM   17  C   UNL     1      42.608 -12.150   5.560  1.00  0.00     0.215 C 
HETATM   18  C   UNL     1      43.974 -11.625   6.002  1.00  0.00     0.045 C 
BRANCH  17  19
HETATM   19  C   UNL     1      42.316 -13.541   6.082  1.00  0.00    -0.028 A 
HETATM   20  C   UNL     1      41.101 -14.193   5.810  1.00  0.00     0.009 A 
HETATM   21  C   UNL     1      40.840 -15.461   6.333  1.00  0.00     0.001 A 
HETATM   22  C   UNL     1      41.786 -16.093   7.135  1.00  0.00     0.000 A 
HETATM   23  C   UNL     1      42.993 -15.461   7.416  1.00  0.00     0.001 A 
HETATM   24  C   UNL     1      43.258 -14.191   6.898  1.00  0.00     0.009 A 
ENDBRANCH  17  19
ENDBRANCH  14  17
ENDBRANCH  13  14
ENDBRANCH  10  13
ENDBRANCH   2   9
BRANCH   1  25
HETATM   25  C   UNL     1      40.478 -15.070   1.497  1.00  0.00     0.259 C 
HETATM   26  N   UNL     1      41.818 -15.393   1.476  1.00  0.00    -0.323 N 
HETATM   27  H   UNL     1      42.386 -14.931   0.783  1.00  0.00     0.169 HD
HETATM   28  O   UNL     1      39.623 -15.594   2.210  1.00  0.00    -0.267 OA
BRANCH  26  29
HETATM   29  C   UNL     1      42.490 -16.381   2.224  1.00  0.00     0.035 A 
HETATM   30  C   UNL     1      42.554 -17.730   1.876  1.00  0.00     0.032 A 
HETATM   31  C   UNL     1      43.291 -18.634   2.656  1.00  0.00     0.039 A 
HETATM   32  C   UNL     1      43.970 -18.195   3.791  1.00  0.00     0.068 A 
HETATM   33  C   UNL     1      43.874 -16.857   4.164  1.00  0.00     0.039 A 
HETATM   34  C   UNL     1      43.145 -15.954   3.386  1.00  0.00     0.032 A 
BRANCH  32  35
HETATM   35  O   UNL     1      44.737 -18.967   4.617  1.00  0.00    -0.352 OA
BRANCH  35  36
HETATM   36  C   UNL     1      44.160 -20.190   5.071  1.00  0.00     0.171 C 
HETATM   37  C   UNL     1      43.413 -19.902   6.361  1.00  0.00     0.034 C 
ENDBRANCH  35  36
ENDBRANCH  32  35
ENDBRANCH  26  29
ENDBRANCH   1  25
TORSDOF 9
ENDMDL
MODEL 2
REMARK VINA RESULT:      -8.6      3.038      6.659
REMARK  9 active torsions:
REMARK  status: ('A' for Active; 'I' for Inactive)
REMARK    1  A    between atoms: C_2  and  O_3 
REMARK    2  A    between atoms: O_3  and  C_4 
REMARK    3  A    between atoms: C_7  and  N_8 
REMARK       I    between atoms: N_8  and  C_9 
REMARK    4  A    between atoms: C_9  and  C_10 
REMARK    5  A    between atoms: C_11  and  N_12 
REMARK       I    between atoms: N_12  and  C_13 
REMARK    6  A    between atoms: C_13  and  C_14 
REMARK    7  A    between atoms: C_14  and  N_15 
REMARK    8  A    between atoms: N_15  and  C_18 
REMARK    9  A    between atoms: C_18  and  C_19 
ROOT
HETATM    1  C   UNL     1      43.041 -10.927   6.835  1.00  0.00     0.073 A 
HETATM    2  C   UNL     1      41.919 -10.171   6.470  1.00  0.00     0.093 A 
HETATM    3  S   UNL     1      41.827  -8.660   7.265  1.00  0.00    -0.075 SA
HETATM    4  C   UNL     1      43.215  -8.997   8.120  1.00  0.00    -0.008 A 
HETATM    5  C   UNL     1      43.770 -10.215   7.838  1.00  0.00    -0.026 A 
HETATM    6  C   UNL     1      44.980 -10.429   8.683  1.00  0.00     0.041 C 
HETATM    7  C   UNL     1      44.853  -9.307   9.759  1.00  0.00     0.010 C 
HETATM    8  C   UNL     1      43.938  -8.209   9.147  1.00  0.00     0.047 C 
ENDROOT
BRANCH   2   9
HETATM    9  N   UNL     1      40.935 -10.573   5.574  1.00  0.00    -0.319 N 
HETATM   10  C   UNL     1      40.033 -11.597   5.737  1.00  0.00     0.248 C 
HETATM   11  O   UNL     1      39.841 -12.314   6.718  1.00  0.00    -0.271 OA
HETATM   12  H   UNL     1      40.906  -9.990   4.733  1.00  0.00     0.169 HD
BRANCH  10  13
HETATM   13  C   UNL     1      39.145 -11.842   4.517  1.00  0.00     0.335 C 
BRANCH  13  14
HETATM   14  N   UNL     1      39.627 -13.078   3.800  1.00  0.00    -0.059 N 
HETATM   15  H   UNL     1      39.701 -13.810   4.534  1.00  0.00     0.278 HD
HETATM   16  H   UNL     1      38.882 -13.445   3.195  1.00  0.00     0.278 HD
BRANCH  14  17
HETATM   17  C   UNL     1      40.924 -13.011   3.071  1.00  0.00     0.215 C 
HETATM   18  C   UNL     1      40.737 -12.300   1.731  1.00  0.00     0.045 C 
BRANCH  17  19
HETATM   19  C   UNL     1      41.494 -14.405   2.923  1.00  0.00    -0.028 A 
HETATM   20  C   UNL     1      42.878 -14.647   2.958  1.00  0.00     0.009 A 
HETATM   21  C   UNL     1      43.381 -15.937   2.783  1.00  0.00     0.001 A 
HETATM   22  C   UNL     1      42.512 -17.002   2.568  1.00  0.00     0.000 A 
HETATM   23  C   UNL     1      41.138 -16.781   2.527  1.00  0.00     0.001 A 
HETATM   24  C   UNL     1      40.630 -15.491   2.699  1.00  0.00     0.009 A 
ENDBRANCH  17  19
ENDBRANCH  14  17
ENDBRANCH  13  14
ENDBRANCH  10  13
ENDBRANCH   2   9
BRANCH   1  25
HETATM   25  C   UNL     1      43.316 -12.235   6.209  1.00  0.00     0.259 C 
HETATM   26  N   UNL     1      42.933 -13.326   6.960  1.00  0.00    -0.323 N 
HETATM   27  H   UNL     1      42.533 -13.136   7.867  1.00  0.00     0.169 HD
HETATM   28  O   UNL     1      43.898 -12.278   5.125  1.00  0.00    -0.267 OA
BRANCH  26  29
HETATM   29  C   UNL     1      43.132 -14.693   6.680  1.00  0.00     0.035 A 
HETATM   30  C   UNL     1      44.381 -15.304   6.570  1.00  0.00     0.032 A 
HETATM   31  C   UNL     1      44.482 -16.685   6.339  1.00  0.00     0.039 A 
HETATM   32  C   UNL     1      43.334 -17.465   6.217  1.00  0.00     0.068 A 
HETATM   33  C   UNL     1      42.086 -16.851   6.285  1.00  0.00     0.039 A 
HETATM   34  C   UNL     1      41.983 -15.477   6.519  1.00  0.00     0.032 A 
BRANCH  32  35
HETATM   35  O   UNL     1      43.299 -18.815   6.015  1.00  0.00    -0.352 OA
BRANCH  35  36
HETATM   36  C   UNL     1      44.127 -19.331   4.974  1.00  0.00     0.171 C 
HETATM   37  C   UNL     1      44.170 -20.841   5.116  1.00  0.00     0.034 C 
ENDBRANCH  35  36
ENDBRANCH  32  35
ENDBRANCH  26  29
ENDBRANCH   1  25
TORSDOF 9
ENDMDL
MODEL 3
REMARK VINA RESULT:      -8.4      2.967      6.932
REMARK  9 active torsions:
REMARK  status: ('A' for Active; 'I' for Inactive)
REMARK    1  A    between atoms: C_2  and  O_3 
REMARK    2  A    between atoms: O_3  and  C_4 
REMARK    3  A    between atoms: C_7  and  N_8 
REMARK       I    between atoms: N_8  and  C_9 
REMARK    4  A    between atoms: C_9  and  C_10 
REMARK    5  A    between atoms: C_11  and  N_12 
REMARK       I    between atoms: N_12  and  C_13 
REMARK    6  A    between atoms: C_13  and  C_14 
REMARK    7  A    between atoms: C_14  and  N_15 
REMARK    8  A    between atoms: N_15  and  C_18 
REMARK    9  A    between atoms: C_18  and  C_19 
ROOT
HETATM    1  C   UNL     1      43.172 -16.103   3.500  1.00  0.00     0.073 A 
HETATM    2  C   UNL     1      43.403 -15.717   4.828  1.00  0.00     0.093 A 
HETATM    3  S   UNL     1      44.015 -16.977   5.807  1.00  0.00    -0.075 SA
HETATM    4  C   UNL     1      43.939 -18.042   4.531  1.00  0.00    -0.008 A 
HETATM    5  C   UNL     1      43.469 -17.495   3.367  1.00  0.00    -0.026 A 
HETATM    6  C   UNL     1      43.407 -18.541   2.305  1.00  0.00     0.041 C 
HETATM    7  C   UNL     1      43.573 -19.864   3.113  1.00  0.00     0.010 C 
HETATM    8  C   UNL     1      44.275 -19.483   4.447  1.00  0.00     0.047 C 
ENDROOT
BRANCH   2   9
HETATM    9  N   UNL     1      43.154 -14.453   5.352  1.00  0.00    -0.319 N 
HETATM   10  C   UNL     1      41.929 -13.871   5.568  1.00  0.00     0.248 C 
HETATM   11  O   UNL     1      40.805 -14.354   5.432  1.00  0.00    -0.271 OA
HETATM   12  H   UNL     1      44.012 -13.960   5.614  1.00  0.00     0.169 HD
BRANCH  10  13
HETATM   13  C   UNL     1      42.006 -12.429   6.068  1.00  0.00     0.335 C 
BRANCH  13  14
HETATM   14  N   UNL     1      43.134 -12.314   7.062  1.00  0.00    -0.059 N 
HETATM   15  H   UNL     1      42.679 -12.314   7.996  1.00  0.00     0.278 HD
HETATM   16  H   UNL     1      43.676 -13.187   7.079  1.00  0.00     0.278 HD
BRANCH  14  17
HETATM   17  C   UNL     1      44.031 -11.129   6.977  1.00  0.00     0.215 C 
HETATM   18  C   UNL     1      45.409 -11.548   6.465  1.00  0.00     0.045 C 
BRANCH  17  19
HETATM   19  C   UNL     1      44.089 -10.440   8.324  1.00  0.00    -0.028 A 
HETATM   20  C   UNL     1      42.970  -9.787   8.870  1.00  0.00     0.009 A 
HETATM   21  C   UNL     1      43.058  -9.128  10.097  1.00  0.00     0.001 A 
HETATM   22  C   UNL     1      44.263  -9.109  10.794  1.00  0.00     0.000 A 
HETATM   23  C   UNL     1      45.381  -9.747  10.267  1.00  0.00     0.001 A 
HETATM   24  C   UNL     1      45.299 -10.405   9.038  1.00  0.00     0.009 A 
ENDBRANCH  17  19
ENDBRANCH  14  17
ENDBRANCH  13  14
ENDBRANCH  10  13
ENDBRANCH   2   9
BRANCH   1  25
HETATM   25  C   UNL     1      42.696 -15.132   2.495  1.00  0.00     0.259 C 
HETATM   26  N   UNL     1      41.325 -15.065   2.361  1.00  0.00    -0.323 N 
HETATM   27  H   UNL     1      40.781 -15.694   2.932  1.00  0.00     0.169 HD
HETATM   28  O   UNL     1      43.515 -14.508   1.821  1.00  0.00    -0.267 OA
BRANCH  26  29
HETATM   29  C   UNL     1      40.574 -14.307   1.441  1.00  0.00     0.035 A 
HETATM   30  C   UNL     1      40.076 -13.028   1.688  1.00  0.00     0.032 A 
HETATM   31  C   UNL     1      39.381 -12.327   0.691  1.00  0.00     0.039 A 
HETATM   32  C   UNL     1      39.178 -12.900  -0.563  1.00  0.00     0.068 A 
HETATM   33  C   UNL     1      39.638 -14.194  -0.799  1.00  0.00     0.039 A 
HETATM   34  C   UNL     1      40.334 -14.891   0.191  1.00  0.00     0.032 A 
BRANCH  32  35
HETATM   35  O   UNL     1      38.541 -12.315  -1.620  1.00  0.00    -0.352 OA
BRANCH  35  36
HETATM   36  C   UNL     1      39.199 -12.384  -2.884  1.00  0.00     0.171 C 
HETATM   37  C   UNL     1      40.115 -11.179  -2.999  1.00  0.00     0.034 C 
ENDBRANCH  35  36
ENDBRANCH  32  35
ENDBRANCH  26  29
ENDBRANCH   1  25
TORSDOF 9
ENDMDL
MODEL 4
REMARK VINA RESULT:      -8.1      2.587      6.850
REMARK  9 active torsions:
REMARK  status: ('A' for Active; 'I' for Inactive)
REMARK    1  A    between atoms: C_2  and  O_3 
REMARK    2  A    between atoms: O_3  and  C_4 
REMARK    3  A    between atoms: C_7  and  N_8 
REMARK       I    between atoms: N_8  and  C_9 
REMARK    4  A    between atoms: C_9  and  C_10 
REMARK    5  A    between atoms: C_11  and  N_12 
REMARK       I    between atoms: N_12  and  C_13 
REMARK    6  A    between atoms: C_13  and  C_14 
REMARK    7  A    between atoms: C_14  and  N_15 
REMARK    8  A    between atoms: N_15  and  C_18 
REMARK    9  A    between atoms: C_18  and  C_19 
ROOT
HETATM    1  C   UNL     1      42.065 -16.187   3.191  1.00  0.00     0.073 A 
HETATM    2  C   UNL     1      42.474 -15.505   4.345  1.00  0.00     0.093 A 
HETATM    3  S   UNL     1      43.733 -16.293   5.192  1.00  0.00    -0.075 SA
HETATM    4  C   UNL     1      43.722 -17.545   4.096  1.00  0.00    -0.008 A 
HETATM    5  C   UNL     1      42.802 -17.408   3.091  1.00  0.00    -0.026 A 
HETATM    6  C   UNL     1      42.852 -18.598   2.193  1.00  0.00     0.041 C 
HETATM    7  C   UNL     1      43.691 -19.620   3.019  1.00  0.00     0.010 C 
HETATM    8  C   UNL     1      44.525 -18.790   4.035  1.00  0.00     0.047 C 
ENDROOT
BRANCH   2   9
HETATM    9  N   UNL     1      41.928 -14.314   4.811  1.00  0.00    -0.319 N 
HETATM   10  C   UNL     1      40.830 -14.167   5.624  1.00  0.00     0.248 C 
HETATM   11  O   UNL     1      40.152 -15.032   6.177  1.00  0.00    -0.271 OA
HETATM   12  H   UNL     1      42.459 -13.493   4.509  1.00  0.00     0.169 HD
BRANCH  10  13
HETATM   13  C   UNL     1      40.433 -12.713   5.873  1.00  0.00     0.335 C 
BRANCH  13  14
HETATM   14  N   UNL     1      41.491 -12.054   6.723  1.00  0.00    -0.059 N 
HETATM   15  H   UNL     1      41.027 -11.847   7.628  1.00  0.00     0.278 HD
HETATM   16  H   UNL     1      42.204 -12.744   6.991  1.00  0.00     0.278 HD
BRANCH  14  17
HETATM   17  C   UNL     1      42.121 -10.802   6.220  1.00  0.00     0.215 C 
HETATM   18  C   UNL     1      42.022 -10.739   4.697  1.00  0.00     0.045 C 
BRANCH  17  19
HETATM   19  C   UNL     1      43.547 -10.717   6.721  1.00  0.00    -0.028 A 
HETATM   20  C   UNL     1      43.907  -9.881   7.792  1.00  0.00     0.009 A 
HETATM   21  C   UNL     1      45.235  -9.792   8.212  1.00  0.00     0.001 A 
HETATM   22  C   UNL     1      46.222 -10.533   7.568  1.00  0.00     0.000 A 
HETATM   23  C   UNL     1      45.884 -11.363   6.503  1.00  0.00     0.001 A 
HETATM   24  C   UNL     1      44.557 -11.453   6.077  1.00  0.00     0.009 A 
ENDBRANCH  17  19
ENDBRANCH  14  17
ENDBRANCH  13  14
ENDBRANCH  10  13
ENDBRANCH   2   9
BRANCH   1  25
HETATM   25  C   UNL     1      41.027 -15.629   2.302  1.00  0.00     0.259 C 
HETATM   26  N   UNL     1      41.510 -14.903   1.235  1.00  0.00    -0.323 N 
HETATM   27  H   UNL     1      42.511 -14.796   1.174  1.00  0.00     0.169 HD
HETATM   28  O   UNL     1      39.839 -15.787   2.585  1.00  0.00    -0.267 OA
BRANCH  26  29
HETATM   29  C   UNL     1      40.782 -14.182   0.267  1.00  0.00     0.035 A 
HETATM   30  C   UNL     1      40.916 -12.813   0.033  1.00  0.00     0.032 A 
HETATM   31  C   UNL     1      40.185 -12.189  -0.989  1.00  0.00     0.039 A 
HETATM   32  C   UNL     1      39.312 -12.929  -1.785  1.00  0.00     0.068 A 
HETATM   33  C   UNL     1      39.145 -14.287  -1.526  1.00  0.00     0.039 A 
HETATM   34  C   UNL     1      39.876 -14.911  -0.513  1.00  0.00     0.032 A 
BRANCH  32  35
HETATM   35  O   UNL     1      38.565 -12.445  -2.820  1.00  0.00    -0.352 OA
BRANCH  35  36
HETATM   36  C   UNL     1      37.150 -12.418  -2.633  1.00  0.00     0.171 C 
HETATM   37  C   UNL     1      36.694 -10.974  -2.734  1.00  0.00     0.034 C 
ENDBRANCH  35  36
ENDBRANCH  32  35
ENDBRANCH  26  29
ENDBRANCH   1  25
TORSDOF 9
ENDMDL
MODEL 5
REMARK VINA RESULT:      -8.1      2.788      7.316
REMARK  9 active torsions:
REMARK  status: ('A' for Active; 'I' for Inactive)
REMARK    1  A    between atoms: C_2  and  O_3 
REMARK    2  A    between atoms: O_3  and  C_4 
REMARK    3  A    between atoms: C_7  and  N_8 
REMARK       I    between atoms: N_8  and  C_9 
REMARK    4  A    between atoms: C_9  and  C_10 
REMARK    5  A    between atoms: C_11  and  N_12 
REMARK       I    between atoms: N_12  and  C_13 
REMARK    6  A    between atoms: C_13  and  C_14 
REMARK    7  A    between atoms: C_14  and  N_15 
REMARK    8  A    between atoms: N_15  and  C_18 
REMARK    9  A    between atoms: C_18  and  C_19 
ROOT
HETATM    1  C   UNL     1      41.905 -16.204   3.219  1.00  0.00     0.073 A 
HETATM    2  C   UNL     1      42.174 -15.574   4.442  1.00  0.00     0.093 A 
HETATM    3  S   UNL     1      43.438 -16.313   5.325  1.00  0.00    -0.075 SA
HETATM    4  C   UNL     1      43.611 -17.479   4.151  1.00  0.00    -0.008 A 
HETATM    5  C   UNL     1      42.752 -17.348   3.093  1.00  0.00    -0.026 A 
HETATM    6  C   UNL     1      42.967 -18.462   2.125  1.00  0.00     0.041 C 
HETATM    7  C   UNL     1      43.836 -19.467   2.941  1.00  0.00     0.010 C 
HETATM    8  C   UNL     1      44.523 -18.645   4.067  1.00  0.00     0.047 C 
ENDROOT
BRANCH   2   9
HETATM    9  N   UNL     1      41.495 -14.470   4.945  1.00  0.00    -0.319 N 
HETATM   10  C   UNL     1      40.493 -14.469   5.885  1.00  0.00     0.248 C 
HETATM   11  O   UNL     1      40.042 -15.409   6.539  1.00  0.00    -0.271 OA
HETATM   12  H   UNL     1      41.840 -13.587   4.559  1.00  0.00     0.169 HD
BRANCH  10  13
HETATM   13  C   UNL     1      39.889 -13.090   6.148  1.00  0.00     0.335 C 
BRANCH  13  14
HETATM   14  N   UNL     1      39.247 -12.586   4.880  1.00  0.00    -0.059 N 
HETATM   15  H   UNL     1      39.353 -13.358   4.193  1.00  0.00     0.278 HD
HETATM   16  H   UNL     1      38.229 -12.534   5.000  1.00  0.00     0.278 HD
BRANCH  14  17
HETATM   17  C   UNL     1      39.779 -11.337   4.268  1.00  0.00     0.215 C 
HETATM   18  C   UNL     1      39.924 -10.251   5.333  1.00  0.00     0.045 C 
BRANCH  17  19
HETATM   19  C   UNL     1      38.888 -10.918   3.118  1.00  0.00    -0.028 A 
HETATM   20  C   UNL     1      38.618  -9.565   2.846  1.00  0.00     0.009 A 
HETATM   21  C   UNL     1      37.764  -9.205   1.802  1.00  0.00     0.001 A 
HETATM   22  C   UNL     1      37.166 -10.188   1.018  1.00  0.00     0.000 A 
HETATM   23  C   UNL     1      37.420 -11.532   1.276  1.00  0.00     0.001 A 
HETATM   24  C   UNL     1      38.272 -11.897   2.321  1.00  0.00     0.009 A 
ENDBRANCH  17  19
ENDBRANCH  14  17
ENDBRANCH  13  14
ENDBRANCH  10  13
ENDBRANCH   2   9
BRANCH   1  25
HETATM   25  C   UNL     1      40.883 -15.672   2.296  1.00  0.00     0.259 C 
HETATM   26  N   UNL     1      41.386 -14.980   1.215  1.00  0.00    -0.323 N 
HETATM   27  H   UNL     1      42.388 -14.876   1.168  1.00  0.00     0.169 HD
HETATM   28  O   UNL     1      39.691 -15.819   2.563  1.00  0.00    -0.267 OA
BRANCH  26  29
HETATM   29  C   UNL     1      40.676 -14.288   0.213  1.00  0.00     0.035 A 
HETATM   30  C   UNL     1      39.709 -14.864  -0.611  1.00  0.00     0.032 A 
HETATM   31  C   UNL     1      39.014 -14.084  -1.549  1.00  0.00     0.039 A 
HETATM   32  C   UNL     1      39.281 -12.722  -1.669  1.00  0.00     0.068 A 
HETATM   33  C   UNL     1      40.275 -12.153  -0.876  1.00  0.00     0.039 A 
HETATM   34  C   UNL     1      40.965 -12.927   0.061  1.00  0.00     0.032 A 
BRANCH  32  35
HETATM   35  O   UNL     1      38.661 -11.854  -2.522  1.00  0.00    -0.352 OA
BRANCH  35  36
HETATM   36  C   UNL     1      37.235 -11.831  -2.490  1.00  0.00     0.171 C 
HETATM   37  C   UNL     1      36.785 -10.408  -2.769  1.00  0.00     0.034 C 
ENDBRANCH  35  36
ENDBRANCH  32  35
ENDBRANCH  26  29
ENDBRANCH   1  25
TORSDOF 9
ENDMDL
MODEL 6
REMARK VINA RESULT:      -8.0      1.648      2.965
REMARK  9 active torsions:
REMARK  status: ('A' for Active; 'I' for Inactive)
REMARK    1  A    between atoms: C_2  and  O_3 
REMARK    2  A    between atoms: O_3  and  C_4 
REMARK    3  A    between atoms: C_7  and  N_8 
REMARK       I    between atoms: N_8  and  C_9 
REMARK    4  A    between atoms: C_9  and  C_10 
REMARK    5  A    between atoms: C_11  and  N_12 
REMARK       I    between atoms: N_12  and  C_13 
REMARK    6  A    between atoms: C_13  and  C_14 
REMARK    7  A    between atoms: C_14  and  N_15 
REMARK    8  A    between atoms: N_15  and  C_18 
REMARK    9  A    between atoms: C_18  and  C_19 
ROOT
HETATM    1  C   UNL     1      40.496 -14.003   1.584  1.00  0.00     0.073 A 
HETATM    2  C   UNL     1      40.617 -12.697   2.079  1.00  0.00     0.093 A 
HETATM    3  S   UNL     1      40.009 -11.505   1.015  1.00  0.00    -0.075 SA
HETATM    4  C   UNL     1      39.629 -12.669  -0.112  1.00  0.00    -0.008 A 
HETATM    5  C   UNL     1      39.936 -13.947   0.269  1.00  0.00    -0.026 A 
HETATM    6  C   UNL     1      39.590 -14.899  -0.825  1.00  0.00     0.041 C 
HETATM    7  C   UNL     1      39.363 -13.956  -2.046  1.00  0.00     0.010 C 
HETATM    8  C   UNL     1      39.033 -12.553  -1.465  1.00  0.00     0.047 C 
ENDROOT
BRANCH   2   9
HETATM    9  N   UNL     1      41.189 -12.350   3.298  1.00  0.00    -0.319 N 
HETATM   10  C   UNL     1      40.573 -12.325   4.526  1.00  0.00     0.248 C 
HETATM   11  O   UNL     1      39.432 -12.675   4.830  1.00  0.00    -0.271 OA
HETATM   12  H   UNL     1      42.185 -12.127   3.217  1.00  0.00     0.169 HD
BRANCH  10  13
HETATM   13  C   UNL     1      41.460 -11.803   5.655  1.00  0.00     0.335 C 
BRANCH  13  14
HETATM   14  N   UNL     1      42.904 -11.916   5.236  1.00  0.00    -0.059 N 
HETATM   15  H   UNL     1      42.886 -12.395   4.315  1.00  0.00     0.278 HD
HETATM   16  H   UNL     1      43.274 -10.988   4.998  1.00  0.00     0.278 HD
BRANCH  14  17
HETATM   17  C   UNL     1      43.842 -12.652   6.129  1.00  0.00     0.215 C 
HETATM   18  C   UNL     1      43.104 -13.777   6.854  1.00  0.00     0.045 C 
BRANCH  17  19
HETATM   19  C   UNL     1      44.507 -11.679   7.078  1.00  0.00    -0.028 A 
HETATM   20  C   UNL     1      43.868 -11.232   8.248  1.00  0.00     0.009 A 
HETATM   21  C   UNL     1      44.488 -10.306   9.088  1.00  0.00     0.001 A 
HETATM   22  C   UNL     1      45.750  -9.810   8.772  1.00  0.00     0.000 A 
HETATM   23  C   UNL     1      46.394 -10.239   7.616  1.00  0.00     0.001 A 
HETATM   24  C   UNL     1      45.778 -11.163   6.770  1.00  0.00     0.009 A 
ENDBRANCH  17  19
ENDBRANCH  14  17
ENDBRANCH  13  14
ENDBRANCH  10  13
ENDBRANCH   2   9
BRANCH   1  25
HETATM   25  C   UNL     1      40.916 -15.166   2.389  1.00  0.00     0.259 C 
HETATM   26  N   UNL     1      42.279 -15.376   2.432  1.00  0.00    -0.323 N 
HETATM   27  H   UNL     1      42.853 -14.744   1.896  1.00  0.00     0.169 HD
HETATM   28  O   UNL     1      40.062 -15.885   2.905  1.00  0.00    -0.267 OA
BRANCH  26  29
HETATM   29  C   UNL     1      42.980 -16.437   3.039  1.00  0.00     0.035 A 
HETATM   30  C   UNL     1      43.559 -16.380   4.307  1.00  0.00     0.032 A 
HETATM   31  C   UNL     1      44.195 -17.507   4.852  1.00  0.00     0.039 A 
HETATM   32  C   UNL     1      44.256 -18.699   4.133  1.00  0.00     0.068 A 
HETATM   33  C   UNL     1      43.715 -18.746   2.851  1.00  0.00     0.039 A 
HETATM   34  C   UNL     1      43.078 -17.628   2.308  1.00  0.00     0.032 A 
BRANCH  32  35
HETATM   35  O   UNL     1      44.823 -19.866   4.560  1.00  0.00    -0.352 OA
BRANCH  35  36
HETATM   36  C   UNL     1      43.952 -20.819   5.166  1.00  0.00     0.171 C 
HETATM   37  C   UNL     1      43.375 -20.193   6.422  1.00  0.00     0.034 C 
ENDBRANCH  35  36
ENDBRANCH  32  35
ENDBRANCH  26  29
ENDBRANCH   1  25
TORSDOF 9
ENDMDL
MODEL 7
REMARK VINA RESULT:      -7.9      1.681      2.557
REMARK  9 active torsions:
REMARK  status: ('A' for Active; 'I' for Inactive)
REMARK    1  A    between atoms: C_2  and  O_3 
REMARK    2  A    between atoms: O_3  and  C_4 
REMARK    3  A    between atoms: C_7  and  N_8 
REMARK       I    between atoms: N_8  and  C_9 
REMARK    4  A    between atoms: C_9  and  C_10 
REMARK    5  A    between atoms: C_11  and  N_12 
REMARK       I    between atoms: N_12  and  C_13 
REMARK    6  A    between atoms: C_13  and  C_14 
REMARK    7  A    between atoms: C_14  and  N_15 
REMARK    8  A    between atoms: N_15  and  C_18 
REMARK    9  A    between atoms: C_18  and  C_19 
ROOT
HETATM    1  C   UNL     1      39.954 -13.219   0.275  1.00  0.00     0.073 A 
HETATM    2  C   UNL     1      39.356 -12.004   0.640  1.00  0.00     0.093 A 
HETATM    3  S   UNL     1      38.062 -11.548  -0.379  1.00  0.00    -0.075 SA
HETATM    4  C   UNL     1      38.300 -12.895  -1.328  1.00  0.00    -0.008 A 
HETATM    5  C   UNL     1      39.325 -13.702  -0.914  1.00  0.00    -0.026 A 
HETATM    6  C   UNL     1      39.474 -14.853  -1.852  1.00  0.00     0.041 C 
HETATM    7  C   UNL     1      38.616 -14.413  -3.077  1.00  0.00     0.010 C 
HETATM    8  C   UNL     1      37.604 -13.356  -2.552  1.00  0.00     0.047 C 
ENDROOT
BRANCH   2   9
HETATM    9  N   UNL     1      39.752 -11.201   1.704  1.00  0.00    -0.319 N 
HETATM   10  C   UNL     1      40.660 -10.171   1.672  1.00  0.00     0.248 C 
HETATM   11  O   UNL     1      41.248  -9.683   0.707  1.00  0.00    -0.271 OA
HETATM   12  H   UNL     1      39.261 -11.427   2.573  1.00  0.00     0.169 HD
BRANCH  10  13
HETATM   13  C   UNL     1      40.944  -9.550   3.040  1.00  0.00     0.335 C 
BRANCH  13  14
HETATM   14  N   UNL     1      42.202 -10.161   3.604  1.00  0.00    -0.059 N 
HETATM   15  H   UNL     1      42.725 -10.521   2.783  1.00  0.00     0.278 HD
HETATM   16  H   UNL     1      42.823  -9.422   3.956  1.00  0.00     0.278 HD
BRANCH  14  17
HETATM   17  C   UNL     1      42.068 -11.264   4.596  1.00  0.00     0.215 C 
HETATM   18  C   UNL     1      40.670 -11.247   5.215  1.00  0.00     0.045 C 
BRANCH  17  19
HETATM   19  C   UNL     1      43.169 -11.153   5.628  1.00  0.00    -0.028 A 
HETATM   20  C   UNL     1      42.924 -10.659   6.922  1.00  0.00     0.009 A 
HETATM   21  C   UNL     1      43.964 -10.533   7.845  1.00  0.00     0.001 A 
HETATM   22  C   UNL     1      45.261 -10.892   7.489  1.00  0.00     0.000 A 
HETATM   23  C   UNL     1      45.521 -11.379   6.212  1.00  0.00     0.001 A 
HETATM   24  C   UNL     1      44.485 -11.505   5.284  1.00  0.00     0.009 A 
ENDBRANCH  17  19
ENDBRANCH  14  17
ENDBRANCH  13  14
ENDBRANCH  10  13
ENDBRANCH   2   9
BRANCH   1  25
HETATM   25  C   UNL     1      41.051 -13.799   1.074  1.00  0.00     0.259 C 
HETATM   26  N   UNL     1      40.767 -15.023   1.641  1.00  0.00    -0.323 N 
HETATM   27  H   UNL     1      39.841 -15.392   1.486  1.00  0.00     0.169 HD
HETATM   28  O   UNL     1      42.091 -13.159   1.229  1.00  0.00    -0.267 OA
BRANCH  26  29
HETATM   29  C   UNL     1      41.565 -15.787   2.516  1.00  0.00     0.035 A 
HETATM   30  C   UNL     1      41.404 -15.829   3.901  1.00  0.00     0.032 A 
HETATM   31  C   UNL     1      42.215 -16.660   4.689  1.00  0.00     0.039 A 
HETATM   32  C   UNL     1      43.194 -17.456   4.098  1.00  0.00     0.068 A 
HETATM   33  C   UNL     1      43.384 -17.386   2.720  1.00  0.00     0.039 A 
HETATM   34  C   UNL     1      42.575 -16.562   1.933  1.00  0.00     0.032 A 
BRANCH  32  35
HETATM   35  O   UNL     1      44.028 -18.320   4.749  1.00  0.00    -0.352 OA
BRANCH  35  36
HETATM   36  C   UNL     1      44.152 -19.630   4.199  1.00  0.00     0.171 C 
HETATM   37  C   UNL     1      44.018 -20.628   5.335  1.00  0.00     0.034 C 
ENDBRANCH  35  36
ENDBRANCH  32  35
ENDBRANCH  26  29
ENDBRANCH   1  25
TORSDOF 9
ENDMDL
MODEL 8
REMARK VINA RESULT:      -7.8      2.731      7.388
REMARK  9 active torsions:
REMARK  status: ('A' for Active; 'I' for Inactive)
REMARK    1  A    between atoms: C_2  and  O_3 
REMARK    2  A    between atoms: O_3  and  C_4 
REMARK    3  A    between atoms: C_7  and  N_8 
REMARK       I    between atoms: N_8  and  C_9 
REMARK    4  A    between atoms: C_9  and  C_10 
REMARK    5  A    between atoms: C_11  and  N_12 
REMARK       I    between atoms: N_12  and  C_13 
REMARK    6  A    between atoms: C_13  and  C_14 
REMARK    7  A    between atoms: C_14  and  N_15 
REMARK    8  A    between atoms: N_15  and  C_18 
REMARK    9  A    between atoms: C_18  and  C_19 
ROOT
HETATM    1  C   UNL     1      41.812 -15.370   4.163  1.00  0.00     0.073 A 
HETATM    2  C   UNL     1      40.823 -15.165   3.191  1.00  0.00     0.093 A 
HETATM    3  S   UNL     1      40.781 -16.384   1.994  1.00  0.00    -0.075 SA
HETATM    4  C   UNL     1      42.074 -17.158   2.700  1.00  0.00    -0.008 A 
HETATM    5  C   UNL     1      42.556 -16.543   3.824  1.00  0.00    -0.026 A 
HETATM    6  C   UNL     1      43.730 -17.296   4.351  1.00  0.00     0.041 C 
HETATM    7  C   UNL     1      44.088 -18.248   3.169  1.00  0.00     0.010 C 
HETATM    8  C   UNL     1      42.802 -18.389   2.309  1.00  0.00     0.047 C 
ENDROOT
BRANCH   2   9
HETATM    9  N   UNL     1      39.952 -14.082   3.146  1.00  0.00    -0.319 N 
HETATM   10  C   UNL     1      40.270 -12.772   2.878  1.00  0.00     0.248 C 
HETATM   11  O   UNL     1      41.351 -12.288   2.542  1.00  0.00    -0.271 OA
HETATM   12  H   UNL     1      38.979 -14.352   3.309  1.00  0.00     0.169 HD
BRANCH  10  13
HETATM   13  C   UNL     1      39.090 -11.809   3.002  1.00  0.00     0.335 C 
BRANCH  13  14
HETATM   14  N   UNL     1      38.158 -12.022   1.836  1.00  0.00    -0.059 N 
HETATM   15  H   UNL     1      38.100 -13.052   1.715  1.00  0.00     0.278 HD
HETATM   16  H   UNL     1      37.198 -11.775   2.105  1.00  0.00     0.278 HD
BRANCH  14  17
HETATM   17  C   UNL     1      38.519 -11.416   0.524  1.00  0.00     0.215 C 
HETATM   18  C   UNL     1      37.539 -10.296   0.176  1.00  0.00     0.045 C 
BRANCH  17  19
HETATM   19  C   UNL     1      38.577 -12.496  -0.534  1.00  0.00    -0.028 A 
HETATM   20  C   UNL     1      39.545 -13.516  -0.499  1.00  0.00     0.009 A 
HETATM   21  C   UNL     1      39.600 -14.480  -1.506  1.00  0.00     0.001 A 
HETATM   22  C   UNL     1      38.695 -14.439  -2.563  1.00  0.00     0.000 A 
HETATM   23  C   UNL     1      37.733 -13.435  -2.615  1.00  0.00     0.001 A 
HETATM   24  C   UNL     1      37.675 -12.467  -1.611  1.00  0.00     0.009 A 
ENDBRANCH  17  19
ENDBRANCH  14  17
ENDBRANCH  13  14
ENDBRANCH  10  13
ENDBRANCH   2   9
BRANCH   1  25
HETATM   25  C   UNL     1      41.960 -14.448   5.307  1.00  0.00     0.259 C 
HETATM   26  N   UNL     1      42.874 -13.434   5.116  1.00  0.00    -0.323 N 
HETATM   27  H   UNL     1      43.371 -13.429   4.239  1.00  0.00     0.169 HD
HETATM   28  O   UNL     1      41.330 -14.663   6.342  1.00  0.00    -0.267 OA
BRANCH  26  29
HETATM   29  C   UNL     1      43.297 -12.455   6.038  1.00  0.00     0.035 A 
HETATM   30  C   UNL     1      44.527 -12.468   6.696  1.00  0.00     0.032 A 
HETATM   31  C   UNL     1      44.885 -11.421   7.560  1.00  0.00     0.039 A 
HETATM   32  C   UNL     1      44.015 -10.353   7.772  1.00  0.00     0.068 A 
HETATM   33  C   UNL     1      42.770 -10.359   7.149  1.00  0.00     0.039 A 
HETATM   34  C   UNL     1      42.413 -11.397   6.285  1.00  0.00     0.032 A 
BRANCH  32  35
HETATM   35  O   UNL     1      44.254  -9.269   8.567  1.00  0.00    -0.352 OA
BRANCH  35  36
HETATM   36  C   UNL     1      44.923  -9.514   9.803  1.00  0.00     0.171 C 
HETATM   37  C   UNL     1      44.040  -8.992  10.922  1.00  0.00     0.034 C 
ENDBRANCH  35  36
ENDBRANCH  32  35
ENDBRANCH  26  29
ENDBRANCH   1  25
TORSDOF 9
ENDMDL
MODEL 9
REMARK VINA RESULT:      -7.6      2.497      3.812
REMARK  9 active torsions:
REMARK  status: ('A' for Active; 'I' for Inactive)
REMARK    1  A    between atoms: C_2  and  O_3 
REMARK    2  A    between atoms: O_3  and  C_4 
REMARK    3  A    between atoms: C_7  and  N_8 
REMARK       I    between atoms: N_8  and  C_9 
REMARK    4  A    between atoms: C_9  and  C_10 
REMARK    5  A    between atoms: C_11  and  N_12 
REMARK       I    between atoms: N_12  and  C_13 
REMARK    6  A    between atoms: C_13  and  C_14 
REMARK    7  A    between atoms: C_14  and  N_15 
REMARK    8  A    between atoms: N_15  and  C_18 
REMARK    9  A    between atoms: C_18  and  C_19 
ROOT
HETATM    1  C   UNL     1      40.115 -12.393   2.591  1.00  0.00     0.073 A 
HETATM    2  C   UNL     1      39.463 -11.334   3.238  1.00  0.00     0.093 A 
HETATM    3  S   UNL     1      38.230 -10.616   2.297  1.00  0.00    -0.075 SA
HETATM    4  C   UNL     1      38.565 -11.640   1.029  1.00  0.00    -0.008 A 
HETATM    5  C   UNL     1      39.580 -12.526   1.272  1.00  0.00    -0.026 A 
HETATM    6  C   UNL     1      39.820 -13.365   0.062  1.00  0.00     0.041 C 
HETATM    7  C   UNL     1      39.035 -12.603  -1.049  1.00  0.00     0.010 C 
HETATM    8  C   UNL     1      37.964 -11.742  -0.322  1.00  0.00     0.047 C 
ENDROOT
BRANCH   2   9
HETATM    9  N   UNL     1      39.766 -10.861   4.510  1.00  0.00    -0.319 N 
HETATM   10  C   UNL     1      39.442 -11.444   5.711  1.00  0.00     0.248 C 
HETATM   11  O   UNL     1      38.901 -12.528   5.927  1.00  0.00    -0.271 OA
HETATM   12  H   UNL     1      40.317  -9.999   4.488  1.00  0.00     0.169 HD
BRANCH  10  13
HETATM   13  C   UNL     1      39.842 -10.616   6.931  1.00  0.00     0.335 C 
BRANCH  13  14
HETATM   14  N   UNL     1      41.326 -10.758   7.156  1.00  0.00    -0.059 N 
HETATM   15  H   UNL     1      41.423 -11.459   7.915  1.00  0.00     0.278 HD
HETATM   16  H   UNL     1      41.758 -11.236   6.356  1.00  0.00     0.278 HD
BRANCH  14  17
HETATM   17  C   UNL     1      42.102  -9.544   7.536  1.00  0.00     0.215 C 
HETATM   18  C   UNL     1      41.804  -8.405   6.562  1.00  0.00     0.045 C 
BRANCH  17  19
HETATM   19  C   UNL     1      43.575  -9.887   7.607  1.00  0.00    -0.028 A 
HETATM   20  C   UNL     1      44.487  -9.087   8.317  1.00  0.00     0.009 A 
HETATM   21  C   UNL     1      45.846  -9.404   8.338  1.00  0.00     0.001 A 
HETATM   22  C   UNL     1      46.314 -10.520   7.650  1.00  0.00     0.000 A 
HETATM   23  C   UNL     1      45.425 -11.321   6.940  1.00  0.00     0.001 A 
HETATM   24  C   UNL     1      44.064 -11.007   6.913  1.00  0.00     0.009 A 
ENDBRANCH  17  19
ENDBRANCH  14  17
ENDBRANCH  13  14
ENDBRANCH  10  13
ENDBRANCH   2   9
BRANCH   1  25
HETATM   25  C   UNL     1      41.170 -13.170   3.271  1.00  0.00     0.259 C 
HETATM   26  N   UNL     1      40.897 -14.513   3.413  1.00  0.00    -0.323 N 
HETATM   27  H   UNL     1      40.004 -14.835   3.072  1.00  0.00     0.169 HD
HETATM   28  O   UNL     1      42.164 -12.588   3.705  1.00  0.00    -0.267 OA
BRANCH  26  29
HETATM   29  C   UNL     1      41.657 -15.493   4.084  1.00  0.00     0.035 A 
HETATM   30  C   UNL     1      41.536 -15.796   5.440  1.00  0.00     0.032 A 
HETATM   31  C   UNL     1      42.301 -16.825   6.012  1.00  0.00     0.039 A 
HETATM   32  C   UNL     1      43.192 -17.559   5.232  1.00  0.00     0.068 A 
HETATM   33  C   UNL     1      43.345 -17.230   3.887  1.00  0.00     0.039 A 
HETATM   34  C   UNL     1      42.582 -16.209   3.315  1.00  0.00     0.032 A 
BRANCH  32  35
HETATM   35  O   UNL     1      43.972 -18.594   5.662  1.00  0.00    -0.352 OA
BRANCH  35  36
HETATM   36  C   UNL     1      44.326 -19.577   4.691  1.00  0.00     0.171 C 
HETATM   37  C   UNL     1      43.982 -20.941   5.262  1.00  0.00     0.034 C 
ENDBRANCH  35  36
ENDBRANCH  32  35
ENDBRANCH  26  29
ENDBRANCH   1  25
TORSDOF 9
ENDMDL
MODEL 10
REMARK VINA RESULT:      -7.6      2.732      6.843
REMARK  9 active torsions:
REMARK  status: ('A' for Active; 'I' for Inactive)
REMARK    1  A    between atoms: C_2  and  O_3 
REMARK    2  A    between atoms: O_3  and  C_4 
REMARK    3  A    between atoms: C_7  and  N_8 
REMARK       I    between atoms: N_8  and  C_9 
REMARK    4  A    between atoms: C_9  and  C_10 
REMARK    5  A    between atoms: C_11  and  N_12 
REMARK       I    between atoms: N_12  and  C_13 
REMARK    6  A    between atoms: C_13  and  C_14 
REMARK    7  A    between atoms: C_14  and  N_15 
REMARK    8  A    between atoms: N_15  and  C_18 
REMARK    9  A    between atoms: C_18  and  C_19 
ROOT
HETATM    1  C   UNL     1      41.816 -10.362   4.847  1.00  0.00     0.073 A 
HETATM    2  C   UNL     1      42.046 -10.871   6.133  1.00  0.00     0.093 A 
HETATM    3  S   UNL     1      41.822  -9.716   7.373  1.00  0.00    -0.075 SA
HETATM    4  C   UNL     1      41.472  -8.539   6.249  1.00  0.00    -0.008 A 
HETATM    5  C   UNL     1      41.510  -8.969   4.950  1.00  0.00    -0.026 A 
HETATM    6  C   UNL     1      41.221  -7.831   4.031  1.00  0.00     0.041 C 
HETATM    7  C   UNL     1      41.357  -6.590   4.964  1.00  0.00     0.010 C 
HETATM    8  C   UNL     1      41.147  -7.102   6.416  1.00  0.00     0.047 C 
ENDROOT
BRANCH   2   9
HETATM    9  N   UNL     1      42.442 -12.172   6.423  1.00  0.00    -0.319 N 
HETATM   10  C   UNL     1      43.727 -12.639   6.552  1.00  0.00     0.248 C 
HETATM   11  O   UNL     1      44.787 -12.014   6.525  1.00  0.00    -0.271 OA
HETATM   12  H   UNL     1      41.648 -12.800   6.578  1.00  0.00     0.169 HD
BRANCH  10  13
HETATM   13  C   UNL     1      43.820 -14.147   6.781  1.00  0.00     0.335 C 
BRANCH  13  14
HETATM   14  N   UNL     1      43.155 -14.860   5.630  1.00  0.00    -0.059 N 
HETATM   15  H   UNL     1      42.364 -14.248   5.349  1.00  0.00     0.278 HD
HETATM   16  H   UNL     1      43.763 -14.832   4.803  1.00  0.00     0.278 HD
BRANCH  14  17
HETATM   17  C   UNL     1      42.627 -16.233   5.861  1.00  0.00     0.215 C 
HETATM   18  C   UNL     1      43.123 -16.768   7.204  1.00  0.00     0.045 C 
BRANCH  17  19
HETATM   19  C   UNL     1      43.006 -17.123   4.697  1.00  0.00    -0.028 A 
HETATM   20  C   UNL     1      42.496 -16.908   3.404  1.00  0.00     0.009 A 
HETATM   21  C   UNL     1      42.833 -17.765   2.355  1.00  0.00     0.001 A 
HETATM   22  C   UNL     1      43.679 -18.847   2.580  1.00  0.00     0.000 A 
HETATM   23  C   UNL     1      44.190 -19.076   3.854  1.00  0.00     0.001 A 
HETATM   24  C   UNL     1      43.854 -18.224   4.908  1.00  0.00     0.009 A 
ENDBRANCH  17  19
ENDBRANCH  14  17
ENDBRANCH  13  14
ENDBRANCH  10  13
ENDBRANCH   2   9
BRANCH   1  25
HETATM   25  C   UNL     1      41.908 -11.230   3.656  1.00  0.00     0.259 C 
HETATM   26  N   UNL     1      40.697 -11.688   3.181  1.00  0.00    -0.323 N 
HETATM   27  H   UNL     1      39.875 -11.418   3.698  1.00  0.00     0.169 HD
HETATM   28  O   UNL     1      43.015 -11.528   3.209  1.00  0.00    -0.267 OA
BRANCH  26  29
HETATM   29  C   UNL     1      40.458 -12.589   2.124  1.00  0.00     0.035 A 
HETATM   30  C   UNL     1      40.393 -13.976   2.267  1.00  0.00     0.032 A 
HETATM   31  C   UNL     1      40.099 -14.793   1.164  1.00  0.00     0.039 A 
HETATM   32  C   UNL     1      39.867 -14.230  -0.089  1.00  0.00     0.068 A 
HETATM   33  C   UNL     1      39.972 -12.850  -0.243  1.00  0.00     0.039 A 
HETATM   34  C   UNL     1      40.261 -12.034   0.854  1.00  0.00     0.032 A 
BRANCH  32  35
HETATM   35  O   UNL     1      39.551 -14.912  -1.230  1.00  0.00    -0.352 OA
BRANCH  35  36
HETATM   36  C   UNL     1      39.389 -14.137  -2.417  1.00  0.00     0.171 C 
HETATM   37  C   UNL     1      38.334 -14.812  -3.275  1.00  0.00     0.034 C 
ENDBRANCH  35  36
ENDBRANCH  32  35
ENDBRANCH  26  29
ENDBRANCH   1  25
TORSDOF 9
ENDMDL
