MODEL 1
REMARK VINA RESULT:      -9.5      0.000      0.000
REMARK  2 active torsions:
REMARK  status: ('A' for Active; 'I' for Inactive)
REMARK    1  A    between atoms: C_9  and  C_10 
REMARK       I    between atoms: C_10  and  N_11 
REMARK    2  A    between atoms: N_11  and  C_12 
ROOT
HETATM    1  C   UNL     1      42.651 -14.869   2.602  1.00  0.00     0.277 C 
HETATM    2  N   UNL     1      41.324 -15.057   2.255  1.00  0.00    -0.322 N 
HETATM    3  O   UNL     1      43.423 -14.062   2.096  1.00  0.00    -0.266 OA
HETATM    4  H   UNL     1      40.861 -15.762   2.825  1.00  0.00     0.169 HD
ENDROOT
BRANCH   2   5
HETATM    5  C   UNL     1      40.572 -14.392   1.274  1.00  0.00     0.037 A 
HETATM    6  C   UNL     1      40.262 -14.940   0.027  1.00  0.00     0.062 A 
HETATM    7  C   UNL     1      39.515 -14.202  -0.897  1.00  0.00     0.070 A 
HETATM    8  C   UNL     1      39.073 -12.916  -0.586  1.00  0.00     0.096 A 
HETATM    9  N   UNL     1      39.189 -14.776  -2.125  1.00  0.00    -0.323 N 
HETATM   10  O   UNL     1      38.313 -12.148  -1.422  1.00  0.00    -0.340 OA
HETATM   11  C   UNL     1      39.365 -12.371   0.661  1.00  0.00     0.041 A 
HETATM   12  C   UNL     1      38.255 -12.608  -2.764  1.00  0.00     0.278 C 
HETATM   13  C   UNL     1      38.513 -14.079  -3.087  1.00  0.00     0.246 C 
HETATM   14  O   UNL     1      38.201 -14.597  -4.156  1.00  0.00    -0.271 OA
HETATM   15  C   UNL     1      40.112 -13.106   1.587  1.00  0.00     0.032 A 
HETATM   16  H   UNL     1      39.434 -15.735  -2.335  1.00  0.00     0.169 HD
ENDBRANCH   2   5
BRANCH   1  17
HETATM   17  C   UNL     1      43.056 -15.763   3.703  1.00  0.00     0.157 A 
HETATM   18  C   UNL     1      43.340 -17.159   3.627  1.00  0.00     0.029 A 
HETATM   19  C   UNL     1      43.359 -18.139   2.614  1.00  0.00     0.023 A 
HETATM   20  C   UNL     1      43.675 -17.531   4.923  1.00  0.00     0.063 A 
HETATM   21  C   UNL     1      43.720 -19.459   2.932  1.00  0.00    -0.061 A 
HETATM   22  C   UNL     1      43.756 -20.516   1.866  1.00  0.00     0.048 C 
HETATM   23  C   UNL     1      44.044 -19.792   4.254  1.00  0.00     0.009 A 
HETATM   24  C   UNL     1      44.027 -18.836   5.276  1.00  0.00     0.032 A 
HETATM   25  N   UNL     1      43.573 -16.387   5.664  1.00  0.00    -0.277 N 
HETATM   26  H   UNL     1      43.742 -16.286   6.658  1.00  0.00     0.189 HD
HETATM   27  N   UNL     1      43.218 -15.296   4.962  1.00  0.00    -0.168 NA
ENDBRANCH   1  17
TORSDOF 2
ENDMDL
MODEL 2
REMARK VINA RESULT:      -9.1      1.101      1.199
REMARK  2 active torsions:
REMARK  status: ('A' for Active; 'I' for Inactive)
REMARK    1  A    between atoms: C_9  and  C_10 
REMARK       I    between atoms: C_10  and  N_11 
REMARK    2  A    between atoms: N_11  and  C_12 
ROOT
HETATM    1  C   UNL     1      42.770 -15.230   3.717  1.00  0.00     0.277 C 
HETATM    2  N   UNL     1      41.609 -15.495   3.011  1.00  0.00    -0.322 N 
HETATM    3  O   UNL     1      43.414 -14.187   3.685  1.00  0.00    -0.266 OA
HETATM    4  H   UNL     1      41.225 -16.416   3.210  1.00  0.00     0.169 HD
ENDROOT
BRANCH   2   5
HETATM    5  C   UNL     1      40.915 -14.660   2.121  1.00  0.00     0.037 A 
HETATM    6  C   UNL     1      41.019 -14.749   0.731  1.00  0.00     0.062 A 
HETATM    7  C   UNL     1      40.299 -13.870  -0.084  1.00  0.00     0.070 A 
HETATM    8  C   UNL     1      39.473 -12.896   0.480  1.00  0.00     0.096 A 
HETATM    9  N   UNL     1      40.391 -13.992  -1.470  1.00  0.00    -0.323 N 
HETATM   10  O   UNL     1      38.715 -12.025  -0.250  1.00  0.00    -0.340 OA
HETATM   11  C   UNL     1      39.354 -12.814   1.864  1.00  0.00     0.041 A 
HETATM   12  C   UNL     1      39.052 -11.952  -1.627  1.00  0.00     0.278 C 
HETATM   13  C   UNL     1      39.757 -13.123  -2.312  1.00  0.00     0.246 C 
HETATM   14  O   UNL     1      39.815 -13.251  -3.532  1.00  0.00    -0.271 OA
HETATM   15  C   UNL     1      40.072 -13.691   2.680  1.00  0.00     0.032 A 
HETATM   16  H   UNL     1      40.923 -14.742  -1.893  1.00  0.00     0.169 HD
ENDBRANCH   2   5
BRANCH   1  17
HETATM   17  C   UNL     1      43.163 -16.373   4.563  1.00  0.00     0.157 A 
HETATM   18  C   UNL     1      43.406 -17.715   4.149  1.00  0.00     0.029 A 
HETATM   19  C   UNL     1      43.383 -18.423   2.930  1.00  0.00     0.023 A 
HETATM   20  C   UNL     1      43.747 -18.397   5.311  1.00  0.00     0.063 A 
HETATM   21  C   UNL     1      43.710 -19.790   2.916  1.00  0.00    -0.061 A 
HETATM   22  C   UNL     1      43.701 -20.560   1.627  1.00  0.00     0.048 C 
HETATM   23  C   UNL     1      44.041 -20.439   4.112  1.00  0.00     0.009 A 
HETATM   24  C   UNL     1      44.065 -19.756   5.334  1.00  0.00     0.032 A 
HETATM   25  N   UNL     1      43.688 -17.462   6.307  1.00  0.00    -0.277 N 
HETATM   26  H   UNL     1      43.873 -17.607   7.293  1.00  0.00     0.189 HD
HETATM   27  N   UNL     1      43.355 -16.225   5.894  1.00  0.00    -0.168 NA
ENDBRANCH   1  17
TORSDOF 2
ENDMDL
MODEL 3
REMARK VINA RESULT:      -8.7      1.879      2.427
REMARK  2 active torsions:
REMARK  status: ('A' for Active; 'I' for Inactive)
REMARK    1  A    between atoms: C_9  and  C_10 
REMARK       I    between atoms: C_10  and  N_11 
REMARK    2  A    between atoms: N_11  and  C_12 
ROOT
HETATM    1  C   UNL     1      40.887 -15.117   2.468  1.00  0.00     0.277 C 
HETATM    2  N   UNL     1      41.436 -14.407   1.414  1.00  0.00    -0.322 N 
HETATM    3  O   UNL     1      39.695 -15.337   2.647  1.00  0.00    -0.266 OA
HETATM    4  H   UNL     1      42.453 -14.370   1.447  1.00  0.00     0.169 HD
ENDROOT
BRANCH   2   5
HETATM    5  C   UNL     1      40.781 -13.792   0.335  1.00  0.00     0.037 A 
HETATM    6  C   UNL     1      40.889 -12.432   0.034  1.00  0.00     0.062 A 
HETATM    7  C   UNL     1      40.193 -11.898  -1.054  1.00  0.00     0.070 A 
HETATM    8  C   UNL     1      39.385 -12.713  -1.849  1.00  0.00     0.096 A 
HETATM    9  N   UNL     1      40.335 -10.544  -1.358  1.00  0.00    -0.323 N 
HETATM   10  O   UNL     1      38.702 -12.271  -2.946  1.00  0.00    -0.340 OA
HETATM   11  C   UNL     1      39.287 -14.071  -1.563  1.00  0.00     0.041 A 
HETATM   12  C   UNL     1      38.604 -10.858  -3.057  1.00  0.00     0.278 C 
HETATM   13  C   UNL     1      39.632  -9.958  -2.373  1.00  0.00     0.246 C 
HETATM   14  O   UNL     1      39.782  -8.773  -2.659  1.00  0.00    -0.271 OA
HETATM   15  C   UNL     1      39.982 -14.608  -0.475  1.00  0.00     0.032 A 
HETATM   16  H   UNL     1      40.977  -9.957  -0.841  1.00  0.00     0.169 HD
ENDBRANCH   2   5
BRANCH   1  17
HETATM   17  C   UNL     1      41.928 -15.619   3.384  1.00  0.00     0.157 A 
HETATM   18  C   UNL     1      42.622 -16.863   3.310  1.00  0.00     0.029 A 
HETATM   19  C   UNL     1      42.615 -17.981   2.451  1.00  0.00     0.023 A 
HETATM   20  C   UNL     1      43.494 -16.856   4.392  1.00  0.00     0.063 A 
HETATM   21  C   UNL     1      43.489 -19.053   2.702  1.00  0.00    -0.061 A 
HETATM   22  C   UNL     1      43.506 -20.249   1.794  1.00  0.00     0.048 C 
HETATM   23  C   UNL     1      44.347 -19.008   3.809  1.00  0.00     0.009 A 
HETATM   24  C   UNL     1      44.366 -17.909   4.676  1.00  0.00     0.032 A 
HETATM   25  N   UNL     1      43.276 -15.663   5.022  1.00  0.00    -0.277 N 
HETATM   26  H   UNL     1      43.738 -15.320   5.857  1.00  0.00     0.189 HD
HETATM   27  N   UNL     1      42.351 -14.881   4.435  1.00  0.00    -0.168 NA
ENDBRANCH   1  17
TORSDOF 2
ENDMDL
MODEL 4
REMARK VINA RESULT:      -8.6      1.721      2.494
REMARK  2 active torsions:
REMARK  status: ('A' for Active; 'I' for Inactive)
REMARK    1  A    between atoms: C_9  and  C_10 
REMARK       I    between atoms: C_10  and  N_11 
REMARK    2  A    between atoms: N_11  and  C_12 
ROOT
HETATM    1  C   UNL     1      42.723 -15.118   3.437  1.00  0.00     0.277 C 
HETATM    2  N   UNL     1      41.483 -15.356   2.871  1.00  0.00    -0.322 N 
HETATM    3  O   UNL     1      43.418 -14.124   3.263  1.00  0.00    -0.266 OA
HETATM    4  H   UNL     1      41.069 -16.235   3.176  1.00  0.00     0.169 HD
ENDROOT
BRANCH   2   5
HETATM    5  C   UNL     1      40.750 -14.544   1.992  1.00  0.00     0.037 A 
HETATM    6  C   UNL     1      39.985 -13.449   2.401  1.00  0.00     0.062 A 
HETATM    7  C   UNL     1      39.276 -12.697   1.459  1.00  0.00     0.070 A 
HETATM    8  C   UNL     1      39.323 -13.031   0.105  1.00  0.00     0.096 A 
HETATM    9  N   UNL     1      38.541 -11.590   1.882  1.00  0.00    -0.323 N 
HETATM   10  O   UNL     1      38.685 -12.326  -0.876  1.00  0.00    -0.340 OA
HETATM   11  C   UNL     1      40.097 -14.111  -0.310  1.00  0.00     0.041 A 
HETATM   12  C   UNL     1      37.706 -11.410  -0.410  1.00  0.00     0.278 C 
HETATM   13  C   UNL     1      37.782 -10.857   1.013  1.00  0.00     0.246 C 
HETATM   14  O   UNL     1      37.161  -9.864   1.382  1.00  0.00    -0.271 OA
HETATM   15  C   UNL     1      40.807 -14.863   0.629  1.00  0.00     0.032 A 
HETATM   16  H   UNL     1      38.560 -11.289   2.848  1.00  0.00     0.169 HD
ENDBRANCH   2   5
BRANCH   1  17
HETATM   17  C   UNL     1      43.135 -16.221   4.326  1.00  0.00     0.157 A 
HETATM   18  C   UNL     1      43.377 -17.580   3.967  1.00  0.00     0.029 A 
HETATM   19  C   UNL     1      43.337 -18.340   2.781  1.00  0.00     0.023 A 
HETATM   20  C   UNL     1      43.740 -18.208   5.152  1.00  0.00     0.063 A 
HETATM   21  C   UNL     1      43.670 -19.705   2.820  1.00  0.00    -0.061 A 
HETATM   22  C   UNL     1      43.645 -20.531   1.567  1.00  0.00     0.048 C 
HETATM   23  C   UNL     1      44.024 -20.300   4.038  1.00  0.00     0.009 A 
HETATM   24  C   UNL     1      44.065 -19.565   5.229  1.00  0.00     0.032 A 
HETATM   25  N   UNL     1      43.692 -17.231   6.107  1.00  0.00    -0.277 N 
HETATM   26  H   UNL     1      43.894 -17.333   7.095  1.00  0.00     0.189 HD
HETATM   27  N   UNL     1      43.347 -16.015   5.646  1.00  0.00    -0.168 NA
ENDBRANCH   1  17
TORSDOF 2
ENDMDL
MODEL 5
REMARK VINA RESULT:      -8.5      1.726      2.556
REMARK  2 active torsions:
REMARK  status: ('A' for Active; 'I' for Inactive)
REMARK    1  A    between atoms: C_9  and  C_10 
REMARK       I    between atoms: C_10  and  N_11 
REMARK    2  A    between atoms: N_11  and  C_12 
ROOT
HETATM    1  C   UNL     1      43.033 -15.868   1.933  1.00  0.00     0.277 C 
HETATM    2  N   UNL     1      41.679 -15.679   1.718  1.00  0.00    -0.322 N 
HETATM    3  O   UNL     1      43.940 -15.174   1.488  1.00  0.00    -0.266 OA
HETATM    4  H   UNL     1      41.100 -16.358   2.207  1.00  0.00     0.169 HD
ENDROOT
BRANCH   2   5
HETATM    5  C   UNL     1      41.043 -14.680   0.964  1.00  0.00     0.037 A 
HETATM    6  C   UNL     1      40.009 -14.929   0.058  1.00  0.00     0.062 A 
HETATM    7  C   UNL     1      39.438 -13.875  -0.661  1.00  0.00     0.070 A 
HETATM    8  C   UNL     1      39.890 -12.567  -0.482  1.00  0.00     0.096 A 
HETATM    9  N   UNL     1      38.387 -14.138  -1.540  1.00  0.00    -0.323 N 
HETATM   10  O   UNL     1      39.360 -11.483  -1.123  1.00  0.00    -0.340 OA
HETATM   11  C   UNL     1      40.908 -12.311   0.432  1.00  0.00     0.041 A 
HETATM   12  C   UNL     1      38.522 -11.795  -2.226  1.00  0.00     0.278 C 
HETATM   13  C   UNL     1      37.832 -13.155  -2.311  1.00  0.00     0.246 C 
HETATM   14  O   UNL     1      36.887 -13.383  -3.061  1.00  0.00    -0.271 OA
HETATM   15  C   UNL     1      41.481 -13.363   1.151  1.00  0.00     0.032 A 
HETATM   16  H   UNL     1      37.996 -15.067  -1.622  1.00  0.00     0.169 HD
ENDBRANCH   2   5
BRANCH   1  17
HETATM   17  C   UNL     1      43.286 -17.031   2.806  1.00  0.00     0.157 A 
HETATM   18  C   UNL     1      43.272 -17.064   4.231  1.00  0.00     0.029 A 
HETATM   19  C   UNL     1      43.041 -16.137   5.268  1.00  0.00     0.023 A 
HETATM   20  C   UNL     1      43.563 -18.381   4.566  1.00  0.00     0.063 A 
HETATM   21  C   UNL     1      43.102 -16.563   6.605  1.00  0.00    -0.061 A 
HETATM   22  C   UNL     1      42.849 -15.594   7.724  1.00  0.00     0.048 C 
HETATM   23  C   UNL     1      43.406 -17.898   6.898  1.00  0.00     0.009 A 
HETATM   24  C   UNL     1      43.644 -18.834   5.884  1.00  0.00     0.032 A 
HETATM   25  N   UNL     1      43.729 -19.027   3.372  1.00  0.00    -0.277 N 
HETATM   26  H   UNL     1      43.955 -20.005   3.233  1.00  0.00     0.189 HD
HETATM   27  N   UNL     1      43.553 -18.251   2.287  1.00  0.00    -0.168 NA
ENDBRANCH   1  17
TORSDOF 2
ENDMDL
MODEL 6
REMARK VINA RESULT:      -8.2      2.899      7.966
REMARK  2 active torsions:
REMARK  status: ('A' for Active; 'I' for Inactive)
REMARK    1  A    between atoms: C_9  and  C_10 
REMARK       I    between atoms: C_10  and  N_11 
REMARK    2  A    between atoms: N_11  and  C_12 
ROOT
HETATM    1  C   UNL     1      41.450 -13.792   2.248  1.00  0.00     0.277 C 
HETATM    2  N   UNL     1      42.700 -14.238   2.639  1.00  0.00    -0.322 N 
HETATM    3  O   UNL     1      40.398 -14.415   2.341  1.00  0.00    -0.266 OA
HETATM    4  H   UNL     1      43.432 -13.545   2.498  1.00  0.00     0.169 HD
ENDROOT
BRANCH   2   5
HETATM    5  C   UNL     1      43.050 -15.469   3.216  1.00  0.00     0.037 A 
HETATM    6  C   UNL     1      43.140 -16.665   2.500  1.00  0.00     0.062 A 
HETATM    7  C   UNL     1      43.486 -17.851   3.156  1.00  0.00     0.070 A 
HETATM    8  C   UNL     1      43.742 -17.853   4.528  1.00  0.00     0.096 A 
HETATM    9  N   UNL     1      43.600 -19.030   2.420  1.00  0.00    -0.323 N 
HETATM   10  O   UNL     1      44.117 -18.964   5.231  1.00  0.00    -0.340 OA
HETATM   11  C   UNL     1      43.670 -16.662   5.243  1.00  0.00     0.041 A 
HETATM   12  C   UNL     1      43.927 -20.193   4.547  1.00  0.00     0.278 C 
HETATM   13  C   UNL     1      43.876 -20.227   3.020  1.00  0.00     0.246 C 
HETATM   14  O   UNL     1      44.007 -21.259   2.367  1.00  0.00    -0.271 OA
HETATM   15  C   UNL     1      43.325 -15.476   4.590  1.00  0.00     0.032 A 
HETATM   16  H   UNL     1      43.494 -19.030   1.414  1.00  0.00     0.169 HD
ENDBRANCH   2   5
BRANCH   1  17
HETATM   17  C   UNL     1      41.509 -12.423   1.702  1.00  0.00     0.157 A 
HETATM   18  C   UNL     1      41.070 -11.981   0.419  1.00  0.00     0.029 A 
HETATM   19  C   UNL     1      40.473 -12.576  -0.711  1.00  0.00     0.023 A 
HETATM   20  C   UNL     1      41.339 -10.618   0.393  1.00  0.00     0.063 A 
HETATM   21  C   UNL     1      40.159 -11.782  -1.828  1.00  0.00    -0.061 A 
HETATM   22  C   UNL     1      39.513 -12.393  -3.038  1.00  0.00     0.048 C 
HETATM   23  C   UNL     1      40.454 -10.413  -1.814  1.00  0.00     0.009 A 
HETATM   24  C   UNL     1      41.051  -9.803  -0.704  1.00  0.00     0.032 A 
HETATM   25  N   UNL     1      41.901 -10.340   1.608  1.00  0.00    -0.277 N 
HETATM   26  H   UNL     1      42.227  -9.438   1.938  1.00  0.00     0.189 HD
HETATM   27  N   UNL     1      42.006 -11.398   2.432  1.00  0.00    -0.168 NA
ENDBRANCH   1  17
TORSDOF 2
ENDMDL
MODEL 7
REMARK VINA RESULT:      -8.0      2.106      2.617
REMARK  2 active torsions:
REMARK  status: ('A' for Active; 'I' for Inactive)
REMARK    1  A    between atoms: C_9  and  C_10 
REMARK       I    between atoms: C_10  and  N_11 
REMARK    2  A    between atoms: N_11  and  C_12 
ROOT
HETATM    1  C   UNL     1      40.692 -14.298   3.833  1.00  0.00     0.277 C 
HETATM    2  N   UNL     1      41.158 -14.712   2.597  1.00  0.00    -0.322 N 
HETATM    3  O   UNL     1      39.872 -13.410   4.035  1.00  0.00    -0.266 OA
HETATM    4  H   UNL     1      41.816 -15.487   2.659  1.00  0.00     0.169 HD
ENDROOT
BRANCH   2   5
HETATM    5  C   UNL     1      40.816 -14.229   1.324  1.00  0.00     0.037 A 
HETATM    6  C   UNL     1      41.193 -12.973   0.842  1.00  0.00     0.062 A 
HETATM    7  C   UNL     1      40.799 -12.565  -0.435  1.00  0.00     0.070 A 
HETATM    8  C   UNL     1      40.027 -13.404  -1.241  1.00  0.00     0.096 A 
HETATM    9  N   UNL     1      41.209 -11.320  -0.912  1.00  0.00    -0.323 N 
HETATM   10  O   UNL     1      39.632 -13.089  -2.511  1.00  0.00    -0.340 OA
HETATM   11  C   UNL     1      39.663 -14.662  -0.772  1.00  0.00     0.041 A 
HETATM   12  C   UNL     1      39.785 -11.721  -2.859  1.00  0.00     0.278 C 
HETATM   13  C   UNL     1      40.803 -10.847  -2.129  1.00  0.00     0.246 C 
HETATM   14  O   UNL     1      41.190  -9.764  -2.559  1.00  0.00    -0.271 OA
HETATM   15  C   UNL     1      40.055 -15.072   0.505  1.00  0.00     0.032 A 
HETATM   16  H   UNL     1      41.832 -10.734  -0.372  1.00  0.00     0.169 HD
ENDBRANCH   2   5
BRANCH   1  17
HETATM   17  C   UNL     1      41.292 -15.082   4.929  1.00  0.00     0.157 A 
HETATM   18  C   UNL     1      42.153 -16.213   4.816  1.00  0.00     0.029 A 
HETATM   19  C   UNL     1      42.720 -16.957   3.762  1.00  0.00     0.023 A 
HETATM   20  C   UNL     1      42.443 -16.580   6.124  1.00  0.00     0.063 A 
HETATM   21  C   UNL     1      43.566 -18.041   4.055  1.00  0.00    -0.061 A 
HETATM   22  C   UNL     1      44.189 -18.841   2.947  1.00  0.00     0.048 C 
HETATM   23  C   UNL     1      43.826 -18.380   5.389  1.00  0.00     0.009 A 
HETATM   24  C   UNL     1      43.269 -17.658   6.451  1.00  0.00     0.032 A 
HETATM   25  N   UNL     1      41.766 -15.686   6.907  1.00  0.00    -0.277 N 
HETATM   26  H   UNL     1      41.745 -15.655   7.920  1.00  0.00     0.189 HD
HETATM   27  N   UNL     1      41.073 -14.757   6.223  1.00  0.00    -0.168 NA
ENDBRANCH   1  17
TORSDOF 2
ENDMDL
MODEL 8
REMARK VINA RESULT:      -7.9     14.196     16.334
REMARK  2 active torsions:
REMARK  status: ('A' for Active; 'I' for Inactive)
REMARK    1  A    between atoms: C_9  and  C_10 
REMARK       I    between atoms: C_10  and  N_11 
REMARK    2  A    between atoms: N_11  and  C_12 
ROOT
HETATM    1  C   UNL     1      43.104 -29.466   1.588  1.00  0.00     0.277 C 
HETATM    2  N   UNL     1      42.987 -30.594   2.382  1.00  0.00    -0.322 N 
HETATM    3  O   UNL     1      42.178 -28.808   1.127  1.00  0.00    -0.266 OA
HETATM    4  H   UNL     1      43.887 -30.966   2.678  1.00  0.00     0.169 HD
ENDROOT
BRANCH   2   5
HETATM    5  C   UNL     1      41.820 -31.231   2.833  1.00  0.00     0.037 A 
HETATM    6  C   UNL     1      41.417 -31.258   4.170  1.00  0.00     0.062 A 
HETATM    7  C   UNL     1      40.245 -31.926   4.535  1.00  0.00     0.070 A 
HETATM    8  C   UNL     1      39.467 -32.572   3.573  1.00  0.00     0.096 A 
HETATM    9  N   UNL     1      39.841 -31.918   5.871  1.00  0.00    -0.323 N 
HETATM   10  O   UNL     1      38.294 -33.215   3.848  1.00  0.00    -0.340 OA
HETATM   11  C   UNL     1      39.856 -32.534   2.237  1.00  0.00     0.041 A 
HETATM   12  C   UNL     1      38.061 -33.466   5.226  1.00  0.00     0.278 C 
HETATM   13  C   UNL     1      38.737 -32.604   6.292  1.00  0.00     0.246 C 
HETATM   14  O   UNL     1      38.366 -32.570   7.462  1.00  0.00    -0.271 OA
HETATM   15  C   UNL     1      41.027 -31.867   1.869  1.00  0.00     0.032 A 
HETATM   16  H   UNL     1      40.351 -31.389   6.567  1.00  0.00     0.169 HD
ENDBRANCH   2   5
BRANCH   1  17
HETATM   17  C   UNL     1      44.516 -29.108   1.358  1.00  0.00     0.157 A 
HETATM   18  C   UNL     1      45.129 -28.746   0.123  1.00  0.00     0.029 A 
HETATM   19  C   UNL     1      44.709 -28.593  -1.214  1.00  0.00     0.023 A 
HETATM   20  C   UNL     1      46.460 -28.501   0.437  1.00  0.00     0.063 A 
HETATM   21  C   UNL     1      45.636 -28.191  -2.191  1.00  0.00    -0.061 A 
HETATM   22  C   UNL     1      45.207 -28.011  -3.618  1.00  0.00     0.048 C 
HETATM   23  C   UNL     1      46.970 -27.961  -1.831  1.00  0.00     0.009 A 
HETATM   24  C   UNL     1      47.410 -28.112  -0.511  1.00  0.00     0.032 A 
HETATM   25  N   UNL     1      46.559 -28.723   1.782  1.00  0.00    -0.277 N 
HETATM   26  H   UNL     1      47.392 -28.642   2.355  1.00  0.00     0.189 HD
HETATM   27  N   UNL     1      45.405 -29.075   2.377  1.00  0.00    -0.168 NA
ENDBRANCH   1  17
TORSDOF 2
ENDMDL
MODEL 9
REMARK VINA RESULT:      -7.9      4.860      8.195
REMARK  2 active torsions:
REMARK  status: ('A' for Active; 'I' for Inactive)
REMARK    1  A    between atoms: C_9  and  C_10 
REMARK       I    between atoms: C_10  and  N_11 
REMARK    2  A    between atoms: N_11  and  C_12 
ROOT
HETATM    1  C   UNL     1      42.995 -12.710   4.956  1.00  0.00     0.277 C 
HETATM    2  N   UNL     1      42.584 -13.974   5.344  1.00  0.00    -0.322 N 
HETATM    3  O   UNL     1      43.608 -12.432   3.932  1.00  0.00    -0.266 OA
HETATM    4  H   UNL     1      42.063 -13.971   6.218  1.00  0.00     0.169 HD
ENDROOT
BRANCH   2   5
HETATM    5  C   UNL     1      42.767 -15.197   4.679  1.00  0.00     0.037 A 
HETATM    6  C   UNL     1      43.308 -16.335   5.281  1.00  0.00     0.062 A 
HETATM    7  C   UNL     1      43.465 -17.512   4.542  1.00  0.00     0.070 A 
HETATM    8  C   UNL     1      43.085 -17.562   3.200  1.00  0.00     0.096 A 
HETATM    9  N   UNL     1      43.980 -18.647   5.167  1.00  0.00    -0.323 N 
HETATM   10  O   UNL     1      43.176 -18.683   2.424  1.00  0.00    -0.340 OA
HETATM   11  C   UNL     1      42.529 -16.436   2.601  1.00  0.00     0.041 A 
HETATM   12  C   UNL     1      43.977 -19.720   2.970  1.00  0.00     0.278 C 
HETATM   13  C   UNL     1      44.209 -19.805   4.478  1.00  0.00     0.246 C 
HETATM   14  O   UNL     1      44.633 -20.813   5.036  1.00  0.00    -0.271 OA
HETATM   15  C   UNL     1      42.372 -15.259   3.337  1.00  0.00     0.032 A 
HETATM   16  H   UNL     1      44.186 -18.650   6.157  1.00  0.00     0.169 HD
ENDBRANCH   2   5
BRANCH   1  17
HETATM   17  C   UNL     1      42.585 -11.683   5.933  1.00  0.00     0.157 A 
HETATM   18  C   UNL     1      43.431 -10.879   6.752  1.00  0.00     0.029 A 
HETATM   19  C   UNL     1      44.820 -10.738   6.949  1.00  0.00     0.023 A 
HETATM   20  C   UNL     1      42.567 -10.075   7.485  1.00  0.00     0.063 A 
HETATM   21  C   UNL     1      45.297  -9.789   7.869  1.00  0.00    -0.061 A 
HETATM   22  C   UNL     1      46.772  -9.615   8.087  1.00  0.00     0.048 C 
HETATM   23  C   UNL     1      44.390  -9.004   8.593  1.00  0.00     0.009 A 
HETATM   24  C   UNL     1      43.007  -9.131   8.416  1.00  0.00     0.032 A 
HETATM   25  N   UNL     1      41.311 -10.432   7.079  1.00  0.00    -0.277 N 
HETATM   26  H   UNL     1      40.432 -10.051   7.409  1.00  0.00     0.189 HD
HETATM   27  N   UNL     1      41.281 -11.387   6.132  1.00  0.00    -0.168 NA
ENDBRANCH   1  17
TORSDOF 2
ENDMDL
MODEL 10
REMARK VINA RESULT:      -7.9      1.520      1.760
REMARK  2 active torsions:
REMARK  status: ('A' for Active; 'I' for Inactive)
REMARK    1  A    between atoms: C_9  and  C_10 
REMARK       I    between atoms: C_10  and  N_11 
REMARK    2  A    between atoms: N_11  and  C_12 
ROOT
HETATM    1  C   UNL     1      42.052 -15.017   2.007  1.00  0.00     0.277 C 
HETATM    2  N   UNL     1      41.511 -13.781   2.315  1.00  0.00    -0.322 N 
HETATM    3  O   UNL     1      42.076 -15.539   0.899  1.00  0.00    -0.266 OA
HETATM    4  H   UNL     1      41.626 -13.530   3.296  1.00  0.00     0.169 HD
ENDROOT
BRANCH   2   5
HETATM    5  C   UNL     1      40.882 -12.861   1.461  1.00  0.00     0.037 A 
HETATM    6  C   UNL     1      39.816 -13.187   0.619  1.00  0.00     0.062 A 
HETATM    7  C   UNL     1      39.254 -12.211  -0.210  1.00  0.00     0.070 A 
HETATM    8  C   UNL     1      39.750 -10.906  -0.206  1.00  0.00     0.096 A 
HETATM    9  N   UNL     1      38.171 -12.546  -1.022  1.00  0.00    -0.323 N 
HETATM   10  O   UNL     1      39.233  -9.893  -0.962  1.00  0.00    -0.340 OA
HETATM   11  C   UNL     1      40.801 -10.573   0.642  1.00  0.00     0.041 A 
HETATM   12  C   UNL     1      38.354 -10.310  -1.997  1.00  0.00     0.278 C 
HETATM   13  C   UNL     1      37.622 -11.648  -1.894  1.00  0.00     0.246 C 
HETATM   14  O   UNL     1      36.649 -11.935  -2.586  1.00  0.00    -0.271 OA
HETATM   15  C   UNL     1      41.365 -11.547   1.472  1.00  0.00     0.032 A 
HETATM   16  H   UNL     1      37.750 -13.465  -0.979  1.00  0.00     0.169 HD
ENDBRANCH   2   5
BRANCH   1  17
HETATM   17  C   UNL     1      42.640 -15.663   3.196  1.00  0.00     0.157 A 
HETATM   18  C   UNL     1      43.087 -17.012   3.318  1.00  0.00     0.029 A 
HETATM   19  C   UNL     1      43.154 -18.140   2.476  1.00  0.00     0.023 A 
HETATM   20  C   UNL     1      43.556 -17.122   4.621  1.00  0.00     0.063 A 
HETATM   21  C   UNL     1      43.696 -19.340   2.967  1.00  0.00    -0.061 A 
HETATM   22  C   UNL     1      43.787 -20.552   2.084  1.00  0.00     0.048 C 
HETATM   23  C   UNL     1      44.150 -19.409   4.290  1.00  0.00     0.009 A 
HETATM   24  C   UNL     1      44.089 -18.302   5.144  1.00  0.00     0.032 A 
HETATM   25  N   UNL     1      43.366 -15.887   5.177  1.00  0.00    -0.277 N 
HETATM   26  H   UNL     1      43.592 -15.602   6.123  1.00  0.00     0.189 HD
HETATM   27  N   UNL     1      42.831 -14.975   4.344  1.00  0.00    -0.168 NA
ENDBRANCH   1  17
TORSDOF 2
ENDMDL
