MODEL 1
REMARK VINA RESULT:      -9.2      0.000      0.000
REMARK  5 active torsions:
REMARK  status: ('A' for Active; 'I' for Inactive)
REMARK    1  A    between atoms: C_18  and  C_19 
REMARK       I    between atoms: C_19  and  N_20 
REMARK    2  A    between atoms: N_20  and  C_21 
REMARK    3  A    between atoms: C_21  and  C_22 
REMARK    4  A    between atoms: C_22  and  C_23 
REMARK    5  A    between atoms: C_26  and  O_27 
ROOT
HETATM    1  C   UNL     1      44.338 -11.564   4.131  1.00  0.00     0.016 C 
HETATM    2  C   UNL     1      42.854 -11.396   4.326  1.00  0.00    -0.028 C 
HETATM    3  C   UNL     1      41.889 -12.041   2.953  1.00  0.00     0.058 C 
HETATM    4  C   UNL     1      40.153 -12.526   3.526  1.00  0.00     0.095 C 
HETATM    5  N   UNL     1      39.936 -13.950   3.683  1.00  0.00    -0.334 N 
HETATM    6  C   UNL     1      39.971 -14.813   2.623  1.00  0.00     0.255 C 
HETATM    7  O   UNL     1      40.130 -16.017   2.772  1.00  0.00    -0.268 OA
HETATM    8  C   UNL     1      39.785 -14.197   1.296  1.00  0.00     0.053 A 
HETATM    9  C   UNL     1      39.425 -12.841   1.257  1.00  0.00     0.026 A 
HETATM   10  N   UNL     1      39.231 -12.113   2.451  1.00  0.00    -0.265 NA
HETATM   11  C   UNL     1      39.933 -14.950   0.130  1.00  0.00     0.019 A 
HETATM   12  C   UNL     1      39.716 -14.344  -1.104  1.00  0.00     0.001 A 
HETATM   13  C   UNL     1      39.325 -13.006  -1.161  1.00  0.00     0.002 A 
HETATM   14  C   UNL     1      39.158 -12.264   0.014  1.00  0.00     0.024 A 
HETATM   15  C   UNL     1      39.747 -11.708   5.022  1.00  0.00     0.030 C 
HETATM   16  C   UNL     1      40.685 -11.121   6.390  1.00  0.00     0.009 C 
HETATM   17  C   UNL     1      42.420 -10.550   5.848  1.00  0.00     0.010 C 
HETATM   18  C   UNL     1      42.017 -12.321   4.999  1.00  0.00     0.086 C 
HETATM   19  C   UNL     1      40.779 -10.901   4.520  1.00  0.00     0.023 C 
HETATM   20  H   UNL     1      40.060 -14.386   4.587  1.00  0.00     0.164 HD
HETATM   21  H   UNL     1      39.214 -11.112   2.285  1.00  0.00     0.130 HD
ENDROOT
BRANCH  18  22
HETATM   22  C   UNL     1      42.721 -13.075   6.241  1.00  0.00     0.222 C 
HETATM   23  N   UNL     1      42.224 -14.364   6.341  1.00  0.00    -0.360 N 
HETATM   24  H   UNL     1      41.581 -14.685   5.628  1.00  0.00     0.162 HD
HETATM   25  O   UNL     1      43.519 -12.633   7.052  1.00  0.00    -0.273 OA
BRANCH  23  26
HETATM   26  C   UNL     1      42.673 -15.373   7.281  1.00  0.00     0.127 C 
BRANCH  26  27
HETATM   27  C   UNL     1      43.946 -16.088   6.794  1.00  0.00     0.058 C 
BRANCH  27  28
HETATM   28  C   UNL     1      43.740 -16.896   5.529  1.00  0.00    -0.057 A 
HETATM   29  C   UNL     1      43.942 -18.281   5.509  1.00  0.00     0.010 A 
HETATM   30  C   UNL     1      43.861 -18.986   4.305  1.00  0.00     0.037 A 
HETATM   31  C   UNL     1      43.561 -18.329   3.109  1.00  0.00     0.068 A 
HETATM   32  C   UNL     1      43.349 -16.953   3.125  1.00  0.00     0.037 A 
HETATM   33  C   UNL     1      43.437 -16.243   4.327  1.00  0.00     0.010 A 
BRANCH  31  34
HETATM   34  O   UNL     1      43.525 -19.132   2.002  1.00  0.00    -0.356 OA
HETATM   35  C   UNL     1      43.672 -20.529   2.228  1.00  0.00     0.210 C 
ENDBRANCH  31  34
ENDBRANCH  27  28
ENDBRANCH  26  27
ENDBRANCH  23  26
ENDBRANCH  18  22
TORSDOF 5
ENDMDL
MODEL 2
REMARK VINA RESULT:      -8.9      3.054      6.654
REMARK  5 active torsions:
REMARK  status: ('A' for Active; 'I' for Inactive)
REMARK    1  A    between atoms: C_18  and  C_19 
REMARK       I    between atoms: C_19  and  N_20 
REMARK    2  A    between atoms: N_20  and  C_21 
REMARK    3  A    between atoms: C_21  and  C_22 
REMARK    4  A    between atoms: C_22  and  C_23 
REMARK    5  A    between atoms: C_26  and  O_27 
ROOT
HETATM    1  C   UNL     1      40.146 -15.497   6.356  1.00  0.00     0.016 C 
HETATM    2  C   UNL     1      41.102 -15.881   5.257  1.00  0.00    -0.028 C 
HETATM    3  C   UNL     1      40.725 -15.087   3.690  1.00  0.00     0.058 C 
HETATM    4  C   UNL     1      42.279 -14.947   2.620  1.00  0.00     0.095 C 
HETATM    5  N   UNL     1      42.867 -13.623   2.567  1.00  0.00    -0.334 N 
HETATM    6  C   UNL     1      42.219 -12.561   1.999  1.00  0.00     0.255 C 
HETATM    7  O   UNL     1      42.535 -11.404   2.243  1.00  0.00    -0.268 OA
HETATM    8  C   UNL     1      41.133 -12.905   1.064  1.00  0.00     0.053 A 
HETATM    9  C   UNL     1      40.982 -14.257   0.718  1.00  0.00     0.026 A 
HETATM   10  N   UNL     1      41.857 -15.235   1.237  1.00  0.00    -0.265 NA
HETATM   11  C   UNL     1      40.311 -11.914   0.524  1.00  0.00     0.019 A 
HETATM   12  C   UNL     1      39.318 -12.271  -0.382  1.00  0.00     0.001 A 
HETATM   13  C   UNL     1      39.175 -13.606  -0.764  1.00  0.00     0.002 A 
HETATM   14  C   UNL     1      40.017 -14.591  -0.234  1.00  0.00     0.024 A 
HETATM   15  C   UNL     1      43.490 -16.100   3.140  1.00  0.00     0.030 C 
HETATM   16  C   UNL     1      43.894 -16.841   4.684  1.00  0.00     0.009 C 
HETATM   17  C   UNL     1      42.344 -17.071   5.769  1.00  0.00     0.010 C 
HETATM   18  C   UNL     1      42.330 -15.225   4.988  1.00  0.00     0.086 C 
HETATM   19  C   UNL     1      42.315 -16.654   3.670  1.00  0.00     0.023 C 
HETATM   20  H   UNL     1      43.613 -13.373   3.202  1.00  0.00     0.164 HD
HETATM   21  H   UNL     1      41.495 -16.174   1.104  1.00  0.00     0.130 HD
ENDROOT
BRANCH  18  22
HETATM   22  C   UNL     1      43.088 -14.666   6.299  1.00  0.00     0.222 C 
HETATM   23  N   UNL     1      43.654 -13.434   6.016  1.00  0.00    -0.360 N 
HETATM   24  H   UNL     1      43.473 -13.023   5.109  1.00  0.00     0.162 HD
HETATM   25  O   UNL     1      43.245 -15.208   7.382  1.00  0.00    -0.273 OA
BRANCH  23  26
HETATM   26  C   UNL     1      44.346 -12.583   6.965  1.00  0.00     0.127 C 
BRANCH  26  27
HETATM   27  C   UNL     1      43.924 -11.110   6.831  1.00  0.00     0.058 C 
BRANCH  27  28
HETATM   28  C   UNL     1      43.942 -10.353   8.143  1.00  0.00    -0.057 A 
HETATM   29  C   UNL     1      45.052 -10.400   8.995  1.00  0.00     0.010 A 
HETATM   30  C   UNL     1      44.999  -9.791  10.252  1.00  0.00     0.037 A 
HETATM   31  C   UNL     1      43.853  -9.114  10.674  1.00  0.00     0.068 A 
HETATM   32  C   UNL     1      42.749  -9.057   9.826  1.00  0.00     0.037 A 
HETATM   33  C   UNL     1      42.795  -9.671   8.570  1.00  0.00     0.010 A 
BRANCH  31  34
HETATM   34  O   UNL     1      43.928  -8.575  11.929  1.00  0.00    -0.356 OA
HETATM   35  C   UNL     1      42.769  -8.708  12.744  1.00  0.00     0.210 C 
ENDBRANCH  31  34
ENDBRANCH  27  28
ENDBRANCH  26  27
ENDBRANCH  23  26
ENDBRANCH  18  22
TORSDOF 5
ENDMDL
MODEL 3
REMARK VINA RESULT:      -8.8      2.722      6.879
REMARK  5 active torsions:
REMARK  status: ('A' for Active; 'I' for Inactive)
REMARK    1  A    between atoms: C_18  and  C_19 
REMARK       I    between atoms: C_19  and  N_20 
REMARK    2  A    between atoms: N_20  and  C_21 
REMARK    3  A    between atoms: C_21  and  C_22 
REMARK    4  A    between atoms: C_22  and  C_23 
REMARK    5  A    between atoms: C_26  and  O_27 
ROOT
HETATM    1  C   UNL     1      39.849 -16.086   6.719  1.00  0.00     0.016 C 
HETATM    2  C   UNL     1      41.355 -16.055   6.665  1.00  0.00    -0.028 C 
HETATM    3  C   UNL     1      42.041 -17.272   5.534  1.00  0.00     0.058 C 
HETATM    4  C   UNL     1      43.739 -16.722   4.909  1.00  0.00     0.095 C 
HETATM    5  N   UNL     1      43.754 -16.205   3.555  1.00  0.00    -0.334 N 
HETATM    6  C   UNL     1      43.463 -16.989   2.473  1.00  0.00     0.255 C 
HETATM    7  O   UNL     1      43.141 -16.511   1.394  1.00  0.00    -0.268 OA
HETATM    8  C   UNL     1      43.581 -18.442   2.692  1.00  0.00     0.053 A 
HETATM    9  C   UNL     1      44.135 -18.871   3.908  1.00  0.00     0.026 A 
HETATM   10  N   UNL     1      44.578 -17.934   4.867  1.00  0.00    -0.265 NA
HETATM   11  C   UNL     1      43.183 -19.350   1.708  1.00  0.00     0.019 A 
HETATM   12  C   UNL     1      43.341 -20.714   1.935  1.00  0.00     0.001 A 
HETATM   13  C   UNL     1      43.921 -21.157   3.124  1.00  0.00     0.002 A 
HETATM   14  C   UNL     1      44.337 -20.240   4.097  1.00  0.00     0.024 A 
HETATM   15  C   UNL     1      44.439 -15.536   5.992  1.00  0.00     0.030 C 
HETATM   16  C   UNL     1      43.770 -14.309   7.062  1.00  0.00     0.009 C 
HETATM   17  C   UNL     1      42.090 -14.853   7.776  1.00  0.00     0.010 C 
HETATM   18  C   UNL     1      42.115 -15.223   5.806  1.00  0.00     0.086 C 
HETATM   19  C   UNL     1      43.489 -16.157   6.817  1.00  0.00     0.023 C 
HETATM   20  H   UNL     1      43.674 -15.211   3.390  1.00  0.00     0.164 HD
HETATM   21  H   UNL     1      44.726 -18.364   5.774  1.00  0.00     0.130 HD
ENDROOT
BRANCH  18  22
HETATM   22  C   UNL     1      41.458 -13.775   5.527  1.00  0.00     0.222 C 
HETATM   23  N   UNL     1      42.137 -13.151   4.494  1.00  0.00    -0.360 N 
HETATM   24  H   UNL     1      42.864 -13.670   4.018  1.00  0.00     0.162 HD
HETATM   25  O   UNL     1      40.553 -13.216   6.128  1.00  0.00    -0.273 OA
BRANCH  23  26
HETATM   26  C   UNL     1      41.788 -11.873   3.903  1.00  0.00     0.127 C 
BRANCH  26  27
HETATM   27  C   UNL     1      42.895 -10.823   4.105  1.00  0.00     0.058 C 
BRANCH  27  28
HETATM   28  C   UNL     1      43.590 -10.928   5.447  1.00  0.00    -0.057 A 
HETATM   29  C   UNL     1      42.946 -10.554   6.632  1.00  0.00     0.010 A 
HETATM   30  C   UNL     1      43.647 -10.548   7.842  1.00  0.00     0.037 A 
HETATM   31  C   UNL     1      44.991 -10.927   7.893  1.00  0.00     0.068 A 
HETATM   32  C   UNL     1      45.634 -11.309   6.718  1.00  0.00     0.037 A 
HETATM   33  C   UNL     1      44.937 -11.310   5.505  1.00  0.00     0.010 A 
BRANCH  31  34
HETATM   34  O   UNL     1      45.562 -10.864   9.135  1.00  0.00    -0.356 OA
HETATM   35  C   UNL     1      45.098  -9.828   9.992  1.00  0.00     0.210 C 
ENDBRANCH  31  34
ENDBRANCH  27  28
ENDBRANCH  26  27
ENDBRANCH  23  26
ENDBRANCH  18  22
TORSDOF 5
ENDMDL
MODEL 4
REMARK VINA RESULT:      -8.6      3.013      6.494
REMARK  5 active torsions:
REMARK  status: ('A' for Active; 'I' for Inactive)
REMARK    1  A    between atoms: C_18  and  C_19 
REMARK       I    between atoms: C_19  and  N_20 
REMARK    2  A    between atoms: N_20  and  C_21 
REMARK    3  A    between atoms: C_21  and  C_22 
REMARK    4  A    between atoms: C_22  and  C_23 
REMARK    5  A    between atoms: C_26  and  O_27 
ROOT
HETATM    1  C   UNL     1      39.056 -11.431   6.454  1.00  0.00     0.016 C 
HETATM    2  C   UNL     1      40.439 -10.945   6.106  1.00  0.00    -0.028 C 
HETATM    3  C   UNL     1      41.142  -9.872   7.365  1.00  0.00     0.058 C 
HETATM    4  C   UNL     1      43.032  -9.925   7.310  1.00  0.00     0.095 C 
HETATM    5  N   UNL     1      43.653 -10.710   8.359  1.00  0.00    -0.334 N 
HETATM    6  C   UNL     1      43.569 -10.358   9.677  1.00  0.00     0.255 C 
HETATM    7  O   UNL     1      43.779 -11.161  10.577  1.00  0.00    -0.268 OA
HETATM    8  C   UNL     1      43.227  -8.948   9.939  1.00  0.00     0.053 A 
HETATM    9  C   UNL     1      43.190  -8.077   8.839  1.00  0.00     0.026 A 
HETATM   10  N   UNL     1      43.492  -8.543   7.541  1.00  0.00    -0.265 NA
HETATM   11  C   UNL     1      42.980  -8.500  11.238  1.00  0.00     0.019 A 
HETATM   12  C   UNL     1      42.694  -7.155  11.452  1.00  0.00     0.001 A 
HETATM   13  C   UNL     1      42.687  -6.267  10.375  1.00  0.00     0.002 A 
HETATM   14  C   UNL     1      42.955  -6.721   9.078  1.00  0.00     0.024 A 
HETATM   15  C   UNL     1      43.587 -10.497   5.750  1.00  0.00     0.030 C 
HETATM   16  C   UNL     1      42.923 -11.588   4.539  1.00  0.00     0.009 C 
HETATM   17  C   UNL     1      41.020 -11.513   4.506  1.00  0.00     0.010 C 
HETATM   18  C   UNL     1      41.638 -11.638   6.409  1.00  0.00     0.086 C 
HETATM   19  C   UNL     1      42.283 -10.070   5.456  1.00  0.00     0.023 C 
HETATM   20  H   UNL     1      43.892 -11.678   8.193  1.00  0.00     0.164 HD
HETATM   21  H   UNL     1      43.198  -7.886   6.826  1.00  0.00     0.130 HD
ENDROOT
BRANCH  18  22
HETATM   22  C   UNL     1      41.514 -13.246   6.343  1.00  0.00     0.222 C 
HETATM   23  N   UNL     1      42.595 -13.820   6.991  1.00  0.00    -0.360 N 
HETATM   24  H   UNL     1      43.248 -13.208   7.465  1.00  0.00     0.162 HD
HETATM   25  O   UNL     1      40.675 -13.926   5.774  1.00  0.00    -0.273 OA
BRANCH  23  26
HETATM   26  C   UNL     1      42.792 -15.240   7.213  1.00  0.00     0.127 C 
BRANCH  26  27
HETATM   27  C   UNL     1      44.036 -15.770   6.478  1.00  0.00     0.058 C 
BRANCH  27  28
HETATM   28  C   UNL     1      43.707 -16.652   5.291  1.00  0.00    -0.057 A 
HETATM   29  C   UNL     1      44.043 -18.010   5.278  1.00  0.00     0.010 A 
HETATM   30  C   UNL     1      43.837 -18.774   4.125  1.00  0.00     0.037 A 
HETATM   31  C   UNL     1      43.279 -18.205   2.978  1.00  0.00     0.068 A 
HETATM   32  C   UNL     1      42.934 -16.856   2.989  1.00  0.00     0.037 A 
HETATM   33  C   UNL     1      43.146 -16.086   4.138  1.00  0.00     0.010 A 
BRANCH  31  34
HETATM   34  O   UNL     1      43.143 -19.058   1.917  1.00  0.00    -0.356 OA
HETATM   35  C   UNL     1      43.705 -20.356   2.073  1.00  0.00     0.210 C 
ENDBRANCH  31  34
ENDBRANCH  27  28
ENDBRANCH  26  27
ENDBRANCH  23  26
ENDBRANCH  18  22
TORSDOF 5
ENDMDL
MODEL 5
REMARK VINA RESULT:      -8.6      3.501      7.363
REMARK  5 active torsions:
REMARK  status: ('A' for Active; 'I' for Inactive)
REMARK    1  A    between atoms: C_18  and  C_19 
REMARK       I    between atoms: C_19  and  N_20 
REMARK    2  A    between atoms: N_20  and  C_21 
REMARK    3  A    between atoms: C_21  and  C_22 
REMARK    4  A    between atoms: C_22  and  C_23 
REMARK    5  A    between atoms: C_26  and  O_27 
ROOT
HETATM    1  C   UNL     1      44.058 -11.488   3.761  1.00  0.00     0.016 C 
HETATM    2  C   UNL     1      42.803 -12.281   3.503  1.00  0.00    -0.028 C 
HETATM    3  C   UNL     1      43.070 -14.058   3.573  1.00  0.00     0.058 C 
HETATM    4  C   UNL     1      41.468 -14.957   4.023  1.00  0.00     0.095 C 
HETATM    5  N   UNL     1      41.395 -15.429   5.391  1.00  0.00    -0.334 N 
HETATM    6  C   UNL     1      42.231 -16.398   5.873  1.00  0.00     0.255 C 
HETATM    7  O   UNL     1      42.413 -16.559   7.072  1.00  0.00    -0.268 OA
HETATM    8  C   UNL     1      42.878 -17.243   4.853  1.00  0.00     0.053 A 
HETATM    9  C   UNL     1      42.454 -17.091   3.524  1.00  0.00     0.026 A 
HETATM   10  N   UNL     1      41.431 -16.176   3.194  1.00  0.00    -0.265 NA
HETATM   11  C   UNL     1      43.853 -18.176   5.210  1.00  0.00     0.019 A 
HETATM   12  C   UNL     1      44.418 -18.982   4.225  1.00  0.00     0.001 A 
HETATM   13  C   UNL     1      43.984 -18.869   2.903  1.00  0.00     0.002 A 
HETATM   14  C   UNL     1      42.991 -17.945   2.557  1.00  0.00     0.024 A 
HETATM   15  C   UNL     1      40.078 -13.947   3.681  1.00  0.00     0.030 C 
HETATM   16  C   UNL     1      39.802 -12.209   3.661  1.00  0.00     0.009 C 
HETATM   17  C   UNL     1      41.371 -11.263   3.140  1.00  0.00     0.010 C 
HETATM   18  C   UNL     1      41.864 -12.654   4.497  1.00  0.00     0.086 C 
HETATM   19  C   UNL     1      41.066 -13.364   2.873  1.00  0.00     0.023 C 
HETATM   20  H   UNL     1      40.954 -14.859   6.101  1.00  0.00     0.164 HD
HETATM   21  H   UNL     1      41.393 -15.995   2.196  1.00  0.00     0.130 HD
ENDROOT
BRANCH  18  22
HETATM   22  C   UNL     1      41.676 -11.568   5.677  1.00  0.00     0.222 C 
HETATM   23  N   UNL     1      42.910 -11.268   6.230  1.00  0.00    -0.360 N 
HETATM   24  H   UNL     1      43.735 -11.677   5.809  1.00  0.00     0.162 HD
HETATM   25  O   UNL     1      40.644 -11.088   6.119  1.00  0.00    -0.273 OA
BRANCH  23  26
HETATM   26  C   UNL     1      43.158 -10.275   7.258  1.00  0.00     0.127 C 
BRANCH  26  27
HETATM   27  C   UNL     1      43.995 -10.842   8.417  1.00  0.00     0.058 C 
BRANCH  27  28
HETATM   28  C   UNL     1      43.796 -10.103   9.725  1.00  0.00    -0.057 A 
HETATM   29  C   UNL     1      43.658 -10.791  10.935  1.00  0.00     0.010 A 
HETATM   30  C   UNL     1      43.357 -10.095  12.110  1.00  0.00     0.037 A 
HETATM   31  C   UNL     1      43.207  -8.706  12.101  1.00  0.00     0.068 A 
HETATM   32  C   UNL     1      43.354  -8.016  10.900  1.00  0.00     0.037 A 
HETATM   33  C   UNL     1      43.647  -8.710   9.722  1.00  0.00     0.010 A 
BRANCH  31  34
HETATM   34  O   UNL     1      42.902  -8.150  13.313  1.00  0.00    -0.356 OA
HETATM   35  C   UNL     1      42.077  -8.925  14.175  1.00  0.00     0.210 C 
ENDBRANCH  31  34
ENDBRANCH  27  28
ENDBRANCH  26  27
ENDBRANCH  23  26
ENDBRANCH  18  22
TORSDOF 5
ENDMDL
MODEL 6
REMARK VINA RESULT:      -8.5      1.945      6.059
REMARK  5 active torsions:
REMARK  status: ('A' for Active; 'I' for Inactive)
REMARK    1  A    between atoms: C_18  and  C_19 
REMARK       I    between atoms: C_19  and  N_20 
REMARK    2  A    between atoms: N_20  and  C_21 
REMARK    3  A    between atoms: C_21  and  C_22 
REMARK    4  A    between atoms: C_22  and  C_23 
REMARK    5  A    between atoms: C_26  and  O_27 
ROOT
HETATM    1  C   UNL     1      42.818 -11.293   2.661  1.00  0.00     0.016 C 
HETATM    2  C   UNL     1      42.094 -12.461   2.044  1.00  0.00    -0.028 C 
HETATM    3  C   UNL     1      42.514 -14.031   2.810  1.00  0.00     0.058 C 
HETATM    4  C   UNL     1      41.109 -15.278   2.596  1.00  0.00     0.095 C 
HETATM    5  N   UNL     1      40.301 -15.499   3.780  1.00  0.00    -0.334 N 
HETATM    6  C   UNL     1      40.812 -16.068   4.913  1.00  0.00     0.255 C 
HETATM    7  O   UNL     1      40.263 -15.951   6.001  1.00  0.00    -0.268 OA
HETATM    8  C   UNL     1      42.051 -16.845   4.731  1.00  0.00     0.053 A 
HETATM    9  C   UNL     1      42.488 -17.067   3.416  1.00  0.00     0.026 A 
HETATM   10  N   UNL     1      41.746 -16.579   2.319  1.00  0.00    -0.265 NA
HETATM   11  C   UNL     1      42.741 -17.361   5.830  1.00  0.00     0.019 A 
HETATM   12  C   UNL     1      43.889 -18.119   5.619  1.00  0.00     0.001 A 
HETATM   13  C   UNL     1      44.319 -18.380   4.317  1.00  0.00     0.002 A 
HETATM   14  C   UNL     1      43.610 -17.876   3.220  1.00  0.00     0.024 A 
HETATM   15  C   UNL     1      40.071 -14.814   1.264  1.00  0.00     0.030 C 
HETATM   16  C   UNL     1      39.618 -13.273   0.543  1.00  0.00     0.009 C 
HETATM   17  C   UNL     1      41.034 -12.005   0.669  1.00  0.00     0.010 C 
HETATM   18  C   UNL     1      40.811 -12.917   2.441  1.00  0.00     0.086 C 
HETATM   19  C   UNL     1      41.251 -14.113   0.971  1.00  0.00     0.023 C 
HETATM   20  H   UNL     1      39.449 -14.973   3.918  1.00  0.00     0.164 HD
HETATM   21  H   UNL     1      42.286 -16.598   1.460  1.00  0.00     0.130 HD
ENDROOT
BRANCH  18  22
HETATM   22  C   UNL     1      39.805 -11.747   2.915  1.00  0.00     0.222 C 
HETATM   23  N   UNL     1      39.449 -11.952   4.238  1.00  0.00    -0.360 N 
HETATM   24  H   UNL     1      39.891 -12.713   4.739  1.00  0.00     0.162 HD
HETATM   25  O   UNL     1      39.331 -10.833   2.259  1.00  0.00    -0.273 OA
BRANCH  23  26
HETATM   26  C   UNL     1      38.626 -11.067   5.039  1.00  0.00     0.127 C 
BRANCH  26  27
HETATM   27  C   UNL     1      39.300 -10.704   6.374  1.00  0.00     0.058 C 
BRANCH  27  28
HETATM   28  C   UNL     1      40.761 -11.099   6.441  1.00  0.00    -0.057 A 
HETATM   29  C   UNL     1      41.774 -10.135   6.487  1.00  0.00     0.010 A 
HETATM   30  C   UNL     1      43.117 -10.522   6.429  1.00  0.00     0.037 A 
HETATM   31  C   UNL     1      43.471 -11.870   6.341  1.00  0.00     0.068 A 
HETATM   32  C   UNL     1      42.466 -12.834   6.304  1.00  0.00     0.037 A 
HETATM   33  C   UNL     1      41.122 -12.450   6.355  1.00  0.00     0.010 A 
BRANCH  31  34
HETATM   34  O   UNL     1      44.816 -12.111   6.277  1.00  0.00    -0.356 OA
HETATM   35  C   UNL     1      45.657 -11.189   6.959  1.00  0.00     0.210 C 
ENDBRANCH  31  34
ENDBRANCH  27  28
ENDBRANCH  26  27
ENDBRANCH  23  26
ENDBRANCH  18  22
TORSDOF 5
ENDMDL
MODEL 7
REMARK VINA RESULT:      -8.4      3.865      7.342
REMARK  5 active torsions:
REMARK  status: ('A' for Active; 'I' for Inactive)
REMARK    1  A    between atoms: C_18  and  C_19 
REMARK       I    between atoms: C_19  and  N_20 
REMARK    2  A    between atoms: N_20  and  C_21 
REMARK    3  A    between atoms: C_21  and  C_22 
REMARK    4  A    between atoms: C_22  and  C_23 
REMARK    5  A    between atoms: C_26  and  O_27 
ROOT
HETATM    1  C   UNL     1      41.698  -9.429   3.870  1.00  0.00     0.016 C 
HETATM    2  C   UNL     1      40.805 -10.418   4.574  1.00  0.00    -0.028 C 
HETATM    3  C   UNL     1      41.208 -12.127   4.186  1.00  0.00     0.058 C 
HETATM    4  C   UNL     1      40.665 -13.276   5.585  1.00  0.00     0.095 C 
HETATM    5  N   UNL     1      41.737 -13.752   6.437  1.00  0.00    -0.334 N 
HETATM    6  C   UNL     1      42.728 -14.570   5.971  1.00  0.00     0.255 C 
HETATM    7  O   UNL     1      43.794 -14.698   6.560  1.00  0.00    -0.268 OA
HETATM    8  C   UNL     1      42.419 -15.299   4.728  1.00  0.00     0.053 A 
HETATM    9  C   UNL     1      41.105 -15.220   4.242  1.00  0.00     0.026 A 
HETATM   10  N   UNL     1      40.121 -14.486   4.941  1.00  0.00    -0.265 NA
HETATM   11  C   UNL     1      43.395 -16.059   4.081  1.00  0.00     0.019 A 
HETATM   12  C   UNL     1      43.059 -16.761   2.928  1.00  0.00     0.001 A 
HETATM   13  C   UNL     1      41.748 -16.723   2.449  1.00  0.00     0.002 A 
HETATM   14  C   UNL     1      40.770 -15.975   3.115  1.00  0.00     0.024 A 
HETATM   15  C   UNL     1      39.436 -12.509   6.571  1.00  0.00     0.030 C 
HETATM   16  C   UNL     1      39.070 -10.840   6.993  1.00  0.00     0.009 C 
HETATM   17  C   UNL     1      39.533  -9.650   5.580  1.00  0.00     0.010 C 
HETATM   18  C   UNL     1      41.041 -10.939   5.871  1.00  0.00     0.086 C 
HETATM   19  C   UNL     1      39.354 -11.773   5.379  1.00  0.00     0.023 C 
HETATM   20  H   UNL     1      41.960 -13.262   7.293  1.00  0.00     0.164 HD
HETATM   21  H   UNL     1      39.301 -14.315   4.368  1.00  0.00     0.130 HD
ENDROOT
BRANCH  18  22
HETATM   22  C   UNL     1      41.733  -9.897   6.892  1.00  0.00     0.222 C 
HETATM   23  N   UNL     1      43.032 -10.299   7.152  1.00  0.00    -0.360 N 
HETATM   24  H   UNL     1      43.395 -11.098   6.648  1.00  0.00     0.162 HD
HETATM   25  O   UNL     1      41.240  -8.926   7.445  1.00  0.00    -0.273 OA
BRANCH  23  26
HETATM   26  C   UNL     1      43.997  -9.574   7.957  1.00  0.00     0.127 C 
BRANCH  26  27
HETATM   27  C   UNL     1      44.495 -10.409   9.149  1.00  0.00     0.058 C 
BRANCH  27  28
HETATM   28  C   UNL     1      43.954  -9.941  10.485  1.00  0.00    -0.057 A 
HETATM   29  C   UNL     1      43.540 -10.853  11.462  1.00  0.00     0.010 A 
HETATM   30  C   UNL     1      42.935 -10.398  12.637  1.00  0.00     0.037 A 
HETATM   31  C   UNL     1      42.748  -9.033  12.865  1.00  0.00     0.068 A 
HETATM   32  C   UNL     1      43.167  -8.120  11.899  1.00  0.00     0.037 A 
HETATM   33  C   UNL     1      43.766  -8.572  10.719  1.00  0.00     0.010 A 
BRANCH  31  34
HETATM   34  O   UNL     1      42.132  -8.722  14.046  1.00  0.00    -0.356 OA
HETATM   35  C   UNL     1      42.506  -7.489  14.649  1.00  0.00     0.210 C 
ENDBRANCH  31  34
ENDBRANCH  27  28
ENDBRANCH  26  27
ENDBRANCH  23  26
ENDBRANCH  18  22
TORSDOF 5
ENDMDL
MODEL 8
REMARK VINA RESULT:      -8.3      5.016      8.163
REMARK  5 active torsions:
REMARK  status: ('A' for Active; 'I' for Inactive)
REMARK    1  A    between atoms: C_18  and  C_19 
REMARK       I    between atoms: C_19  and  N_20 
REMARK    2  A    between atoms: N_20  and  C_21 
REMARK    3  A    between atoms: C_21  and  C_22 
REMARK    4  A    between atoms: C_22  and  C_23 
REMARK    5  A    between atoms: C_26  and  O_27 
ROOT
HETATM    1  C   UNL     1      44.613  -7.732   8.633  1.00  0.00     0.016 C 
HETATM    2  C   UNL     1      44.173  -8.508   9.847  1.00  0.00    -0.028 C 
HETATM    3  C   UNL     1      42.602  -7.941  10.510  1.00  0.00     0.058 C 
HETATM    4  C   UNL     1      41.734  -9.331  11.455  1.00  0.00     0.095 C 
HETATM    5  N   UNL     1      40.630  -9.953  10.750  1.00  0.00    -0.334 N 
HETATM    6  C   UNL     1      39.487  -9.270  10.440  1.00  0.00     0.255 C 
HETATM    7  O   UNL     1      38.715  -9.658   9.573  1.00  0.00    -0.268 OA
HETATM    8  C   UNL     1      39.242  -8.050  11.231  1.00  0.00     0.053 A 
HETATM    9  C   UNL     1      40.093  -7.803  12.319  1.00  0.00     0.026 A 
HETATM   10  N   UNL     1      41.126  -8.708  12.645  1.00  0.00    -0.265 NA
HETATM   11  C   UNL     1      38.182  -7.196  10.920  1.00  0.00     0.019 A 
HETATM   12  C   UNL     1      37.959  -6.072  11.709  1.00  0.00     0.001 A 
HETATM   13  C   UNL     1      38.774  -5.828  12.816  1.00  0.00     0.002 A 
HETATM   14  C   UNL     1      39.821  -6.701  13.133  1.00  0.00     0.024 A 
HETATM   15  C   UNL     1      42.884 -10.562  11.934  1.00  0.00     0.030 C 
HETATM   16  C   UNL     1      44.398 -11.154  11.259  1.00  0.00     0.009 C 
HETATM   17  C   UNL     1      45.345  -9.767  10.359  1.00  0.00     0.010 C 
HETATM   18  C   UNL     1      43.419  -9.708   9.809  1.00  0.00     0.086 C 
HETATM   19  C   UNL     1      43.718  -9.455  11.714  1.00  0.00     0.023 C 
HETATM   20  H   UNL     1      40.784 -10.790  10.204  1.00  0.00     0.164 HD
HETATM   21  H   UNL     1      41.799  -8.297  13.284  1.00  0.00     0.130 HD
ENDROOT
BRANCH  18  22
HETATM   22  C   UNL     1      43.750 -10.664   8.552  1.00  0.00     0.222 C 
HETATM   23  N   UNL     1      42.757 -10.530   7.595  1.00  0.00    -0.360 N 
HETATM   24  H   UNL     1      42.033  -9.840   7.752  1.00  0.00     0.162 HD
HETATM   25  O   UNL     1      44.667 -11.459   8.415  1.00  0.00    -0.273 OA
BRANCH  23  26
HETATM   26  C   UNL     1      42.747 -11.166   6.291  1.00  0.00     0.127 C 
BRANCH  26  27
HETATM   27  C   UNL     1      41.806 -12.382   6.250  1.00  0.00     0.058 C 
BRANCH  27  28
HETATM   28  C   UNL     1      42.503 -13.675   5.880  1.00  0.00    -0.057 A 
HETATM   29  C   UNL     1      42.194 -14.356   4.698  1.00  0.00     0.010 A 
HETATM   30  C   UNL     1      42.764 -15.606   4.436  1.00  0.00     0.037 A 
HETATM   31  C   UNL     1      43.659 -16.187   5.337  1.00  0.00     0.068 A 
HETATM   32  C   UNL     1      43.978 -15.509   6.511  1.00  0.00     0.037 A 
HETATM   33  C   UNL     1      43.404 -14.262   6.779  1.00  0.00     0.010 A 
BRANCH  31  34
HETATM   34  O   UNL     1      44.134 -17.416   4.968  1.00  0.00    -0.356 OA
HETATM   35  C   UNL     1      43.718 -17.899   3.696  1.00  0.00     0.210 C 
ENDBRANCH  31  34
ENDBRANCH  27  28
ENDBRANCH  26  27
ENDBRANCH  23  26
ENDBRANCH  18  22
TORSDOF 5
ENDMDL
MODEL 9
REMARK VINA RESULT:      -8.1      4.039      6.623
REMARK  5 active torsions:
REMARK  status: ('A' for Active; 'I' for Inactive)
REMARK    1  A    between atoms: C_18  and  C_19 
REMARK       I    between atoms: C_19  and  N_20 
REMARK    2  A    between atoms: N_20  and  C_21 
REMARK    3  A    between atoms: C_21  and  C_22 
REMARK    4  A    between atoms: C_22  and  C_23 
REMARK    5  A    between atoms: C_26  and  O_27 
ROOT
HETATM    1  C   UNL     1      37.287 -11.388  -0.287  1.00  0.00     0.016 C 
HETATM    2  C   UNL     1      38.316 -11.723  -1.336  1.00  0.00    -0.028 C 
HETATM    3  C   UNL     1      39.095 -10.267  -2.045  1.00  0.00     0.058 C 
HETATM    4  C   UNL     1      40.814 -10.686  -2.710  1.00  0.00     0.095 C 
HETATM    5  N   UNL     1      41.916 -10.243  -1.879  1.00  0.00    -0.334 N 
HETATM    6  C   UNL     1      42.177  -8.918  -1.662  1.00  0.00     0.255 C 
HETATM    7  O   UNL     1      42.862  -8.539  -0.721  1.00  0.00    -0.268 OA
HETATM    8  C   UNL     1      41.596  -7.986  -2.645  1.00  0.00     0.053 A 
HETATM    9  C   UNL     1      40.989  -8.541  -3.782  1.00  0.00     0.026 A 
HETATM   10  N   UNL     1      40.963  -9.940  -3.974  1.00  0.00    -0.265 NA
HETATM   11  C   UNL     1      41.678  -6.605  -2.459  1.00  0.00     0.019 A 
HETATM   12  C   UNL     1      41.149  -5.754  -3.425  1.00  0.00     0.001 A 
HETATM   13  C   UNL     1      40.573  -6.288  -4.578  1.00  0.00     0.002 A 
HETATM   14  C   UNL     1      40.513  -7.674  -4.767  1.00  0.00     0.024 A 
HETATM   15  C   UNL     1      40.961 -12.407  -3.000  1.00  0.00     0.030 C 
HETATM   16  C   UNL     1      40.237 -13.837  -2.273  1.00  0.00     0.009 C 
HETATM   17  C   UNL     1      38.471 -13.483  -1.653  1.00  0.00     0.010 C 
HETATM   18  C   UNL     1      39.681 -11.995  -1.070  1.00  0.00     0.086 C 
HETATM   19  C   UNL     1      39.569 -12.230  -2.997  1.00  0.00     0.023 C 
HETATM   20  H   UNL     1      42.325 -10.871  -1.201  1.00  0.00     0.164 HD
HETATM   21  H   UNL     1      40.299 -10.210  -4.692  1.00  0.00     0.130 HD
ENDROOT
BRANCH  18  22
HETATM   22  C   UNL     1      39.950 -12.761   0.325  1.00  0.00     0.222 C 
HETATM   23  N   UNL     1      40.675 -11.940   1.171  1.00  0.00    -0.360 N 
HETATM   24  H   UNL     1      40.871 -10.994   0.867  1.00  0.00     0.162 HD
HETATM   25  O   UNL     1      39.657 -13.904   0.639  1.00  0.00    -0.273 OA
BRANCH  23  26
HETATM   26  C   UNL     1      41.038 -12.246   2.542  1.00  0.00     0.127 C 
BRANCH  26  27
HETATM   27  C   UNL     1      42.477 -12.777   2.653  1.00  0.00     0.058 C 
BRANCH  27  28
HETATM   28  C   UNL     1      42.568 -14.289   2.628  1.00  0.00    -0.057 A 
HETATM   29  C   UNL     1      43.400 -14.953   1.720  1.00  0.00     0.010 A 
HETATM   30  C   UNL     1      43.378 -16.349   1.636  1.00  0.00     0.037 A 
HETATM   31  C   UNL     1      42.542 -17.103   2.463  1.00  0.00     0.068 A 
HETATM   32  C   UNL     1      41.719 -16.447   3.375  1.00  0.00     0.037 A 
HETATM   33  C   UNL     1      41.734 -15.051   3.457  1.00  0.00     0.010 A 
BRANCH  31  34
HETATM   34  O   UNL     1      42.607 -18.456   2.271  1.00  0.00    -0.356 OA
HETATM   35  C   UNL     1      43.800 -19.100   2.704  1.00  0.00     0.210 C 
ENDBRANCH  31  34
ENDBRANCH  27  28
ENDBRANCH  26  27
ENDBRANCH  23  26
ENDBRANCH  18  22
TORSDOF 5
ENDMDL
MODEL 10
REMARK VINA RESULT:      -8.1     15.594     19.461
REMARK  5 active torsions:
REMARK  status: ('A' for Active; 'I' for Inactive)
REMARK    1  A    between atoms: C_18  and  C_19 
REMARK       I    between atoms: C_19  and  N_20 
REMARK    2  A    between atoms: N_20  and  C_21 
REMARK    3  A    between atoms: C_21  and  C_22 
REMARK    4  A    between atoms: C_22  and  C_23 
REMARK    5  A    between atoms: C_26  and  O_27 
ROOT
HETATM    1  C   UNL     1      51.393 -30.855  -1.548  1.00  0.00     0.016 C 
HETATM    2  C   UNL     1      50.330 -31.609  -0.792  1.00  0.00    -0.028 C 
HETATM    3  C   UNL     1      50.718 -31.809   0.952  1.00  0.00     0.058 C 
HETATM    4  C   UNL     1      49.137 -32.018   1.968  1.00  0.00     0.095 C 
HETATM    5  N   UNL     1      48.731 -30.846   2.717  1.00  0.00    -0.334 N 
HETATM    6  C   UNL     1      49.482 -30.340   3.743  1.00  0.00     0.255 C 
HETATM    7  O   UNL     1      49.341 -29.193   4.145  1.00  0.00    -0.268 OA
HETATM    8  C   UNL     1      50.454 -31.275   4.338  1.00  0.00     0.053 A 
HETATM    9  C   UNL     1      50.401 -32.615   3.924  1.00  0.00     0.026 A 
HETATM   10  N   UNL     1      49.433 -33.041   2.989  1.00  0.00    -0.265 NA
HETATM   11  C   UNL     1      51.370 -30.841   5.299  1.00  0.00     0.019 A 
HETATM   12  C   UNL     1      52.250 -31.758   5.865  1.00  0.00     0.001 A 
HETATM   13  C   UNL     1      52.188 -33.101   5.491  1.00  0.00     0.002 A 
HETATM   14  C   UNL     1      51.254 -33.532   4.542  1.00  0.00     0.024 A 
HETATM   15  C   UNL     1      47.813 -32.543   0.948  1.00  0.00     0.030 C 
HETATM   16  C   UNL     1      47.406 -32.306  -0.747  1.00  0.00     0.009 C 
HETATM   17  C   UNL     1      48.971 -32.164  -1.824  1.00  0.00     0.010 C 
HETATM   18  C   UNL     1      49.189 -31.016  -0.195  1.00  0.00     0.086 C 
HETATM   19  C   UNL     1      48.932 -32.906   0.183  1.00  0.00     0.023 C 
HETATM   20  H   UNL     1      48.065 -30.196   2.321  1.00  0.00     0.164 HD
HETATM   21  H   UNL     1      49.656 -33.954   2.605  1.00  0.00     0.130 HD
ENDROOT
BRANCH  18  22
HETATM   22  C   UNL     1      48.592 -29.754  -1.005  1.00  0.00     0.222 C 
HETATM   23  N   UNL     1      47.772 -29.015  -0.170  1.00  0.00    -0.360 N 
HETATM   24  H   UNL     1      47.708 -29.289   0.802  1.00  0.00     0.162 HD
HETATM   25  O   UNL     1      48.735 -29.464  -2.183  1.00  0.00    -0.273 OA
BRANCH  23  26
HETATM   26  C   UNL     1      47.121 -27.765  -0.513  1.00  0.00     0.127 C 
BRANCH  26  27
HETATM   27  C   UNL     1      45.600 -27.932  -0.675  1.00  0.00     0.058 C 
BRANCH  27  28
HETATM   28  C   UNL     1      45.202 -28.643  -1.952  1.00  0.00    -0.057 A 
HETATM   29  C   UNL     1      45.380 -28.043  -3.204  1.00  0.00     0.010 A 
HETATM   30  C   UNL     1      44.896 -28.668  -4.358  1.00  0.00     0.037 A 
HETATM   31  C   UNL     1      44.246 -29.902  -4.286  1.00  0.00     0.068 A 
HETATM   32  C   UNL     1      44.074 -30.507  -3.043  1.00  0.00     0.037 A 
HETATM   33  C   UNL     1      44.550 -29.882  -1.886  1.00  0.00     0.010 A 
BRANCH  31  34
HETATM   34  O   UNL     1      43.811 -30.397  -5.485  1.00  0.00    -0.356 OA
HETATM   35  C   UNL     1      44.747 -31.168  -6.228  1.00  0.00     0.210 C 
ENDBRANCH  31  34
ENDBRANCH  27  28
ENDBRANCH  26  27
ENDBRANCH  23  26
ENDBRANCH  18  22
TORSDOF 5
ENDMDL
