MODEL 1
REMARK VINA RESULT:      -8.3      0.000      0.000
REMARK  7 active torsions:
REMARK  status: ('A' for Active; 'I' for Inactive)
REMARK    1  A    between atoms: C_2  and  N_3 
REMARK    2  A    between atoms: N_3  and  C_4 
REMARK    3  A    between atoms: C_6  and  N_7 
REMARK    4  A    between atoms: N_7  and  C_8 
REMARK    5  A    between atoms: C_8  and  C_9 
REMARK    6  A    between atoms: C_9  and  C_10 
REMARK    7  A    between atoms: C_13  and  O_14 
ROOT
HETATM    1  C   UNL     1      43.608 -16.896   4.563  1.00  0.00     0.119 A 
HETATM    2  N   UNL     1      43.321 -15.965   3.635  1.00  0.00    -0.207 NA
HETATM    3  C   UNL     1      43.176 -16.354   2.359  1.00  0.00     0.181 A 
HETATM    4  N   UNL     1      43.267 -17.629   1.990  1.00  0.00    -0.330 N 
HETATM    5  H   UNL     1      43.078 -17.843   1.020  1.00  0.00     0.168 HD
HETATM    6  C   UNL     1      43.531 -18.598   2.872  1.00  0.00     0.048 A 
HETATM    7  C   UNL     1      43.718 -18.262   4.226  1.00  0.00     0.031 A 
HETATM    8  C   UNL     1      43.612 -19.933   2.444  1.00  0.00     0.030 A 
HETATM    9  C   UNL     1      43.879 -20.948   3.362  1.00  0.00     0.002 A 
HETATM   10  C   UNL     1      44.058 -20.638   4.707  1.00  0.00     0.001 A 
HETATM   11  C   UNL     1      43.975 -19.312   5.138  1.00  0.00     0.017 A 
ENDROOT
BRANCH   3  12
HETATM   12  N   UNL     1      42.901 -15.443   1.346  1.00  0.00    -0.262 NA
HETATM   13  H   UNL     1      43.558 -15.490   0.573  1.00  0.00     0.130 HD
BRANCH  12  14
HETATM   14  C   UNL     1      42.699 -14.057   1.798  1.00  0.00     0.100 C 
BRANCH  14  15
HETATM   15  C   UNL     1      41.204 -13.714   1.752  1.00  0.00     0.053 C 
BRANCH  15  16
HETATM   16  C   UNL     1      40.669 -13.681   0.345  1.00  0.00    -0.057 A 
HETATM   17  C   UNL     1      39.855 -14.716  -0.128  1.00  0.00     0.010 A 
HETATM   18  C   UNL     1      39.359 -14.680  -1.434  1.00  0.00     0.037 A 
HETATM   19  C   UNL     1      39.662 -13.616  -2.283  1.00  0.00     0.068 A 
HETATM   20  C   UNL     1      40.482 -12.589  -1.821  1.00  0.00     0.037 A 
HETATM   21  C   UNL     1      40.985 -12.622  -0.514  1.00  0.00     0.010 A 
BRANCH  19  22
HETATM   22  O   UNL     1      39.103 -13.702  -3.528  1.00  0.00    -0.356 OA
HETATM   23  C   UNL     1      38.149 -14.738  -3.735  1.00  0.00     0.210 C 
ENDBRANCH  19  22
ENDBRANCH  15  16
ENDBRANCH  14  15
ENDBRANCH  12  14
ENDBRANCH   3  12
BRANCH   1  24
HETATM   24  N   UNL     1      43.736 -16.504   5.897  1.00  0.00    -0.273 NA
HETATM   25  H   UNL     1      44.690 -16.243   6.133  1.00  0.00     0.129 HD
BRANCH  24  26
HETATM   26  C   UNL     1      42.755 -15.573   6.467  1.00  0.00     0.053 C 
HETATM   27  C   UNL     1      43.123 -15.202   7.902  1.00  0.00     0.026 C 
HETATM   28  C   UNL     1      41.388 -16.259   6.438  1.00  0.00     0.026 C 
ENDBRANCH  24  26
ENDBRANCH   1  24
TORSDOF 7
ENDMDL
MODEL 2
REMARK VINA RESULT:      -8.1      2.983      4.616
REMARK  7 active torsions:
REMARK  status: ('A' for Active; 'I' for Inactive)
REMARK    1  A    between atoms: C_2  and  N_3 
REMARK    2  A    between atoms: N_3  and  C_4 
REMARK    3  A    between atoms: C_6  and  N_7 
REMARK    4  A    between atoms: N_7  and  C_8 
REMARK    5  A    between atoms: C_8  and  C_9 
REMARK    6  A    between atoms: C_9  and  C_10 
REMARK    7  A    between atoms: C_13  and  O_14 
ROOT
HETATM    1  C   UNL     1      43.685 -16.848   4.521  1.00  0.00     0.119 A 
HETATM    2  N   UNL     1      43.397 -15.927   3.583  1.00  0.00    -0.207 NA
HETATM    3  C   UNL     1      43.220 -16.335   2.317  1.00  0.00     0.181 A 
HETATM    4  N   UNL     1      43.279 -17.617   1.968  1.00  0.00    -0.330 N 
HETATM    5  H   UNL     1      43.067 -17.844   1.006  1.00  0.00     0.168 HD
HETATM    6  C   UNL     1      43.542 -18.576   2.861  1.00  0.00     0.048 A 
HETATM    7  C   UNL     1      43.762 -18.221   4.205  1.00  0.00     0.031 A 
HETATM    8  C   UNL     1      43.590 -19.919   2.455  1.00  0.00     0.030 A 
HETATM    9  C   UNL     1      43.856 -20.923   3.385  1.00  0.00     0.002 A 
HETATM   10  C   UNL     1      44.067 -20.595   4.720  1.00  0.00     0.001 A 
HETATM   11  C   UNL     1      44.018 -19.260   5.130  1.00  0.00     0.017 A 
ENDROOT
BRANCH   3  12
HETATM   12  N   UNL     1      42.942 -15.436   1.293  1.00  0.00    -0.262 NA
HETATM   13  H   UNL     1      43.670 -14.741   1.159  1.00  0.00     0.130 HD
BRANCH  12  14
HETATM   14  C   UNL     1      41.609 -14.814   1.361  1.00  0.00     0.100 C 
BRANCH  14  15
HETATM   15  C   UNL     1      41.757 -13.290   1.457  1.00  0.00     0.053 C 
BRANCH  15  16
HETATM   16  C   UNL     1      42.086 -12.835   2.854  1.00  0.00    -0.057 A 
HETATM   17  C   UNL     1      43.340 -12.286   3.145  1.00  0.00     0.010 A 
HETATM   18  C   UNL     1      43.641 -11.864   4.442  1.00  0.00     0.037 A 
HETATM   19  C   UNL     1      42.699 -11.978   5.465  1.00  0.00     0.068 A 
HETATM   20  C   UNL     1      41.453 -12.535   5.184  1.00  0.00     0.037 A 
HETATM   21  C   UNL     1      41.148 -12.964   3.886  1.00  0.00     0.010 A 
BRANCH  19  22
HETATM   22  O   UNL     1      43.120 -11.517   6.682  1.00  0.00    -0.356 OA
HETATM   23  C   UNL     1      44.378 -11.991   7.149  1.00  0.00     0.210 C 
ENDBRANCH  19  22
ENDBRANCH  15  16
ENDBRANCH  14  15
ENDBRANCH  12  14
ENDBRANCH   3  12
BRANCH   1  24
HETATM   24  N   UNL     1      43.846 -16.436   5.845  1.00  0.00    -0.273 NA
HETATM   25  H   UNL     1      44.780 -16.075   6.026  1.00  0.00     0.129 HD
BRANCH  24  26
HETATM   26  C   UNL     1      42.807 -15.608   6.470  1.00  0.00     0.053 C 
HETATM   27  C   UNL     1      43.070 -15.436   7.964  1.00  0.00     0.026 C 
HETATM   28  C   UNL     1      41.462 -16.304   6.251  1.00  0.00     0.026 C 
ENDBRANCH  24  26
ENDBRANCH   1  24
TORSDOF 7
ENDMDL
MODEL 3
REMARK VINA RESULT:      -8.0      4.660      7.667
REMARK  7 active torsions:
REMARK  status: ('A' for Active; 'I' for Inactive)
REMARK    1  A    between atoms: C_2  and  N_3 
REMARK    2  A    between atoms: N_3  and  C_4 
REMARK    3  A    between atoms: C_6  and  N_7 
REMARK    4  A    between atoms: N_7  and  C_8 
REMARK    5  A    between atoms: C_8  and  C_9 
REMARK    6  A    between atoms: C_9  and  C_10 
REMARK    7  A    between atoms: C_13  and  O_14 
ROOT
HETATM    1  C   UNL     1      42.655 -15.592   3.273  1.00  0.00     0.119 A 
HETATM    2  N   UNL     1      42.690 -14.756   4.328  1.00  0.00    -0.207 NA
HETATM    3  C   UNL     1      43.123 -15.230   5.506  1.00  0.00     0.181 A 
HETATM    4  N   UNL     1      43.553 -16.480   5.656  1.00  0.00    -0.330 N 
HETATM    5  H   UNL     1      43.924 -16.735   6.561  1.00  0.00     0.168 HD
HETATM    6  C   UNL     1      43.558 -17.347   4.639  1.00  0.00     0.048 A 
HETATM    7  C   UNL     1      43.096 -16.928   3.377  1.00  0.00     0.031 A 
HETATM    8  C   UNL     1      44.026 -18.656   4.836  1.00  0.00     0.030 A 
HETATM    9  C   UNL     1      44.040 -19.561   3.775  1.00  0.00     0.002 A 
HETATM   10  C   UNL     1      43.597 -19.165   2.517  1.00  0.00     0.001 A 
HETATM   11  C   UNL     1      43.133 -17.863   2.316  1.00  0.00     0.017 A 
ENDROOT
BRANCH   3  12
HETATM   12  N   UNL     1      43.165 -14.429   6.642  1.00  0.00    -0.262 NA
HETATM   13  H   UNL     1      42.416 -14.623   7.300  1.00  0.00     0.130 HD
BRANCH  12  14
HETATM   14  C   UNL     1      43.292 -12.987   6.378  1.00  0.00     0.100 C 
BRANCH  14  15
HETATM   15  C   UNL     1      44.726 -12.532   6.681  1.00  0.00     0.053 C 
BRANCH  15  16
HETATM   16  C   UNL     1      44.775 -11.137   7.245  1.00  0.00    -0.057 A 
HETATM   17  C   UNL     1      43.597 -10.408   7.439  1.00  0.00     0.010 A 
HETATM   18  C   UNL     1      43.647  -9.114   7.964  1.00  0.00     0.037 A 
HETATM   19  C   UNL     1      44.868  -8.531   8.306  1.00  0.00     0.068 A 
HETATM   20  C   UNL     1      46.045  -9.248   8.104  1.00  0.00     0.037 A 
HETATM   21  C   UNL     1      46.000 -10.543   7.574  1.00  0.00     0.010 A 
BRANCH  19  22
HETATM   22  O   UNL     1      44.772  -7.267   8.819  1.00  0.00    -0.356 OA
HETATM   23  C   UNL     1      43.485  -6.846   9.256  1.00  0.00     0.210 C 
ENDBRANCH  19  22
ENDBRANCH  15  16
ENDBRANCH  14  15
ENDBRANCH  12  14
ENDBRANCH   3  12
BRANCH   1  24
HETATM   24  N   UNL     1      42.230 -15.102   2.036  1.00  0.00    -0.273 NA
HETATM   25  H   UNL     1      42.527 -15.694   1.264  1.00  0.00     0.129 HD
BRANCH  24  26
HETATM   26  C   UNL     1      40.841 -14.653   1.882  1.00  0.00     0.053 C 
HETATM   27  C   UNL     1      39.864 -15.740   2.327  1.00  0.00     0.026 C 
HETATM   28  C   UNL     1      40.618 -14.322   0.406  1.00  0.00     0.026 C 
ENDBRANCH  24  26
ENDBRANCH   1  24
TORSDOF 7
ENDMDL
MODEL 4
REMARK VINA RESULT:      -7.9      2.424      4.789
REMARK  7 active torsions:
REMARK  status: ('A' for Active; 'I' for Inactive)
REMARK    1  A    between atoms: C_2  and  N_3 
REMARK    2  A    between atoms: N_3  and  C_4 
REMARK    3  A    between atoms: C_6  and  N_7 
REMARK    4  A    between atoms: N_7  and  C_8 
REMARK    5  A    between atoms: C_8  and  C_9 
REMARK    6  A    between atoms: C_9  and  C_10 
REMARK    7  A    between atoms: C_13  and  O_14 
ROOT
HETATM    1  C   UNL     1      43.188 -16.754   3.240  1.00  0.00     0.119 A 
HETATM    2  N   UNL     1      43.507 -15.994   4.305  1.00  0.00    -0.207 NA
HETATM    3  C   UNL     1      43.996 -16.597   5.399  1.00  0.00     0.181 A 
HETATM    4  N   UNL     1      44.212 -17.909   5.452  1.00  0.00    -0.330 N 
HETATM    5  H   UNL     1      44.646 -18.272   6.290  1.00  0.00     0.168 HD
HETATM    6  C   UNL     1      43.931 -18.709   4.418  1.00  0.00     0.048 A 
HETATM    7  C   UNL     1      43.394 -18.150   3.244  1.00  0.00     0.031 A 
HETATM    8  C   UNL     1      44.180 -20.088   4.511  1.00  0.00     0.030 A 
HETATM    9  C   UNL     1      43.896 -20.924   3.432  1.00  0.00     0.002 A 
HETATM   10  C   UNL     1      43.373 -20.391   2.258  1.00  0.00     0.001 A 
HETATM   11  C   UNL     1      43.126 -19.019   2.161  1.00  0.00     0.017 A 
ENDROOT
BRANCH   3  12
HETATM   12  N   UNL     1      44.326 -15.877   6.541  1.00  0.00    -0.262 NA
HETATM   13  H   UNL     1      44.840 -16.423   7.227  1.00  0.00     0.130 HD
BRANCH  12  14
HETATM   14  C   UNL     1      43.206 -15.150   7.160  1.00  0.00     0.100 C 
BRANCH  14  15
HETATM   15  C   UNL     1      43.324 -13.655   6.838  1.00  0.00     0.053 C 
BRANCH  15  16
HETATM   16  C   UNL     1      42.219 -13.177   5.932  1.00  0.00    -0.057 A 
HETATM   17  C   UNL     1      40.894 -13.559   6.168  1.00  0.00     0.010 A 
HETATM   18  C   UNL     1      39.872 -13.112   5.326  1.00  0.00     0.037 A 
HETATM   19  C   UNL     1      40.155 -12.278   4.243  1.00  0.00     0.068 A 
HETATM   20  C   UNL     1      41.474 -11.905   3.997  1.00  0.00     0.037 A 
HETATM   21  C   UNL     1      42.502 -12.353   4.835  1.00  0.00     0.010 A 
BRANCH  19  22
HETATM   22  O   UNL     1      39.062 -11.907   3.509  1.00  0.00    -0.356 OA
HETATM   23  C   UNL     1      39.192 -11.953   2.093  1.00  0.00     0.210 C 
ENDBRANCH  19  22
ENDBRANCH  15  16
ENDBRANCH  14  15
ENDBRANCH  12  14
ENDBRANCH   3  12
BRANCH   1  24
HETATM   24  N   UNL     1      42.702 -16.133   2.088  1.00  0.00    -0.273 NA
HETATM   25  H   UNL     1      42.573 -16.789   1.321  1.00  0.00     0.129 HD
BRANCH  24  26
HETATM   26  C   UNL     1      41.580 -15.193   2.200  1.00  0.00     0.053 C 
HETATM   27  C   UNL     1      40.381 -15.852   2.878  1.00  0.00     0.026 C 
HETATM   28  C   UNL     1      41.202 -14.747   0.786  1.00  0.00     0.026 C 
ENDBRANCH  24  26
ENDBRANCH   1  24
TORSDOF 7
ENDMDL
MODEL 5
REMARK VINA RESULT:      -7.4      1.419      2.048
REMARK  7 active torsions:
REMARK  status: ('A' for Active; 'I' for Inactive)
REMARK    1  A    between atoms: C_2  and  N_3 
REMARK    2  A    between atoms: N_3  and  C_4 
REMARK    3  A    between atoms: C_6  and  N_7 
REMARK    4  A    between atoms: N_7  and  C_8 
REMARK    5  A    between atoms: C_8  and  C_9 
REMARK    6  A    between atoms: C_9  and  C_10 
REMARK    7  A    between atoms: C_13  and  O_14 
ROOT
HETATM    1  C   UNL     1      43.202 -16.118   4.314  1.00  0.00     0.119 A 
HETATM    2  N   UNL     1      42.714 -15.257   3.402  1.00  0.00    -0.207 NA
HETATM    3  C   UNL     1      42.498 -15.701   2.154  1.00  0.00     0.181 A 
HETATM    4  N   UNL     1      42.711 -16.966   1.802  1.00  0.00    -0.330 N 
HETATM    5  H   UNL     1      42.457 -17.232   0.859  1.00  0.00     0.168 HD
HETATM    6  C   UNL     1      43.176 -17.868   2.671  1.00  0.00     0.048 A 
HETATM    7  C   UNL     1      43.448 -17.470   3.994  1.00  0.00     0.031 A 
HETATM    8  C   UNL     1      43.381 -19.195   2.262  1.00  0.00     0.030 A 
HETATM    9  C   UNL     1      43.859 -20.141   3.169  1.00  0.00     0.002 A 
HETATM   10  C   UNL     1      44.126 -19.771   4.483  1.00  0.00     0.001 A 
HETATM   11  C   UNL     1      43.920 -18.452   4.895  1.00  0.00     0.017 A 
ENDROOT
BRANCH   3  12
HETATM   12  N   UNL     1      42.016 -14.862   1.155  1.00  0.00    -0.262 NA
HETATM   13  H   UNL     1      42.563 -14.014   1.044  1.00  0.00     0.130 HD
BRANCH  12  14
HETATM   14  C   UNL     1      40.575 -14.568   1.236  1.00  0.00     0.100 C 
BRANCH  14  15
HETATM   15  C   UNL     1      39.911 -14.881  -0.111  1.00  0.00     0.053 C 
BRANCH  15  16
HETATM   16  C   UNL     1      39.773 -13.657  -0.978  1.00  0.00    -0.057 A 
HETATM   17  C   UNL     1      40.276 -13.652  -2.284  1.00  0.00     0.010 A 
HETATM   18  C   UNL     1      40.144 -12.515  -3.085  1.00  0.00     0.037 A 
HETATM   19  C   UNL     1      39.507 -11.372  -2.600  1.00  0.00     0.068 A 
HETATM   20  C   UNL     1      39.015 -11.367  -1.297  1.00  0.00     0.037 A 
HETATM   21  C   UNL     1      39.149 -12.503  -0.489  1.00  0.00     0.010 A 
BRANCH  19  22
HETATM   22  O   UNL     1      39.438 -10.337  -3.492  1.00  0.00    -0.356 OA
HETATM   23  C   UNL     1      40.672  -9.763  -3.909  1.00  0.00     0.210 C 
ENDBRANCH  19  22
ENDBRANCH  15  16
ENDBRANCH  14  15
ENDBRANCH  12  14
ENDBRANCH   3  12
BRANCH   1  24
HETATM   24  N   UNL     1      43.407 -15.673   5.622  1.00  0.00    -0.273 NA
HETATM   25  H   UNL     1      43.696 -14.698   5.656  1.00  0.00     0.129 HD
BRANCH  24  26
HETATM   26  C   UNL     1      42.407 -15.986   6.650  1.00  0.00     0.053 C 
HETATM   27  C   UNL     1      41.145 -15.147   6.459  1.00  0.00     0.026 C 
HETATM   28  C   UNL     1      43.032 -15.689   8.014  1.00  0.00     0.026 C 
ENDBRANCH  24  26
ENDBRANCH   1  24
TORSDOF 7
ENDMDL
MODEL 6
REMARK VINA RESULT:      -7.3      4.784      8.246
REMARK  7 active torsions:
REMARK  status: ('A' for Active; 'I' for Inactive)
REMARK    1  A    between atoms: C_2  and  N_3 
REMARK    2  A    between atoms: N_3  and  C_4 
REMARK    3  A    between atoms: C_6  and  N_7 
REMARK    4  A    between atoms: N_7  and  C_8 
REMARK    5  A    between atoms: C_8  and  C_9 
REMARK    6  A    between atoms: C_9  and  C_10 
REMARK    7  A    between atoms: C_13  and  O_14 
ROOT
HETATM    1  C   UNL     1      42.673 -15.013   2.696  1.00  0.00     0.119 A 
HETATM    2  N   UNL     1      42.597 -13.978   3.553  1.00  0.00    -0.207 NA
HETATM    3  C   UNL     1      42.934 -14.182   4.836  1.00  0.00     0.181 A 
HETATM    4  N   UNL     1      43.376 -15.357   5.278  1.00  0.00    -0.330 N 
HETATM    5  H   UNL     1      43.672 -15.405   6.243  1.00  0.00     0.168 HD
HETATM    6  C   UNL     1      43.490 -16.414   4.467  1.00  0.00     0.048 A 
HETATM    7  C   UNL     1      43.133 -16.281   3.112  1.00  0.00     0.031 A 
HETATM    8  C   UNL     1      43.967 -17.634   4.970  1.00  0.00     0.030 A 
HETATM    9  C   UNL     1      44.095 -18.737   4.126  1.00  0.00     0.002 A 
HETATM   10  C   UNL     1      43.757 -18.625   2.781  1.00  0.00     0.001 A 
HETATM   11  C   UNL     1      43.284 -17.412   2.276  1.00  0.00     0.017 A 
ENDROOT
BRANCH   3  12
HETATM   12  N   UNL     1      42.858 -13.164   5.780  1.00  0.00    -0.262 NA
HETATM   13  H   UNL     1      42.510 -12.289   5.401  1.00  0.00     0.130 HD
BRANCH  12  14
HETATM   14  C   UNL     1      44.083 -12.960   6.570  1.00  0.00     0.100 C 
BRANCH  14  15
HETATM   15  C   UNL     1      44.543 -11.502   6.438  1.00  0.00     0.053 C 
BRANCH  15  16
HETATM   16  C   UNL     1      44.422 -10.745   7.734  1.00  0.00    -0.057 A 
HETATM   17  C   UNL     1      43.181 -10.255   8.156  1.00  0.00     0.010 A 
HETATM   18  C   UNL     1      43.073  -9.555   9.360  1.00  0.00     0.037 A 
HETATM   19  C   UNL     1      44.195  -9.337  10.161  1.00  0.00     0.068 A 
HETATM   20  C   UNL     1      45.435  -9.812   9.740  1.00  0.00     0.037 A 
HETATM   21  C   UNL     1      45.549 -10.511   8.532  1.00  0.00     0.010 A 
BRANCH  19  22
HETATM   22  O   UNL     1      43.946  -8.648  11.316  1.00  0.00    -0.356 OA
HETATM   23  C   UNL     1      42.817  -9.059  12.080  1.00  0.00     0.210 C 
ENDBRANCH  19  22
ENDBRANCH  15  16
ENDBRANCH  14  15
ENDBRANCH  12  14
ENDBRANCH   3  12
BRANCH   1  24
HETATM   24  N   UNL     1      42.349 -14.805   1.354  1.00  0.00    -0.273 NA
HETATM   25  H   UNL     1      43.020 -15.238   0.724  1.00  0.00     0.129 HD
BRANCH  24  26
HETATM   26  C   UNL     1      40.965 -15.014   0.911  1.00  0.00     0.053 C 
HETATM   27  C   UNL     1      40.389 -13.739   0.299  1.00  0.00     0.026 C 
HETATM   28  C   UNL     1      40.141 -15.428   2.132  1.00  0.00     0.026 C 
ENDBRANCH  24  26
ENDBRANCH   1  24
TORSDOF 7
ENDMDL
MODEL 7
REMARK VINA RESULT:      -7.3      3.780      7.285
REMARK  7 active torsions:
REMARK  status: ('A' for Active; 'I' for Inactive)
REMARK    1  A    between atoms: C_2  and  N_3 
REMARK    2  A    between atoms: N_3  and  C_4 
REMARK    3  A    between atoms: C_6  and  N_7 
REMARK    4  A    between atoms: N_7  and  C_8 
REMARK    5  A    between atoms: C_8  and  C_9 
REMARK    6  A    between atoms: C_9  and  C_10 
REMARK    7  A    between atoms: C_13  and  O_14 
ROOT
HETATM    1  C   UNL     1      41.142 -13.156   5.175  1.00  0.00     0.119 A 
HETATM    2  N   UNL     1      41.791 -13.615   4.089  1.00  0.00    -0.207 NA
HETATM    3  C   UNL     1      41.535 -13.045   2.901  1.00  0.00     0.181 A 
HETATM    4  N   UNL     1      40.695 -12.022   2.769  1.00  0.00    -0.330 N 
HETATM    5  H   UNL     1      40.612 -11.609   1.850  1.00  0.00     0.168 HD
HETATM    6  C   UNL     1      40.039 -11.513   3.817  1.00  0.00     0.048 A 
HETATM    7  C   UNL     1      40.240 -12.075   5.091  1.00  0.00     0.031 A 
HETATM    8  C   UNL     1      39.166 -10.428   3.637  1.00  0.00     0.030 A 
HETATM    9  C   UNL     1      38.485  -9.889   4.728  1.00  0.00     0.002 A 
HETATM   10  C   UNL     1      38.676 -10.423   5.998  1.00  0.00     0.001 A 
HETATM   11  C   UNL     1      39.545 -11.501   6.182  1.00  0.00     0.017 A 
ENDROOT
BRANCH   3  12
HETATM   12  N   UNL     1      42.153 -13.483   1.735  1.00  0.00    -0.262 NA
HETATM   13  H   UNL     1      41.503 -13.867   1.055  1.00  0.00     0.130 HD
BRANCH  12  14
HETATM   14  C   UNL     1      43.305 -14.375   1.943  1.00  0.00     0.100 C 
BRANCH  14  15
HETATM   15  C   UNL     1      42.945 -15.795   1.487  1.00  0.00     0.053 C 
BRANCH  15  16
HETATM   16  C   UNL     1      43.274 -16.830   2.530  1.00  0.00    -0.057 A 
HETATM   17  C   UNL     1      43.171 -18.194   2.233  1.00  0.00     0.010 A 
HETATM   18  C   UNL     1      43.478 -19.151   3.204  1.00  0.00     0.037 A 
HETATM   19  C   UNL     1      43.894 -18.765   4.479  1.00  0.00     0.068 A 
HETATM   20  C   UNL     1      43.987 -17.409   4.783  1.00  0.00     0.037 A 
HETATM   21  C   UNL     1      43.676 -16.446   3.816  1.00  0.00     0.010 A 
BRANCH  19  22
HETATM   22  O   UNL     1      44.173 -19.802   5.326  1.00  0.00    -0.356 OA
HETATM   23  C   UNL     1      44.232 -21.103   4.752  1.00  0.00     0.210 C 
ENDBRANCH  19  22
ENDBRANCH  15  16
ENDBRANCH  14  15
ENDBRANCH  12  14
ENDBRANCH   3  12
BRANCH   1  24
HETATM   24  N   UNL     1      41.420 -13.725   6.419  1.00  0.00    -0.273 NA
HETATM   25  H   UNL     1      40.763 -13.425   7.136  1.00  0.00     0.129 HD
BRANCH  24  26
HETATM   26  C   UNL     1      41.705 -15.163   6.502  1.00  0.00     0.053 C 
HETATM   27  C   UNL     1      40.418 -15.965   6.677  1.00  0.00     0.026 C 
HETATM   28  C   UNL     1      42.629 -15.387   7.700  1.00  0.00     0.026 C 
ENDBRANCH  24  26
ENDBRANCH   1  24
TORSDOF 7
ENDMDL
MODEL 8
REMARK VINA RESULT:      -7.3      3.288      4.874
REMARK  7 active torsions:
REMARK  status: ('A' for Active; 'I' for Inactive)
REMARK    1  A    between atoms: C_2  and  N_3 
REMARK    2  A    between atoms: N_3  and  C_4 
REMARK    3  A    between atoms: C_6  and  N_7 
REMARK    4  A    between atoms: N_7  and  C_8 
REMARK    5  A    between atoms: C_8  and  C_9 
REMARK    6  A    between atoms: C_9  and  C_10 
REMARK    7  A    between atoms: C_13  and  O_14 
ROOT
HETATM    1  C   UNL     1      41.631 -16.303   5.137  1.00  0.00     0.119 A 
HETATM    2  N   UNL     1      40.648 -15.604   4.540  1.00  0.00    -0.207 NA
HETATM    3  C   UNL     1      40.524 -15.681   3.206  1.00  0.00     0.181 A 
HETATM    4  N   UNL     1      41.312 -16.453   2.463  1.00  0.00    -0.330 N 
HETATM    5  H   UNL     1      41.107 -16.504   1.474  1.00  0.00     0.168 HD
HETATM    6  C   UNL     1      42.291 -17.184   3.003  1.00  0.00     0.048 A 
HETATM    7  C   UNL     1      42.496 -17.136   4.395  1.00  0.00     0.031 A 
HETATM    8  C   UNL     1      43.097 -17.992   2.185  1.00  0.00     0.030 A 
HETATM    9  C   UNL     1      44.115 -18.762   2.746  1.00  0.00     0.002 A 
HETATM   10  C   UNL     1      44.328 -18.736   4.121  1.00  0.00     0.001 A 
HETATM   11  C   UNL     1      43.527 -17.936   4.939  1.00  0.00     0.017 A 
ENDROOT
BRANCH   3  12
HETATM   12  N   UNL     1      39.546 -14.968   2.523  1.00  0.00    -0.262 NA
HETATM   13  H   UNL     1      38.923 -15.558   1.979  1.00  0.00     0.130 HD
BRANCH  12  14
HETATM   14  C   UNL     1      40.047 -13.835   1.727  1.00  0.00     0.100 C 
BRANCH  14  15
HETATM   15  C   UNL     1      39.708 -12.518   2.438  1.00  0.00     0.053 C 
BRANCH  15  16
HETATM   16  C   UNL     1      40.811 -12.065   3.358  1.00  0.00    -0.057 A 
HETATM   17  C   UNL     1      40.544 -11.796   4.705  1.00  0.00     0.010 A 
HETATM   18  C   UNL     1      41.571 -11.377   5.555  1.00  0.00     0.037 A 
HETATM   19  C   UNL     1      42.873 -11.224   5.079  1.00  0.00     0.068 A 
HETATM   20  C   UNL     1      43.141 -11.479   3.736  1.00  0.00     0.037 A 
HETATM   21  C   UNL     1      42.115 -11.895   2.878  1.00  0.00     0.010 A 
BRANCH  19  22
HETATM   22  O   UNL     1      43.780 -10.819   6.019  1.00  0.00    -0.356 OA
HETATM   23  C   UNL     1      45.113 -11.296   5.875  1.00  0.00     0.210 C 
ENDBRANCH  19  22
ENDBRANCH  15  16
ENDBRANCH  14  15
ENDBRANCH  12  14
ENDBRANCH   3  12
BRANCH   1  24
HETATM   24  N   UNL     1      41.752 -16.249   6.526  1.00  0.00    -0.273 NA
HETATM   25  H   UNL     1      42.020 -17.146   6.926  1.00  0.00     0.129 HD
BRANCH  24  26
HETATM   26  C   UNL     1      42.484 -15.135   7.139  1.00  0.00     0.053 C 
HETATM   27  C   UNL     1      43.491 -14.537   6.158  1.00  0.00     0.026 C 
HETATM   28  C   UNL     1      43.212 -15.676   8.371  1.00  0.00     0.026 C 
ENDBRANCH  24  26
ENDBRANCH   1  24
TORSDOF 7
ENDMDL
MODEL 9
REMARK VINA RESULT:      -7.3     13.622     15.812
REMARK  7 active torsions:
REMARK  status: ('A' for Active; 'I' for Inactive)
REMARK    1  A    between atoms: C_2  and  N_3 
REMARK    2  A    between atoms: N_3  and  C_4 
REMARK    3  A    between atoms: C_6  and  N_7 
REMARK    4  A    between atoms: N_7  and  C_8 
REMARK    5  A    between atoms: C_8  and  C_9 
REMARK    6  A    between atoms: C_9  and  C_10 
REMARK    7  A    between atoms: C_13  and  O_14 
ROOT
HETATM    1  C   UNL     1      49.462 -30.290   0.826  1.00  0.00     0.119 A 
HETATM    2  N   UNL     1      48.462 -29.469   0.455  1.00  0.00    -0.207 NA
HETATM    3  C   UNL     1      48.401 -29.073  -0.826  1.00  0.00     0.181 A 
HETATM    4  N   UNL     1      49.267 -29.494  -1.743  1.00  0.00    -0.330 N 
HETATM    5  H   UNL     1      49.108 -29.200  -2.698  1.00  0.00     0.168 HD
HETATM    6  C   UNL     1      50.268 -30.325  -1.435  1.00  0.00     0.048 A 
HETATM    7  C   UNL     1      50.409 -30.765  -0.106  1.00  0.00     0.031 A 
HETATM    8  C   UNL     1      51.157 -30.752  -2.434  1.00  0.00     0.030 A 
HETATM    9  C   UNL     1      52.198 -31.625  -2.118  1.00  0.00     0.002 A 
HETATM   10  C   UNL     1      52.350 -32.080  -0.812  1.00  0.00     0.001 A 
HETATM   11  C   UNL     1      51.466 -31.660   0.185  1.00  0.00     0.017 A 
ENDROOT
BRANCH   3  12
HETATM   12  N   UNL     1      47.408 -28.208  -1.274  1.00  0.00    -0.262 NA
HETATM   13  H   UNL     1      47.755 -27.282  -1.503  1.00  0.00     0.130 HD
BRANCH  12  14
HETATM   14  C   UNL     1      46.213 -28.141  -0.417  1.00  0.00     0.100 C 
BRANCH  14  15
HETATM   15  C   UNL     1      44.979 -27.842  -1.278  1.00  0.00     0.053 C 
BRANCH  15  16
HETATM   16  C   UNL     1      44.742 -28.901  -2.322  1.00  0.00    -0.057 A 
HETATM   17  C   UNL     1      44.845 -28.592  -3.683  1.00  0.00     0.010 A 
HETATM   18  C   UNL     1      44.626 -29.578  -4.648  1.00  0.00     0.037 A 
HETATM   19  C   UNL     1      44.304 -30.883  -4.273  1.00  0.00     0.068 A 
HETATM   20  C   UNL     1      44.188 -31.194  -2.920  1.00  0.00     0.037 A 
HETATM   21  C   UNL     1      44.403 -30.208  -1.949  1.00  0.00     0.010 A 
BRANCH  19  22
HETATM   22  O   UNL     1      44.126 -31.748  -5.317  1.00  0.00    -0.356 OA
HETATM   23  C   UNL     1      44.055 -31.179  -6.620  1.00  0.00     0.210 C 
ENDBRANCH  19  22
ENDBRANCH  15  16
ENDBRANCH  14  15
ENDBRANCH  12  14
ENDBRANCH   3  12
BRANCH   1  24
HETATM   24  N   UNL     1      49.521 -30.729   2.151  1.00  0.00    -0.273 NA
HETATM   25  H   UNL     1      49.843 -31.691   2.225  1.00  0.00     0.129 HD
BRANCH  24  26
HETATM   26  C   UNL     1      50.136 -29.864   3.165  1.00  0.00     0.053 C 
HETATM   27  C   UNL     1      51.076 -30.662   4.065  1.00  0.00     0.026 C 
HETATM   28  C   UNL     1      49.010 -29.248   3.998  1.00  0.00     0.026 C 
ENDBRANCH  24  26
ENDBRANCH   1  24
TORSDOF 7
ENDMDL
MODEL 10
REMARK VINA RESULT:      -7.2      3.164      5.278
REMARK  7 active torsions:
REMARK  status: ('A' for Active; 'I' for Inactive)
REMARK    1  A    between atoms: C_2  and  N_3 
REMARK    2  A    between atoms: N_3  and  C_4 
REMARK    3  A    between atoms: C_6  and  N_7 
REMARK    4  A    between atoms: N_7  and  C_8 
REMARK    5  A    between atoms: C_8  and  C_9 
REMARK    6  A    between atoms: C_9  and  C_10 
REMARK    7  A    between atoms: C_13  and  O_14 
ROOT
HETATM    1  C   UNL     1      41.944 -12.733   6.072  1.00  0.00     0.119 A 
HETATM    2  N   UNL     1      40.989 -12.351   5.204  1.00  0.00    -0.207 NA
HETATM    3  C   UNL     1      40.267 -13.298   4.587  1.00  0.00     0.181 A 
HETATM    4  N   UNL     1      40.436 -14.595   4.834  1.00  0.00    -0.330 N 
HETATM    5  H   UNL     1      39.804 -15.238   4.376  1.00  0.00     0.168 HD
HETATM    6  C   UNL     1      41.356 -15.031   5.701  1.00  0.00     0.048 A 
HETATM    7  C   UNL     1      42.167 -14.095   6.369  1.00  0.00     0.031 A 
HETATM    8  C   UNL     1      41.498 -16.407   5.938  1.00  0.00     0.030 A 
HETATM    9  C   UNL     1      42.451 -16.865   6.847  1.00  0.00     0.002 A 
HETATM   10  C   UNL     1      43.257 -15.956   7.526  1.00  0.00     0.001 A 
HETATM   11  C   UNL     1      43.117 -14.586   7.294  1.00  0.00     0.017 A 
ENDROOT
BRANCH   3  12
HETATM   12  N   UNL     1      39.280 -12.976   3.663  1.00  0.00    -0.262 NA
HETATM   13  H   UNL     1      38.614 -13.727   3.506  1.00  0.00     0.130 HD
BRANCH  12  14
HETATM   14  C   UNL     1      39.778 -12.423   2.393  1.00  0.00     0.100 C 
BRANCH  14  15
HETATM   15  C   UNL     1      39.799 -13.525   1.326  1.00  0.00     0.053 C 
BRANCH  15  16
HETATM   16  C   UNL     1      40.851 -14.566   1.600  1.00  0.00    -0.057 A 
HETATM   17  C   UNL     1      42.204 -14.212   1.646  1.00  0.00     0.010 A 
HETATM   18  C   UNL     1      43.177 -15.182   1.902  1.00  0.00     0.037 A 
HETATM   19  C   UNL     1      42.818 -16.512   2.120  1.00  0.00     0.068 A 
HETATM   20  C   UNL     1      41.473 -16.872   2.063  1.00  0.00     0.037 A 
HETATM   21  C   UNL     1      40.494 -15.905   1.802  1.00  0.00     0.010 A 
BRANCH  19  22
HETATM   22  O   UNL     1      43.868 -17.352   2.370  1.00  0.00    -0.356 OA
HETATM   23  C   UNL     1      43.792 -18.143   3.551  1.00  0.00     0.210 C 
ENDBRANCH  19  22
ENDBRANCH  15  16
ENDBRANCH  14  15
ENDBRANCH  12  14
ENDBRANCH   3  12
BRANCH   1  24
HETATM   24  N   UNL     1      42.684 -11.754   6.738  1.00  0.00    -0.273 NA
HETATM   25  H   UNL     1      42.899 -12.018   7.697  1.00  0.00     0.129 HD
BRANCH  24  26
HETATM   26  C   UNL     1      43.838 -11.147   6.064  1.00  0.00     0.053 C 
HETATM   27  C   UNL     1      43.942 -11.627   4.619  1.00  0.00     0.026 C 
HETATM   28  C   UNL     1      45.095 -11.546   6.840  1.00  0.00     0.026 C 
ENDBRANCH  24  26
ENDBRANCH   1  24
TORSDOF 7
ENDMDL
