MODEL 1
REMARK VINA RESULT:      -9.8      0.000      0.000
REMARK  8 active torsions:
REMARK  status: ('A' for Active; 'I' for Inactive)
REMARK    1  A    between atoms: C_2  and  C_3 
REMARK    2  A    between atoms: C_5  and  C_6 
REMARK       I    between atoms: C_6  and  N_7 
REMARK    3  A    between atoms: N_7  and  C_8 
REMARK    4  A    between atoms: C_8  and  C_9 
REMARK    5  A    between atoms: C_9  and  N_10 
REMARK    6  A    between atoms: C_9  and  C_20 
REMARK       I    between atoms: N_10  and  C_11 
REMARK    7  A    between atoms: C_11  and  C_12 
REMARK    8  A    between atoms: C_14  and  C_15 
ROOT
HETATM    1  C   UNL     1      42.890 -14.369   3.436  1.00  0.00     0.136 C 
ENDROOT
BRANCH   1   2
HETATM    2  C   UNL     1      42.271 -13.801   4.739  1.00  0.00     0.153 C 
BRANCH   2   3
HETATM    3  N   UNL     1      43.126 -12.847   5.420  1.00  0.00    -0.353 N 
HETATM    4  C   UNL     1      43.623 -13.069   6.685  1.00  0.00     0.275 C 
HETATM    5  O   UNL     1      43.328 -14.070   7.335  1.00  0.00    -0.265 OA
HETATM    6  H   UNL     1      43.503 -12.066   4.892  1.00  0.00     0.162 HD
BRANCH   4   7
HETATM    7  C   UNL     1      44.519 -12.038   7.163  1.00  0.00     0.143 A 
HETATM    8  O   UNL     1      44.354 -11.525   8.424  1.00  0.00    -0.310 OA
HETATM    9  C   UNL     1      45.333 -10.597   8.615  1.00  0.00     0.053 A 
HETATM   10  C   UNL     1      46.120 -10.497   7.488  1.00  0.00     0.036 A 
HETATM   11  C   UNL     1      45.596 -11.422   6.555  1.00  0.00     0.045 A 
BRANCH   9  12
HETATM   12  C   UNL     1      45.356  -9.921   9.936  1.00  0.00     0.060 C 
HETATM   13  C   UNL     1      44.141 -10.284  10.771  1.00  0.00     0.012 C 
ENDBRANCH   9  12
ENDBRANCH   4   7
ENDBRANCH   2   3
ENDBRANCH   1   2
BRANCH   1  14
HETATM   14  N   UNL     1      42.192 -14.044   2.195  1.00  0.00    -0.345 N 
HETATM   15  C   UNL     1      40.854 -14.233   1.941  1.00  0.00     0.276 C 
HETATM   16  O   UNL     1      40.044 -14.568   2.800  1.00  0.00    -0.265 OA
HETATM   17  H   UNL     1      42.766 -13.849   1.384  1.00  0.00     0.163 HD
BRANCH  15  18
HETATM   18  C   UNL     1      40.490 -13.998   0.558  1.00  0.00     0.143 A 
HETATM   19  O   UNL     1      39.789 -14.957  -0.128  1.00  0.00    -0.310 OA
HETATM   20  C   UNL     1      39.572 -14.478  -1.385  1.00  0.00     0.053 A 
HETATM   21  C   UNL     1      40.125 -13.223  -1.518  1.00  0.00     0.036 A 
HETATM   22  C   UNL     1      40.715 -12.914  -0.269  1.00  0.00     0.045 A 
BRANCH  20  23
HETATM   23  C   UNL     1      38.819 -15.362  -2.310  1.00  0.00     0.060 C 
HETATM   24  C   UNL     1      38.264 -14.586  -3.493  1.00  0.00     0.012 C 
ENDBRANCH  20  23
ENDBRANCH  15  18
ENDBRANCH   1  14
BRANCH   1  25
HETATM   25  C   UNL     1      43.153 -15.864   3.536  1.00  0.00    -0.031 A 
HETATM   26  C   UNL     1      43.315 -16.502   4.777  1.00  0.00     0.049 A 
HETATM   27  C   UNL     1      43.551 -17.876   4.841  1.00  0.00     0.102 A 
HETATM   28  C   UNL     1      43.665 -18.625   3.668  1.00  0.00     0.102 A 
HETATM   29  O   UNL     1      43.671 -18.422   6.095  1.00  0.00    -0.346 OA
HETATM   30  O   UNL     1      43.931 -19.971   3.656  1.00  0.00    -0.346 OA
HETATM   31  C   UNL     1      43.496 -18.009   2.432  1.00  0.00     0.040 A 
HETATM   32  C   UNL     1      44.414 -20.417   4.927  1.00  0.00     0.202 C 
HETATM   33  C   UNL     1      43.564 -19.849   6.052  1.00  0.00     0.202 C 
HETATM   34  C   UNL     1      43.242 -16.637   2.365  1.00  0.00     0.012 A 
ENDBRANCH   1  25
TORSDOF 8
ENDMDL
MODEL 2
REMARK VINA RESULT:      -9.7      1.235      1.930
REMARK  8 active torsions:
REMARK  status: ('A' for Active; 'I' for Inactive)
REMARK    1  A    between atoms: C_2  and  C_3 
REMARK    2  A    between atoms: C_5  and  C_6 
REMARK       I    between atoms: C_6  and  N_7 
REMARK    3  A    between atoms: N_7  and  C_8 
REMARK    4  A    between atoms: C_8  and  C_9 
REMARK    5  A    between atoms: C_9  and  N_10 
REMARK    6  A    between atoms: C_9  and  C_20 
REMARK       I    between atoms: N_10  and  C_11 
REMARK    7  A    between atoms: C_11  and  C_12 
REMARK    8  A    between atoms: C_14  and  C_15 
ROOT
HETATM    1  C   UNL     1      42.879 -14.649   3.462  1.00  0.00     0.136 C 
ENDROOT
BRANCH   1   2
HETATM    2  C   UNL     1      42.226 -14.015   4.717  1.00  0.00     0.153 C 
BRANCH   2   3
HETATM    3  N   UNL     1      43.063 -13.027   5.371  1.00  0.00    -0.353 N 
HETATM    4  C   UNL     1      43.534 -13.187   6.655  1.00  0.00     0.275 C 
HETATM    5  O   UNL     1      43.228 -14.157   7.345  1.00  0.00    -0.265 OA
HETATM    6  H   UNL     1      43.450 -12.270   4.815  1.00  0.00     0.162 HD
BRANCH   4   7
HETATM    7  C   UNL     1      44.416 -12.131   7.103  1.00  0.00     0.143 A 
HETATM    8  O   UNL     1      44.279 -11.622   8.369  1.00  0.00    -0.310 OA
HETATM    9  C   UNL     1      45.237 -10.667   8.528  1.00  0.00     0.053 A 
HETATM   10  C   UNL     1      45.984 -10.546   7.376  1.00  0.00     0.036 A 
HETATM   11  C   UNL     1      45.456 -11.486   6.460  1.00  0.00     0.045 A 
BRANCH   9  12
HETATM   12  C   UNL     1      45.285  -9.989   9.847  1.00  0.00     0.060 C 
HETATM   13  C   UNL     1      44.092 -10.360  10.710  1.00  0.00     0.012 C 
ENDBRANCH   9  12
ENDBRANCH   4   7
ENDBRANCH   2   3
ENDBRANCH   1   2
BRANCH   1  14
HETATM   14  N   UNL     1      42.138 -14.513   2.211  1.00  0.00    -0.345 N 
HETATM   15  C   UNL     1      41.802 -13.335   1.589  1.00  0.00     0.276 C 
HETATM   16  O   UNL     1      42.223 -12.239   1.945  1.00  0.00    -0.265 OA
HETATM   17  H   UNL     1      41.658 -15.337   1.871  1.00  0.00     0.163 HD
BRANCH  15  18
HETATM   18  C   UNL     1      40.899 -13.510   0.468  1.00  0.00     0.143 A 
HETATM   19  O   UNL     1      40.765 -12.504  -0.455  1.00  0.00    -0.310 OA
HETATM   20  C   UNL     1      39.875 -12.932  -1.394  1.00  0.00     0.053 A 
HETATM   21  C   UNL     1      39.434 -14.201  -1.088  1.00  0.00     0.036 A 
HETATM   22  C   UNL     1      40.092 -14.572   0.110  1.00  0.00     0.045 A 
BRANCH  20  23
HETATM   23  C   UNL     1      39.579 -11.991  -2.503  1.00  0.00     0.060 C 
HETATM   24  C   UNL     1      40.814 -11.205  -2.911  1.00  0.00     0.012 C 
ENDBRANCH  20  23
ENDBRANCH  15  18
ENDBRANCH   1  14
BRANCH   1  25
HETATM   25  C   UNL     1      43.283 -16.095   3.700  1.00  0.00    -0.031 A 
HETATM   26  C   UNL     1      43.046 -17.094   2.739  1.00  0.00     0.049 A 
HETATM   27  C   UNL     1      43.431 -18.414   2.981  1.00  0.00     0.102 A 
HETATM   28  C   UNL     1      44.023 -18.762   4.197  1.00  0.00     0.102 A 
HETATM   29  O   UNL     1      43.187 -19.319   1.978  1.00  0.00    -0.346 OA
HETATM   30  O   UNL     1      44.392 -20.044   4.515  1.00  0.00    -0.346 OA
HETATM   31  C   UNL     1      44.272 -17.783   5.154  1.00  0.00     0.040 A 
HETATM   32  C   UNL     1      43.791 -20.994   3.628  1.00  0.00     0.202 C 
HETATM   33  C   UNL     1      43.916 -20.533   2.185  1.00  0.00     0.202 C 
HETATM   34  C   UNL     1      43.905 -16.458   4.908  1.00  0.00     0.012 A 
ENDBRANCH   1  25
TORSDOF 8
ENDMDL
MODEL 3
REMARK VINA RESULT:      -9.1      1.671      7.889
REMARK  8 active torsions:
REMARK  status: ('A' for Active; 'I' for Inactive)
REMARK    1  A    between atoms: C_2  and  C_3 
REMARK    2  A    between atoms: C_5  and  C_6 
REMARK       I    between atoms: C_6  and  N_7 
REMARK    3  A    between atoms: N_7  and  C_8 
REMARK    4  A    between atoms: C_8  and  C_9 
REMARK    5  A    between atoms: C_9  and  N_10 
REMARK    6  A    between atoms: C_9  and  C_20 
REMARK       I    between atoms: N_10  and  C_11 
REMARK    7  A    between atoms: C_11  and  C_12 
REMARK    8  A    between atoms: C_14  and  C_15 
ROOT
HETATM    1  C   UNL     1      42.769 -14.674   3.509  1.00  0.00     0.136 C 
ENDROOT
BRANCH   1   2
HETATM    2  C   UNL     1      43.149 -14.159   2.097  1.00  0.00     0.153 C 
BRANCH   2   3
HETATM    3  N   UNL     1      42.027 -14.102   1.179  1.00  0.00    -0.353 N 
HETATM    4  C   UNL     1      41.232 -12.985   1.049  1.00  0.00     0.275 C 
HETATM    5  O   UNL     1      41.396 -11.984   1.743  1.00  0.00    -0.265 OA
HETATM    6  H   UNL     1      41.919 -14.844   0.494  1.00  0.00     0.162 HD
BRANCH   4   7
HETATM    7  C   UNL     1      40.213 -13.094   0.027  1.00  0.00     0.143 A 
HETATM    8  O   UNL     1      40.174 -14.204  -0.778  1.00  0.00    -0.310 OA
HETATM    9  C   UNL     1      39.118 -14.053  -1.625  1.00  0.00     0.053 A 
HETATM   10  C   UNL     1      38.483 -12.855  -1.385  1.00  0.00     0.036 A 
HETATM   11  C   UNL     1      39.187 -12.238  -0.324  1.00  0.00     0.045 A 
BRANCH   9  12
HETATM   12  C   UNL     1      38.874 -15.160  -2.583  1.00  0.00     0.060 C 
HETATM   13  C   UNL     1      38.037 -14.701  -3.764  1.00  0.00     0.012 C 
ENDBRANCH   9  12
ENDBRANCH   4   7
ENDBRANCH   2   3
ENDBRANCH   1   2
BRANCH   1  14
HETATM   14  N   UNL     1      43.176 -13.835   4.632  1.00  0.00    -0.345 N 
HETATM   15  C   UNL     1      42.390 -12.920   5.291  1.00  0.00     0.276 C 
HETATM   16  O   UNL     1      41.184 -12.805   5.101  1.00  0.00    -0.265 OA
HETATM   17  H   UNL     1      44.169 -13.771   4.821  1.00  0.00     0.163 HD
BRANCH  15  18
HETATM   18  C   UNL     1      43.124 -12.100   6.234  1.00  0.00     0.143 A 
HETATM   19  O   UNL     1      42.625 -10.874   6.596  1.00  0.00    -0.310 OA
HETATM   20  C   UNL     1      43.497 -10.329   7.490  1.00  0.00     0.053 A 
HETATM   21  C   UNL     1      44.551 -11.188   7.710  1.00  0.00     0.036 A 
HETATM   22  C   UNL     1      44.313 -12.326   6.902  1.00  0.00     0.045 A 
BRANCH  20  23
HETATM   23  C   UNL     1      43.148  -8.988   8.022  1.00  0.00     0.060 C 
HETATM   24  C   UNL     1      42.095  -8.306   7.165  1.00  0.00     0.012 C 
ENDBRANCH  20  23
ENDBRANCH  15  18
ENDBRANCH   1  14
BRANCH   1  25
HETATM   25  C   UNL     1      43.201 -16.116   3.724  1.00  0.00    -0.031 A 
HETATM   26  C   UNL     1      42.979 -17.105   2.750  1.00  0.00     0.049 A 
HETATM   27  C   UNL     1      43.389 -18.421   2.970  1.00  0.00     0.102 A 
HETATM   28  C   UNL     1      43.994 -18.776   4.178  1.00  0.00     0.102 A 
HETATM   29  O   UNL     1      43.157 -19.315   1.956  1.00  0.00    -0.346 OA
HETATM   30  O   UNL     1      44.390 -20.055   4.475  1.00  0.00    -0.346 OA
HETATM   31  C   UNL     1      44.230 -17.805   5.148  1.00  0.00     0.040 A 
HETATM   32  C   UNL     1      43.802 -21.003   3.578  1.00  0.00     0.202 C 
HETATM   33  C   UNL     1      43.911 -20.518   2.141  1.00  0.00     0.202 C 
HETATM   34  C   UNL     1      43.837 -16.485   4.923  1.00  0.00     0.012 A 
ENDBRANCH   1  25
TORSDOF 8
ENDMDL
MODEL 4
REMARK VINA RESULT:      -9.1      2.241      9.042
REMARK  8 active torsions:
REMARK  status: ('A' for Active; 'I' for Inactive)
REMARK    1  A    between atoms: C_2  and  C_3 
REMARK    2  A    between atoms: C_5  and  C_6 
REMARK       I    between atoms: C_6  and  N_7 
REMARK    3  A    between atoms: N_7  and  C_8 
REMARK    4  A    between atoms: C_8  and  C_9 
REMARK    5  A    between atoms: C_9  and  N_10 
REMARK    6  A    between atoms: C_9  and  C_20 
REMARK       I    between atoms: N_10  and  C_11 
REMARK    7  A    between atoms: C_11  and  C_12 
REMARK    8  A    between atoms: C_14  and  C_15 
ROOT
HETATM    1  C   UNL     1      43.061 -13.652   6.383  1.00  0.00     0.136 C 
ENDROOT
BRANCH   1   2
HETATM    2  C   UNL     1      42.654 -14.949   7.127  1.00  0.00     0.153 C 
BRANCH   2   3
HETATM    3  N   UNL     1      42.915 -16.159   6.371  1.00  0.00    -0.353 N 
HETATM    4  C   UNL     1      43.624 -17.219   6.890  1.00  0.00     0.275 C 
HETATM    5  O   UNL     1      44.124 -17.181   8.012  1.00  0.00    -0.265 OA
HETATM    6  H   UNL     1      42.427 -16.300   5.492  1.00  0.00     0.162 HD
BRANCH   4   7
HETATM    7  C   UNL     1      43.713 -18.365   6.011  1.00  0.00     0.143 A 
HETATM    8  O   UNL     1      43.884 -18.176   4.663  1.00  0.00    -0.310 OA
HETATM    9  C   UNL     1      43.952 -19.408   4.086  1.00  0.00     0.053 A 
HETATM   10  C   UNL     1      43.816 -20.389   5.044  1.00  0.00     0.036 A 
HETATM   11  C   UNL     1      43.661 -19.719   6.280  1.00  0.00     0.045 A 
BRANCH   9  12
HETATM   12  C   UNL     1      44.157 -19.442   2.617  1.00  0.00     0.060 C 
HETATM   13  C   UNL     1      43.063 -20.231   1.919  1.00  0.00     0.012 C 
ENDBRANCH   9  12
ENDBRANCH   4   7
ENDBRANCH   2   3
ENDBRANCH   1   2
BRANCH   1  14
HETATM   14  N   UNL     1      43.375 -12.498   7.222  1.00  0.00    -0.345 N 
HETATM   15  C   UNL     1      44.551 -11.787   7.219  1.00  0.00     0.276 C 
HETATM   16  O   UNL     1      45.439 -11.952   6.388  1.00  0.00    -0.265 OA
HETATM   17  H   UNL     1      42.762 -12.324   8.009  1.00  0.00     0.163 HD
BRANCH  15  18
HETATM   18  C   UNL     1      44.644 -10.819   8.295  1.00  0.00     0.143 A 
HETATM   19  O   UNL     1      43.925 -11.018   9.446  1.00  0.00    -0.310 OA
HETATM   20  C   UNL     1      44.203  -9.979  10.282  1.00  0.00     0.053 A 
HETATM   21  C   UNL     1      45.092  -9.113   9.684  1.00  0.00     0.036 A 
HETATM   22  C   UNL     1      45.375  -9.652   8.406  1.00  0.00     0.045 A 
BRANCH  20  23
HETATM   23  C   UNL     1      43.528  -9.993  11.603  1.00  0.00     0.060 C 
HETATM   24  C   UNL     1      43.462  -8.601  12.210  1.00  0.00     0.012 C 
ENDBRANCH  20  23
ENDBRANCH  15  18
ENDBRANCH   1  14
BRANCH   1  25
HETATM   25  C   UNL     1      42.061 -13.279   5.300  1.00  0.00    -0.031 A 
HETATM   26  C   UNL     1      42.404 -13.310   3.937  1.00  0.00     0.049 A 
HETATM   27  C   UNL     1      41.466 -12.967   2.962  1.00  0.00     0.102 A 
HETATM   28  C   UNL     1      40.184 -12.555   3.335  1.00  0.00     0.102 A 
HETATM   29  O   UNL     1      41.877 -13.051   1.656  1.00  0.00    -0.346 OA
HETATM   30  O   UNL     1      39.225 -12.170   2.433  1.00  0.00    -0.346 OA
HETATM   31  C   UNL     1      39.827 -12.529   4.680  1.00  0.00     0.040 A 
HETATM   32  C   UNL     1      39.795 -11.912   1.146  1.00  0.00     0.202 C 
HETATM   33  C   UNL     1      40.764 -13.017   0.757  1.00  0.00     0.202 C 
HETATM   34  C   UNL     1      40.758 -12.888   5.656  1.00  0.00     0.012 A 
ENDBRANCH   1  25
TORSDOF 8
ENDMDL
MODEL 5
REMARK VINA RESULT:      -8.9      2.054      6.745
REMARK  8 active torsions:
REMARK  status: ('A' for Active; 'I' for Inactive)
REMARK    1  A    between atoms: C_2  and  C_3 
REMARK    2  A    between atoms: C_5  and  C_6 
REMARK       I    between atoms: C_6  and  N_7 
REMARK    3  A    between atoms: N_7  and  C_8 
REMARK    4  A    between atoms: C_8  and  C_9 
REMARK    5  A    between atoms: C_9  and  N_10 
REMARK    6  A    between atoms: C_9  and  C_20 
REMARK       I    between atoms: N_10  and  C_11 
REMARK    7  A    between atoms: C_11  and  C_12 
REMARK    8  A    between atoms: C_14  and  C_15 
ROOT
HETATM    1  C   UNL     1      40.995 -13.496   2.222  1.00  0.00     0.136 C 
ENDROOT
BRANCH   1   2
HETATM    2  C   UNL     1      41.943 -12.277   2.356  1.00  0.00     0.153 C 
BRANCH   2   3
HETATM    3  N   UNL     1      42.230 -11.913   3.731  1.00  0.00    -0.353 N 
HETATM    4  C   UNL     1      43.489 -11.548   4.154  1.00  0.00     0.275 C 
HETATM    5  O   UNL     1      44.458 -11.558   3.398  1.00  0.00    -0.265 OA
HETATM    6  H   UNL     1      41.454 -11.766   4.369  1.00  0.00     0.162 HD
BRANCH   4   7
HETATM    7  C   UNL     1      43.558 -11.146   5.542  1.00  0.00     0.143 A 
HETATM    8  O   UNL     1      44.778 -11.050   6.162  1.00  0.00    -0.310 OA
HETATM    9  C   UNL     1      44.551 -10.639   7.441  1.00  0.00     0.053 A 
HETATM   10  C   UNL     1      43.200 -10.481   7.657  1.00  0.00     0.036 A 
HETATM   11  C   UNL     1      42.561 -10.807   6.438  1.00  0.00     0.045 A 
BRANCH   9  12
HETATM   12  C   UNL     1      45.748 -10.449   8.297  1.00  0.00     0.060 C 
HETATM   13  C   UNL     1      45.386  -9.819   9.631  1.00  0.00     0.012 C 
ENDBRANCH   9  12
ENDBRANCH   4   7
ENDBRANCH   2   3
ENDBRANCH   1   2
BRANCH   1  14
HETATM   14  N   UNL     1      41.599 -14.809   2.430  1.00  0.00    -0.345 N 
HETATM   15  C   UNL     1      41.944 -15.363   3.640  1.00  0.00     0.276 C 
HETATM   16  O   UNL     1      41.641 -14.868   4.721  1.00  0.00    -0.265 OA
HETATM   17  H   UNL     1      41.981 -15.272   1.615  1.00  0.00     0.163 HD
BRANCH  15  18
HETATM   18  C   UNL     1      42.702 -16.593   3.518  1.00  0.00     0.143 A 
HETATM   19  O   UNL     1      42.974 -17.333   4.640  1.00  0.00    -0.310 OA
HETATM   20  C   UNL     1      43.680 -18.428   4.242  1.00  0.00     0.053 A 
HETATM   21  C   UNL     1      43.866 -18.403   2.877  1.00  0.00     0.036 A 
HETATM   22  C   UNL     1      43.238 -17.223   2.412  1.00  0.00     0.045 A 
BRANCH  20  23
HETATM   23  C   UNL     1      44.082 -19.381   5.307  1.00  0.00     0.060 C 
HETATM   24  C   UNL     1      44.070 -20.815   4.804  1.00  0.00     0.012 C 
ENDBRANCH  20  23
ENDBRANCH  15  18
ENDBRANCH   1  14
BRANCH   1  25
HETATM   25  C   UNL     1      40.204 -13.462   0.924  1.00  0.00    -0.031 A 
HETATM   26  C   UNL     1      39.447 -12.338   0.551  1.00  0.00     0.049 A 
HETATM   27  C   UNL     1      38.734 -12.331  -0.649  1.00  0.00     0.102 A 
HETATM   28  C   UNL     1      38.737 -13.457  -1.475  1.00  0.00     0.102 A 
HETATM   29  O   UNL     1      38.045 -11.182  -0.948  1.00  0.00    -0.346 OA
HETATM   30  O   UNL     1      38.031 -13.532  -2.648  1.00  0.00    -0.346 OA
HETATM   31  C   UNL     1      39.489 -14.574  -1.124  1.00  0.00     0.040 A 
HETATM   32  C   UNL     1      37.050 -12.493  -2.733  1.00  0.00     0.202 C 
HETATM   33  C   UNL     1      37.649 -11.157  -2.323  1.00  0.00     0.202 C 
HETATM   34  C   UNL     1      40.218 -14.577   0.068  1.00  0.00     0.012 A 
ENDBRANCH   1  25
TORSDOF 8
ENDMDL
MODEL 6
REMARK VINA RESULT:      -8.7      1.485      8.719
REMARK  8 active torsions:
REMARK  status: ('A' for Active; 'I' for Inactive)
REMARK    1  A    between atoms: C_2  and  C_3 
REMARK    2  A    between atoms: C_5  and  C_6 
REMARK       I    between atoms: C_6  and  N_7 
REMARK    3  A    between atoms: N_7  and  C_8 
REMARK    4  A    between atoms: C_8  and  C_9 
REMARK    5  A    between atoms: C_9  and  N_10 
REMARK    6  A    between atoms: C_9  and  C_20 
REMARK       I    between atoms: N_10  and  C_11 
REMARK    7  A    between atoms: C_11  and  C_12 
REMARK    8  A    between atoms: C_14  and  C_15 
ROOT
HETATM    1  C   UNL     1      42.259 -13.694   4.627  1.00  0.00     0.136 C 
ENDROOT
BRANCH   1   2
HETATM    2  C   UNL     1      40.800 -13.613   4.109  1.00  0.00     0.153 C 
BRANCH   2   3
HETATM    3  N   UNL     1      40.703 -13.418   2.675  1.00  0.00    -0.353 N 
HETATM    4  C   UNL     1      40.445 -14.452   1.802  1.00  0.00     0.275 C 
HETATM    5  O   UNL     1      40.333 -15.615   2.184  1.00  0.00    -0.265 OA
HETATM    6  H   UNL     1      40.662 -12.470   2.313  1.00  0.00     0.162 HD
BRANCH   4   7
HETATM    7  C   UNL     1      40.309 -14.045   0.420  1.00  0.00     0.143 A 
HETATM    8  O   UNL     1      39.609 -14.836  -0.455  1.00  0.00    -0.310 OA
HETATM    9  C   UNL     1      39.623 -14.211  -1.666  1.00  0.00     0.053 A 
HETATM   10  C   UNL     1      40.334 -13.033  -1.585  1.00  0.00     0.036 A 
HETATM   11  C   UNL     1      40.775 -12.927  -0.245  1.00  0.00     0.045 A 
BRANCH   9  12
HETATM   12  C   UNL     1      38.901 -14.889  -2.770  1.00  0.00     0.060 C 
HETATM   13  C   UNL     1      37.676 -14.102  -3.203  1.00  0.00     0.012 C 
ENDBRANCH   9  12
ENDBRANCH   4   7
ENDBRANCH   2   3
ENDBRANCH   1   2
BRANCH   1  14
HETATM   14  N   UNL     1      42.680 -14.983   5.168  1.00  0.00    -0.345 N 
HETATM   15  C   UNL     1      43.178 -16.044   4.449  1.00  0.00     0.276 C 
HETATM   16  O   UNL     1      43.470 -15.975   3.259  1.00  0.00    -0.265 OA
HETATM   17  H   UNL     1      42.403 -15.194   6.119  1.00  0.00     0.163 HD
BRANCH  15  18
HETATM   18  C   UNL     1      43.326 -17.255   5.232  1.00  0.00     0.143 A 
HETATM   19  O   UNL     1      43.664 -18.427   4.605  1.00  0.00    -0.310 OA
HETATM   20  C   UNL     1      43.745 -19.391   5.565  1.00  0.00     0.053 A 
HETATM   21  C   UNL     1      43.464 -18.854   6.802  1.00  0.00     0.036 A 
HETATM   22  C   UNL     1      43.193 -17.481   6.588  1.00  0.00     0.045 A 
BRANCH  20  23
HETATM   23  C   UNL     1      44.106 -20.755   5.105  1.00  0.00     0.060 C 
HETATM   24  C   UNL     1      43.865 -20.922   3.614  1.00  0.00     0.012 C 
ENDBRANCH  20  23
ENDBRANCH  15  18
ENDBRANCH   1  14
BRANCH   1  25
HETATM   25  C   UNL     1      42.583 -12.567   5.595  1.00  0.00    -0.031 A 
HETATM   26  C   UNL     1      43.772 -12.558   6.344  1.00  0.00     0.049 A 
HETATM   27  C   UNL     1      44.047 -11.509   7.223  1.00  0.00     0.102 A 
HETATM   28  C   UNL     1      43.125 -10.474   7.393  1.00  0.00     0.102 A 
HETATM   29  O   UNL     1      45.242 -11.567   7.895  1.00  0.00    -0.346 OA
HETATM   30  O   UNL     1      43.314  -9.432   8.264  1.00  0.00    -0.346 OA
HETATM   31  C   UNL     1      41.948 -10.464   6.650  1.00  0.00     0.040 A 
HETATM   32  C   UNL     1      44.361  -9.718   9.197  1.00  0.00     0.202 C 
HETATM   33  C   UNL     1      45.568 -10.304   8.484  1.00  0.00     0.202 C 
HETATM   34  C   UNL     1      41.678 -11.503   5.757  1.00  0.00     0.012 A 
ENDBRANCH   1  25
TORSDOF 8
ENDMDL
MODEL 7
REMARK VINA RESULT:      -8.6      3.421      6.795
REMARK  8 active torsions:
REMARK  status: ('A' for Active; 'I' for Inactive)
REMARK    1  A    between atoms: C_2  and  C_3 
REMARK    2  A    between atoms: C_5  and  C_6 
REMARK       I    between atoms: C_6  and  N_7 
REMARK    3  A    between atoms: N_7  and  C_8 
REMARK    4  A    between atoms: C_8  and  C_9 
REMARK    5  A    between atoms: C_9  and  N_10 
REMARK    6  A    between atoms: C_9  and  C_20 
REMARK       I    between atoms: N_10  and  C_11 
REMARK    7  A    between atoms: C_11  and  C_12 
REMARK    8  A    between atoms: C_14  and  C_15 
ROOT
HETATM    1  C   UNL     1      41.957 -14.717   6.916  1.00  0.00     0.136 C 
ENDROOT
BRANCH   1   2
HETATM    2  C   UNL     1      40.581 -14.321   6.322  1.00  0.00     0.153 C 
BRANCH   2   3
HETATM    3  N   UNL     1      40.276 -12.909   6.456  1.00  0.00    -0.353 N 
HETATM    4  C   UNL     1      39.674 -12.183   5.453  1.00  0.00     0.275 C 
HETATM    5  O   UNL     1      39.406 -12.678   4.361  1.00  0.00    -0.265 OA
HETATM    6  H   UNL     1      40.358 -12.477   7.372  1.00  0.00     0.162 HD
BRANCH   4   7
HETATM    7  C   UNL     1      39.381 -10.810   5.805  1.00  0.00     0.143 A 
HETATM    8  O   UNL     1      39.634 -10.365   7.078  1.00  0.00    -0.310 OA
HETATM    9  C   UNL     1      39.287  -9.049   7.124  1.00  0.00     0.053 A 
HETATM   10  C   UNL     1      38.802  -8.642   5.900  1.00  0.00     0.036 A 
HETATM   11  C   UNL     1      38.862  -9.773   5.053  1.00  0.00     0.045 A 
BRANCH   9  12
HETATM   12  C   UNL     1      39.497  -8.353   8.417  1.00  0.00     0.060 C 
HETATM   13  C   UNL     1      39.504  -9.328   9.582  1.00  0.00     0.012 C 
ENDBRANCH   9  12
ENDBRANCH   4   7
ENDBRANCH   2   3
ENDBRANCH   1   2
BRANCH   1  14
HETATM   14  N   UNL     1      42.856 -13.616   7.250  1.00  0.00    -0.345 N 
HETATM   15  C   UNL     1      43.472 -12.770   6.359  1.00  0.00     0.276 C 
HETATM   16  O   UNL     1      43.216 -12.750   5.159  1.00  0.00    -0.265 OA
HETATM   17  H   UNL     1      43.217 -13.589   8.196  1.00  0.00     0.163 HD
BRANCH  15  18
HETATM   18  C   UNL     1      44.457 -11.901   6.973  1.00  0.00     0.143 A 
HETATM   19  O   UNL     1      44.235 -11.414   8.236  1.00  0.00    -0.310 OA
HETATM   20  C   UNL     1      45.309 -10.645   8.568  1.00  0.00     0.053 A 
HETATM   21  C   UNL     1      46.221 -10.630   7.535  1.00  0.00     0.036 A 
HETATM   22  C   UNL     1      45.673 -11.436   6.509  1.00  0.00     0.045 A 
BRANCH  20  23
HETATM   23  C   UNL     1      45.282 -10.014   9.911  1.00  0.00     0.060 C 
HETATM   24  C   UNL     1      44.046 -10.425  10.695  1.00  0.00     0.012 C 
ENDBRANCH  20  23
ENDBRANCH  15  18
ENDBRANCH   1  14
BRANCH   1  25
HETATM   25  C   UNL     1      42.667 -15.758   6.064  1.00  0.00    -0.031 A 
HETATM   26  C   UNL     1      42.134 -16.194   4.839  1.00  0.00     0.049 A 
HETATM   27  C   UNL     1      42.808 -17.147   4.074  1.00  0.00     0.102 A 
HETATM   28  C   UNL     1      44.002 -17.705   4.537  1.00  0.00     0.102 A 
HETATM   29  O   UNL     1      42.231 -17.496   2.878  1.00  0.00    -0.346 OA
HETATM   30  O   UNL     1      44.696 -18.671   3.855  1.00  0.00    -0.346 OA
HETATM   31  C   UNL     1      44.546 -17.276   5.744  1.00  0.00     0.040 A 
HETATM   32  C   UNL     1      43.892 -19.266   2.832  1.00  0.00     0.202 C 
HETATM   33  C   UNL     1      43.155 -18.198   2.040  1.00  0.00     0.202 C 
HETATM   34  C   UNL     1      43.884 -16.309   6.503  1.00  0.00     0.012 A 
ENDBRANCH   1  25
TORSDOF 8
ENDMDL
MODEL 8
REMARK VINA RESULT:      -8.6      2.362      6.995
REMARK  8 active torsions:
REMARK  status: ('A' for Active; 'I' for Inactive)
REMARK    1  A    between atoms: C_2  and  C_3 
REMARK    2  A    between atoms: C_5  and  C_6 
REMARK       I    between atoms: C_6  and  N_7 
REMARK    3  A    between atoms: N_7  and  C_8 
REMARK    4  A    between atoms: C_8  and  C_9 
REMARK    5  A    between atoms: C_9  and  N_10 
REMARK    6  A    between atoms: C_9  and  C_20 
REMARK       I    between atoms: N_10  and  C_11 
REMARK    7  A    between atoms: C_11  and  C_12 
REMARK    8  A    between atoms: C_14  and  C_15 
ROOT
HETATM    1  C   UNL     1      41.183 -13.854   4.186  1.00  0.00     0.136 C 
ENDROOT
BRANCH   1   2
HETATM    2  C   UNL     1      42.621 -14.352   4.484  1.00  0.00     0.153 C 
BRANCH   2   3
HETATM    3  N   UNL     1      42.804 -15.772   4.246  1.00  0.00    -0.353 N 
HETATM    4  C   UNL     1      43.235 -16.272   3.038  1.00  0.00     0.275 C 
HETATM    5  O   UNL     1      43.441 -15.545   2.068  1.00  0.00    -0.265 OA
HETATM    6  H   UNL     1      42.770 -16.407   5.038  1.00  0.00     0.162 HD
BRANCH   4   7
HETATM    7  C   UNL     1      43.430 -17.706   3.022  1.00  0.00     0.143 A 
HETATM    8  O   UNL     1      43.822 -18.351   4.166  1.00  0.00    -0.310 OA
HETATM    9  C   UNL     1      43.909 -19.679   3.873  1.00  0.00     0.053 A 
HETATM   10  C   UNL     1      43.590 -19.896   2.550  1.00  0.00     0.036 A 
HETATM   11  C   UNL     1      43.283 -18.628   2.003  1.00  0.00     0.045 A 
BRANCH   9  12
HETATM   12  C   UNL     1      44.305 -20.578   4.985  1.00  0.00     0.060 C 
HETATM   13  C   UNL     1      43.575 -20.232   6.271  1.00  0.00     0.012 C 
ENDBRANCH   9  12
ENDBRANCH   4   7
ENDBRANCH   2   3
ENDBRANCH   1   2
BRANCH   1  14
HETATM   14  N   UNL     1      40.870 -13.588   2.785  1.00  0.00    -0.345 N 
HETATM   15  C   UNL     1      40.191 -14.424   1.931  1.00  0.00     0.276 C 
HETATM   16  O   UNL     1      39.629 -15.451   2.296  1.00  0.00    -0.265 OA
HETATM   17  H   UNL     1      41.358 -12.818   2.344  1.00  0.00     0.163 HD
BRANCH  15  18
HETATM   18  C   UNL     1      40.203 -13.975   0.552  1.00  0.00     0.143 A 
HETATM   19  O   UNL     1      39.581 -14.730  -0.409  1.00  0.00    -0.310 OA
HETATM   20  C   UNL     1      39.733 -14.080  -1.596  1.00  0.00     0.053 A 
HETATM   21  C   UNL     1      40.445 -12.914  -1.412  1.00  0.00     0.036 A 
HETATM   22  C   UNL     1      40.748 -12.848  -0.032  1.00  0.00     0.045 A 
BRANCH  20  23
HETATM   23  C   UNL     1      39.128 -14.725  -2.788  1.00  0.00     0.060 C 
HETATM   24  C   UNL     1      37.808 -14.073  -3.164  1.00  0.00     0.012 C 
ENDBRANCH  20  23
ENDBRANCH  15  18
ENDBRANCH   1  14
BRANCH   1  25
HETATM   25  C   UNL     1      40.798 -12.672   5.062  1.00  0.00    -0.031 A 
HETATM   26  C   UNL     1      41.766 -11.798   5.587  1.00  0.00     0.049 A 
HETATM   27  C   UNL     1      41.385 -10.718   6.385  1.00  0.00     0.102 A 
HETATM   28  C   UNL     1      40.040 -10.516   6.700  1.00  0.00     0.102 A 
HETATM   29  O   UNL     1      42.392  -9.899   6.833  1.00  0.00    -0.346 OA
HETATM   30  O   UNL     1      39.599  -9.498   7.507  1.00  0.00    -0.346 OA
HETATM   31  C   UNL     1      39.069 -11.368   6.180  1.00  0.00     0.040 A 
HETATM   32  C   UNL     1      40.679  -8.913   8.242  1.00  0.00     0.202 C 
HETATM   33  C   UNL     1      41.872  -8.663   7.334  1.00  0.00     0.202 C 
HETATM   34  C   UNL     1      39.446 -12.439   5.367  1.00  0.00     0.012 A 
ENDBRANCH   1  25
TORSDOF 8
ENDMDL
MODEL 9
REMARK VINA RESULT:      -8.5      3.086      6.582
REMARK  8 active torsions:
REMARK  status: ('A' for Active; 'I' for Inactive)
REMARK    1  A    between atoms: C_2  and  C_3 
REMARK    2  A    between atoms: C_5  and  C_6 
REMARK       I    between atoms: C_6  and  N_7 
REMARK    3  A    between atoms: N_7  and  C_8 
REMARK    4  A    between atoms: C_8  and  C_9 
REMARK    5  A    between atoms: C_9  and  N_10 
REMARK    6  A    between atoms: C_9  and  C_20 
REMARK       I    between atoms: N_10  and  C_11 
REMARK    7  A    between atoms: C_11  and  C_12 
REMARK    8  A    between atoms: C_14  and  C_15 
ROOT
HETATM    1  C   UNL     1      42.755 -13.427   6.408  1.00  0.00     0.136 C 
ENDROOT
BRANCH   1   2
HETATM    2  C   UNL     1      43.987 -12.679   6.979  1.00  0.00     0.153 C 
BRANCH   2   3
HETATM    3  N   UNL     1      43.662 -11.766   8.059  1.00  0.00    -0.353 N 
HETATM    4  C   UNL     1      44.600 -10.944   8.641  1.00  0.00     0.275 C 
HETATM    5  O   UNL     1      45.785 -10.972   8.315  1.00  0.00    -0.265 OA
HETATM    6  H   UNL     1      42.685 -11.607   8.286  1.00  0.00     0.162 HD
BRANCH   4   7
HETATM    7  C   UNL     1      44.067 -10.050   9.647  1.00  0.00     0.143 A 
HETATM    8  O   UNL     1      43.520 -10.566  10.794  1.00  0.00    -0.310 OA
HETATM    9  C   UNL     1      43.120  -9.514  11.561  1.00  0.00     0.053 A 
HETATM   10  C   UNL     1      43.392  -8.326  10.919  1.00  0.00     0.036 A 
HETATM   11  C   UNL     1      44.000  -8.670   9.688  1.00  0.00     0.045 A 
BRANCH   9  12
HETATM   12  C   UNL     1      42.509  -9.845  12.872  1.00  0.00     0.060 C 
HETATM   13  C   UNL     1      41.005 -10.021  12.759  1.00  0.00     0.012 C 
ENDBRANCH   9  12
ENDBRANCH   4   7
ENDBRANCH   2   3
ENDBRANCH   1   2
BRANCH   1  14
HETATM   14  N   UNL     1      43.001 -14.767   5.881  1.00  0.00    -0.345 N 
HETATM   15  C   UNL     1      42.398 -15.929   6.300  1.00  0.00     0.276 C 
HETATM   16  O   UNL     1      41.455 -15.956   7.083  1.00  0.00    -0.265 OA
HETATM   17  H   UNL     1      43.821 -14.887   5.298  1.00  0.00     0.163 HD
BRANCH  15  18
HETATM   18  C   UNL     1      42.986 -17.124   5.727  1.00  0.00     0.143 A 
HETATM   19  O   UNL     1      43.163 -17.205   4.369  1.00  0.00    -0.310 OA
HETATM   20  C   UNL     1      43.736 -18.413   4.107  1.00  0.00     0.053 A 
HETATM   21  C   UNL     1      43.931 -19.111   5.279  1.00  0.00     0.036 A 
HETATM   22  C   UNL     1      43.448 -18.283   6.320  1.00  0.00     0.045 A 
BRANCH  20  23
HETATM   23  C   UNL     1      44.024 -18.715   2.682  1.00  0.00     0.060 C 
HETATM   24  C   UNL     1      43.422 -20.046   2.263  1.00  0.00     0.012 C 
ENDBRANCH  20  23
ENDBRANCH  15  18
ENDBRANCH   1  14
BRANCH   1  25
HETATM   25  C   UNL     1      41.992 -12.580   5.402  1.00  0.00    -0.031 A 
HETATM   26  C   UNL     1      42.605 -12.087   4.237  1.00  0.00     0.049 A 
HETATM   27  C   UNL     1      41.880 -11.316   3.327  1.00  0.00     0.102 A 
HETATM   28  C   UNL     1      40.546 -10.994   3.585  1.00  0.00     0.102 A 
HETATM   29  O   UNL     1      42.549 -10.899   2.204  1.00  0.00    -0.346 OA
HETATM   30  O   UNL     1      39.786 -10.211   2.754  1.00  0.00    -0.346 OA
HETATM   31  C   UNL     1      39.922 -11.483   4.729  1.00  0.00     0.040 A 
HETATM   32  C   UNL     1      40.602  -9.501   1.817  1.00  0.00     0.202 C 
HETATM   33  C   UNL     1      41.641 -10.426   1.204  1.00  0.00     0.202 C 
HETATM   34  C   UNL     1      40.640 -12.270   5.632  1.00  0.00     0.012 A 
ENDBRANCH   1  25
TORSDOF 8
ENDMDL
MODEL 10
REMARK VINA RESULT:      -8.5      2.007      8.054
REMARK  8 active torsions:
REMARK  status: ('A' for Active; 'I' for Inactive)
REMARK    1  A    between atoms: C_2  and  C_3 
REMARK    2  A    between atoms: C_5  and  C_6 
REMARK       I    between atoms: C_6  and  N_7 
REMARK    3  A    between atoms: N_7  and  C_8 
REMARK    4  A    between atoms: C_8  and  C_9 
REMARK    5  A    between atoms: C_9  and  N_10 
REMARK    6  A    between atoms: C_9  and  C_20 
REMARK       I    between atoms: N_10  and  C_11 
REMARK    7  A    between atoms: C_11  and  C_12 
REMARK    8  A    between atoms: C_14  and  C_15 
ROOT
HETATM    1  C   UNL     1      43.608 -11.542   4.384  1.00  0.00     0.136 C 
ENDROOT
BRANCH   1   2
HETATM    2  C   UNL     1      42.392 -10.722   3.881  1.00  0.00     0.153 C 
BRANCH   2   3
HETATM    3  N   UNL     1      41.598 -11.415   2.883  1.00  0.00    -0.353 N 
HETATM    4  C   UNL     1      41.561 -11.025   1.564  1.00  0.00     0.275 C 
HETATM    5  O   UNL     1      42.162 -10.032   1.161  1.00  0.00    -0.265 OA
HETATM    6  H   UNL     1      41.183 -12.309   3.126  1.00  0.00     0.162 HD
BRANCH   4   7
HETATM    7  C   UNL     1      40.774 -11.888   0.709  1.00  0.00     0.143 A 
HETATM    8  O   UNL     1      40.760 -13.240   0.936  1.00  0.00    -0.310 OA
HETATM    9  C   UNL     1      39.933 -13.798   0.008  1.00  0.00     0.053 A 
HETATM   10  C   UNL     1      39.423 -12.824  -0.822  1.00  0.00     0.036 A 
HETATM   11  C   UNL     1      39.964 -11.596  -0.372  1.00  0.00     0.045 A 
BRANCH   9  12
HETATM   12  C   UNL     1      39.753 -15.269   0.080  1.00  0.00     0.060 C 
HETATM   13  C   UNL     1      39.969 -15.790   1.491  1.00  0.00     0.012 C 
ENDBRANCH   9  12
ENDBRANCH   4   7
ENDBRANCH   2   3
ENDBRANCH   1   2
BRANCH   1  14
HETATM   14  N   UNL     1      43.512 -12.992   4.241  1.00  0.00    -0.345 N 
HETATM   15  C   UNL     1      42.613 -13.814   4.878  1.00  0.00     0.276 C 
HETATM   16  O   UNL     1      41.670 -13.398   5.543  1.00  0.00    -0.265 OA
HETATM   17  H   UNL     1      44.290 -13.461   3.794  1.00  0.00     0.163 HD
BRANCH  15  18
HETATM   18  C   UNL     1      42.885 -15.225   4.688  1.00  0.00     0.143 A 
HETATM   19  O   UNL     1      42.881 -15.750   3.421  1.00  0.00    -0.310 OA
HETATM   20  C   UNL     1      43.174 -17.076   3.530  1.00  0.00     0.053 A 
HETATM   21  C   UNL     1      43.368 -17.413   4.852  1.00  0.00     0.036 A 
HETATM   22  C   UNL     1      43.182 -16.223   5.596  1.00  0.00     0.045 A 
BRANCH  20  23
HETATM   23  C   UNL     1      43.226 -17.850   2.264  1.00  0.00     0.060 C 
HETATM   24  C   UNL     1      43.572 -19.308   2.517  1.00  0.00     0.012 C 
ENDBRANCH  20  23
ENDBRANCH  15  18
ENDBRANCH   1  14
BRANCH   1  25
HETATM   25  C   UNL     1      44.003 -11.161   5.803  1.00  0.00    -0.031 A 
HETATM   26  C   UNL     1      43.096 -10.538   6.677  1.00  0.00     0.049 A 
HETATM   27  C   UNL     1      43.482 -10.203   7.976  1.00  0.00     0.102 A 
HETATM   28  C   UNL     1      44.787 -10.452   8.408  1.00  0.00     0.102 A 
HETATM   29  O   UNL     1      42.527  -9.621   8.771  1.00  0.00    -0.346 OA
HETATM   30  O   UNL     1      45.244 -10.116   9.657  1.00  0.00    -0.346 OA
HETATM   31  C   UNL     1      45.693 -11.078   7.557  1.00  0.00     0.040 A 
HETATM   32  C   UNL     1      44.360  -9.195  10.305  1.00  0.00     0.202 C 
HETATM   33  C   UNL     1      42.915  -9.641  10.149  1.00  0.00     0.202 C 
HETATM   34  C   UNL     1      45.304 -11.430   6.263  1.00  0.00     0.012 A 
ENDBRANCH   1  25
TORSDOF 8
ENDMDL
