MODEL 1
REMARK VINA RESULT:      -8.0      0.000      0.000
REMARK  6 active torsions:
REMARK  status: ('A' for Active; 'I' for Inactive)
REMARK    1  A    between atoms: C_2  and  N_3 
REMARK       I    between atoms: N_3  and  C_4 
REMARK    2  A    between atoms: C_4  and  C_5 
REMARK    3  A    between atoms: C_6  and  N_7 
REMARK       I    between atoms: N_7  and  C_8 
REMARK    4  A    between atoms: C_8  and  C_9 
REMARK    5  A    between atoms: C_11  and  O_12 
REMARK    6  A    between atoms: O_12  and  C_13 
ROOT
HETATM    1  N   UNL     1      43.346 -16.414   2.963  1.00  0.00    -0.322 N 
HETATM    2  C   UNL     1      42.266 -15.639   3.351  1.00  0.00     0.256 C 
HETATM    3  O   UNL     1      41.244 -16.051   3.889  1.00  0.00    -0.267 OA
HETATM    4  H   UNL     1      44.054 -15.979   2.381  1.00  0.00     0.169 HD
ENDROOT
BRANCH   1   5
HETATM    5  C   UNL     1      43.570 -17.787   3.259  1.00  0.00     0.050 A 
HETATM    6  C   UNL     1      43.858 -18.181   4.584  1.00  0.00     0.058 A 
HETATM    7  C   UNL     1      43.990 -19.538   4.919  1.00  0.00     0.019 A 
HETATM    8  C   UNL     1      43.873 -20.517   3.938  1.00  0.00     0.001 A 
HETATM    9  C   UNL     1      43.614 -20.143   2.624  1.00  0.00     0.002 A 
HETATM   10  C   UNL     1      43.459 -18.791   2.289  1.00  0.00     0.030 A 
BRANCH   6  11
HETATM   11  C   UNL     1      44.041 -17.211   5.694  1.00  0.00     0.253 C 
HETATM   12  N   UNL     1      42.976 -17.102   6.569  1.00  0.00    -0.357 N 
HETATM   13  H   UNL     1      42.084 -17.474   6.255  1.00  0.00     0.162 HD
HETATM   14  O   UNL     1      45.064 -16.544   5.773  1.00  0.00    -0.268 OA
BRANCH  12  15
HETATM   15  C   UNL     1      42.942 -16.046   7.564  1.00  0.00     0.118 C 
HETATM   16  C   UNL     1      42.352 -14.758   7.018  1.00  0.00     0.026 C 
ENDBRANCH  12  15
ENDBRANCH   6  11
ENDBRANCH   1   5
BRANCH   2  17
HETATM   17  C   UNL     1      42.352 -14.180   3.045  1.00  0.00     0.037 A 
HETATM   18  C   UNL     1      43.215 -13.404   3.822  1.00  0.00     0.075 A 
HETATM   19  C   UNL     1      43.339 -12.063   3.519  1.00  0.00     0.165 A 
HETATM   20  N   UNL     1      42.668 -11.452   2.522  1.00  0.00    -0.237 NA
HETATM   21  C   UNL     1      41.850 -12.226   1.777  1.00  0.00     0.120 A 
HETATM   22  C   UNL     1      41.662 -13.582   1.989  1.00  0.00     0.036 A 
BRANCH  19  23
HETATM   23  O   UNL     1      44.223 -11.335   4.291  1.00  0.00    -0.329 OA
BRANCH  23  24
HETATM   24  C   UNL     1      44.415 -11.787   5.648  1.00  0.00     0.130 C 
HETATM   25  C   UNL     1      45.721 -11.342   6.357  1.00  0.00     0.032 C 
HETATM   26  C   UNL     1      44.885 -11.129   7.632  1.00  0.00     0.005 C 
HETATM   27  C   UNL     1      43.660 -10.954   6.717  1.00  0.00     0.032 C 
ENDBRANCH  23  24
ENDBRANCH  19  23
ENDBRANCH   2  17
TORSDOF 6
ENDMDL
MODEL 2
REMARK VINA RESULT:      -7.8      2.248      4.529
REMARK  6 active torsions:
REMARK  status: ('A' for Active; 'I' for Inactive)
REMARK    1  A    between atoms: C_2  and  N_3 
REMARK       I    between atoms: N_3  and  C_4 
REMARK    2  A    between atoms: C_4  and  C_5 
REMARK    3  A    between atoms: C_6  and  N_7 
REMARK       I    between atoms: N_7  and  C_8 
REMARK    4  A    between atoms: C_8  and  C_9 
REMARK    5  A    between atoms: C_11  and  O_12 
REMARK    6  A    between atoms: O_12  and  C_13 
ROOT
HETATM    1  N   UNL     1      43.171 -16.811   2.635  1.00  0.00    -0.322 N 
HETATM    2  C   UNL     1      41.994 -16.116   2.854  1.00  0.00     0.256 C 
HETATM    3  O   UNL     1      40.961 -16.585   3.319  1.00  0.00    -0.267 OA
HETATM    4  H   UNL     1      43.896 -16.352   2.094  1.00  0.00     0.169 HD
ENDROOT
BRANCH   1   5
HETATM    5  C   UNL     1      43.482 -18.133   3.057  1.00  0.00     0.050 A 
HETATM    6  C   UNL     1      43.705 -18.399   4.425  1.00  0.00     0.058 A 
HETATM    7  C   UNL     1      43.919 -19.709   4.880  1.00  0.00     0.019 A 
HETATM    8  C   UNL     1      43.949 -20.768   3.977  1.00  0.00     0.001 A 
HETATM    9  C   UNL     1      43.755 -20.519   2.622  1.00  0.00     0.002 A 
HETATM   10  C   UNL     1      43.519 -19.215   2.168  1.00  0.00     0.030 A 
BRANCH   6  11
HETATM   11  C   UNL     1      43.732 -17.335   5.461  1.00  0.00     0.253 C 
HETATM   12  N   UNL     1      42.584 -17.217   6.223  1.00  0.00    -0.357 N 
HETATM   13  H   UNL     1      41.746 -17.664   5.862  1.00  0.00     0.162 HD
HETATM   14  O   UNL     1      44.708 -16.604   5.576  1.00  0.00    -0.268 OA
BRANCH  12  15
HETATM   15  C   UNL     1      42.402 -16.090   7.118  1.00  0.00     0.118 C 
HETATM   16  C   UNL     1      41.463 -15.044   6.543  1.00  0.00     0.026 C 
ENDBRANCH  12  15
ENDBRANCH   6  11
ENDBRANCH   1   5
BRANCH   2  17
HETATM   17  C   UNL     1      41.985 -14.680   2.446  1.00  0.00     0.037 A 
HETATM   18  C   UNL     1      41.385 -14.354   1.228  1.00  0.00     0.075 A 
HETATM   19  C   UNL     1      41.328 -13.024   0.862  1.00  0.00     0.165 A 
HETATM   20  N   UNL     1      41.828 -12.018   1.607  1.00  0.00    -0.237 NA
HETATM   21  C   UNL     1      42.391 -12.356   2.786  1.00  0.00     0.120 A 
HETATM   22  C   UNL     1      42.490 -13.657   3.251  1.00  0.00     0.036 A 
BRANCH  19  23
HETATM   23  O   UNL     1      40.701 -12.740  -0.335  1.00  0.00    -0.329 OA
BRANCH  23  24
HETATM   24  C   UNL     1      40.196 -13.868  -1.080  1.00  0.00     0.130 C 
HETATM   25  C   UNL     1      38.698 -13.828  -1.483  1.00  0.00     0.032 C 
HETATM   26  C   UNL     1      39.111 -14.420  -2.843  1.00  0.00     0.005 C 
HETATM   27  C   UNL     1      40.511 -13.828  -2.599  1.00  0.00     0.032 C 
ENDBRANCH  23  24
ENDBRANCH  19  23
ENDBRANCH   2  17
TORSDOF 6
ENDMDL
MODEL 3
REMARK VINA RESULT:      -7.6      2.260      4.050
REMARK  6 active torsions:
REMARK  status: ('A' for Active; 'I' for Inactive)
REMARK    1  A    between atoms: C_2  and  N_3 
REMARK       I    between atoms: N_3  and  C_4 
REMARK    2  A    between atoms: C_4  and  C_5 
REMARK    3  A    between atoms: C_6  and  N_7 
REMARK       I    between atoms: N_7  and  C_8 
REMARK    4  A    between atoms: C_8  and  C_9 
REMARK    5  A    between atoms: C_11  and  O_12 
REMARK    6  A    between atoms: O_12  and  C_13 
ROOT
HETATM    1  N   UNL     1      43.142 -15.206   4.419  1.00  0.00    -0.322 N 
HETATM    2  C   UNL     1      42.816 -14.839   5.714  1.00  0.00     0.256 C 
HETATM    3  O   UNL     1      42.426 -15.595   6.596  1.00  0.00    -0.267 OA
HETATM    4  H   UNL     1      43.292 -14.465   3.742  1.00  0.00     0.169 HD
ENDROOT
BRANCH   1   5
HETATM    5  C   UNL     1      43.262 -16.526   3.903  1.00  0.00     0.050 A 
HETATM    6  C   UNL     1      42.484 -16.917   2.792  1.00  0.00     0.058 A 
HETATM    7  C   UNL     1      42.652 -18.181   2.204  1.00  0.00     0.019 A 
HETATM    8  C   UNL     1      43.569 -19.084   2.734  1.00  0.00     0.001 A 
HETATM    9  C   UNL     1      44.325 -18.721   3.843  1.00  0.00     0.002 A 
HETATM   10  C   UNL     1      44.176 -17.452   4.418  1.00  0.00     0.030 A 
BRANCH   6  11
HETATM   11  C   UNL     1      41.452 -16.042   2.179  1.00  0.00     0.253 C 
HETATM   12  N   UNL     1      41.862 -15.327   1.068  1.00  0.00    -0.357 N 
HETATM   13  H   UNL     1      42.864 -15.248   0.918  1.00  0.00     0.162 HD
HETATM   14  O   UNL     1      40.336 -15.956   2.675  1.00  0.00    -0.268 OA
BRANCH  12  15
HETATM   15  C   UNL     1      41.023 -14.285   0.509  1.00  0.00     0.118 C 
HETATM   16  C   UNL     1      41.311 -12.924   1.116  1.00  0.00     0.026 C 
ENDBRANCH  12  15
ENDBRANCH   6  11
ENDBRANCH   1   5
BRANCH   2  17
HETATM   17  C   UNL     1      42.917 -13.385   6.037  1.00  0.00     0.037 A 
HETATM   18  C   UNL     1      43.703 -13.015   7.130  1.00  0.00     0.075 A 
HETATM   19  C   UNL     1      43.843 -11.671   7.411  1.00  0.00     0.165 A 
HETATM   20  N   UNL     1      43.255 -10.689   6.697  1.00  0.00    -0.237 NA
HETATM   21  C   UNL     1      42.511 -11.070   5.638  1.00  0.00     0.120 A 
HETATM   22  C   UNL     1      42.315 -12.390   5.264  1.00  0.00     0.036 A 
BRANCH  19  23
HETATM   23  O   UNL     1      44.652 -11.345   8.482  1.00  0.00    -0.329 OA
BRANCH  23  24
HETATM   24  C   UNL     1      44.321 -10.134   9.192  1.00  0.00     0.130 C 
HETATM   25  C   UNL     1      43.383 -10.275  10.420  1.00  0.00     0.032 C 
HETATM   26  C   UNL     1      44.266  -9.239  11.138  1.00  0.00     0.005 C 
HETATM   27  C   UNL     1      45.407  -9.657  10.193  1.00  0.00     0.032 C 
ENDBRANCH  23  24
ENDBRANCH  19  23
ENDBRANCH   2  17
TORSDOF 6
ENDMDL
MODEL 4
REMARK VINA RESULT:      -7.2      2.360      4.185
REMARK  6 active torsions:
REMARK  status: ('A' for Active; 'I' for Inactive)
REMARK    1  A    between atoms: C_2  and  N_3 
REMARK       I    between atoms: N_3  and  C_4 
REMARK    2  A    between atoms: C_4  and  C_5 
REMARK    3  A    between atoms: C_6  and  N_7 
REMARK       I    between atoms: N_7  and  C_8 
REMARK    4  A    between atoms: C_8  and  C_9 
REMARK    5  A    between atoms: C_11  and  O_12 
REMARK    6  A    between atoms: O_12  and  C_13 
ROOT
HETATM    1  N   UNL     1      42.028 -14.691   4.359  1.00  0.00    -0.322 N 
HETATM    2  C   UNL     1      41.113 -14.467   5.374  1.00  0.00     0.256 C 
HETATM    3  O   UNL     1      40.394 -15.316   5.890  1.00  0.00    -0.267 OA
HETATM    4  H   UNL     1      42.439 -13.881   3.907  1.00  0.00     0.169 HD
ENDROOT
BRANCH   1   5
HETATM    5  C   UNL     1      42.446 -15.947   3.838  1.00  0.00     0.050 A 
HETATM    6  C   UNL     1      41.930 -16.401   2.605  1.00  0.00     0.058 A 
HETATM    7  C   UNL     1      42.396 -17.590   2.023  1.00  0.00     0.019 A 
HETATM    8  C   UNL     1      43.355 -18.361   2.675  1.00  0.00     0.001 A 
HETATM    9  C   UNL     1      43.854 -17.938   3.902  1.00  0.00     0.002 A 
HETATM   10  C   UNL     1      43.408 -16.741   4.475  1.00  0.00     0.030 A 
BRANCH   6  11
HETATM   11  C   UNL     1      40.878 -15.672   1.851  1.00  0.00     0.253 C 
HETATM   12  N   UNL     1      41.321 -14.951   0.758  1.00  0.00    -0.357 N 
HETATM   13  H   UNL     1      42.318 -14.761   0.708  1.00  0.00     0.162 HD
HETATM   14  O   UNL     1      39.713 -15.701   2.226  1.00  0.00    -0.268 OA
BRANCH  12  15
HETATM   15  C   UNL     1      40.434 -14.032   0.070  1.00  0.00     0.118 C 
HETATM   16  C   UNL     1      39.644 -14.711  -1.035  1.00  0.00     0.026 C 
ENDBRANCH  12  15
ENDBRANCH   6  11
ENDBRANCH   1   5
BRANCH   2  17
HETATM   17  C   UNL     1      40.973 -13.057   5.843  1.00  0.00     0.037 A 
HETATM   18  C   UNL     1      42.137 -12.297   5.971  1.00  0.00     0.075 A 
HETATM   19  C   UNL     1      42.017 -10.978   6.359  1.00  0.00     0.165 A 
HETATM   20  N   UNL     1      40.841 -10.378   6.632  1.00  0.00    -0.237 NA
HETATM   21  C   UNL     1      39.728 -11.129   6.488  1.00  0.00     0.120 A 
HETATM   22  C   UNL     1      39.737 -12.458   6.095  1.00  0.00     0.036 A 
BRANCH  19  23
HETATM   23  O   UNL     1      43.189 -10.251   6.446  1.00  0.00    -0.329 OA
BRANCH  23  24
HETATM   24  C   UNL     1      44.265 -10.853   7.195  1.00  0.00     0.130 C 
HETATM   25  C   UNL     1      45.569 -11.170   6.418  1.00  0.00     0.032 C 
HETATM   26  C   UNL     1      46.351 -10.684   7.651  1.00  0.00     0.005 C 
HETATM   27  C   UNL     1      45.112  -9.851   8.024  1.00  0.00     0.032 C 
ENDBRANCH  23  24
ENDBRANCH  19  23
ENDBRANCH   2  17
TORSDOF 6
ENDMDL
MODEL 5
REMARK VINA RESULT:      -7.0      2.493      4.223
REMARK  6 active torsions:
REMARK  status: ('A' for Active; 'I' for Inactive)
REMARK    1  A    between atoms: C_2  and  N_3 
REMARK       I    between atoms: N_3  and  C_4 
REMARK    2  A    between atoms: C_4  and  C_5 
REMARK    3  A    between atoms: C_6  and  N_7 
REMARK       I    between atoms: N_7  and  C_8 
REMARK    4  A    between atoms: C_8  and  C_9 
REMARK    5  A    between atoms: C_11  and  O_12 
REMARK    6  A    between atoms: O_12  and  C_13 
ROOT
HETATM    1  N   UNL     1      43.529 -15.723   4.655  1.00  0.00    -0.322 N 
HETATM    2  C   UNL     1      42.514 -15.146   5.399  1.00  0.00     0.256 C 
HETATM    3  O   UNL     1      41.416 -15.644   5.623  1.00  0.00    -0.267 OA
HETATM    4  H   UNL     1      44.321 -15.140   4.406  1.00  0.00     0.169 HD
ENDROOT
BRANCH   1   5
HETATM    5  C   UNL     1      43.581 -17.054   4.156  1.00  0.00     0.050 A 
HETATM    6  C   UNL     1      42.986 -17.361   2.913  1.00  0.00     0.058 A 
HETATM    7  C   UNL     1      43.104 -18.643   2.354  1.00  0.00     0.019 A 
HETATM    8  C   UNL     1      43.785 -19.645   3.039  1.00  0.00     0.001 A 
HETATM    9  C   UNL     1      44.355 -19.364   4.276  1.00  0.00     0.002 A 
HETATM   10  C   UNL     1      44.258 -18.080   4.826  1.00  0.00     0.030 A 
BRANCH   6  11
HETATM   11  C   UNL     1      42.205 -16.373   2.125  1.00  0.00     0.253 C 
HETATM   12  N   UNL     1      40.888 -16.209   2.513  1.00  0.00    -0.357 N 
HETATM   13  H   UNL     1      40.492 -16.933   3.106  1.00  0.00     0.162 HD
HETATM   14  O   UNL     1      42.717 -15.791   1.177  1.00  0.00    -0.268 OA
BRANCH  12  15
HETATM   15  C   UNL     1      39.967 -15.439   1.699  1.00  0.00     0.118 C 
HETATM   16  C   UNL     1      39.767 -14.031   2.229  1.00  0.00     0.026 C 
ENDBRANCH  12  15
ENDBRANCH   6  11
ENDBRANCH   1   5
BRANCH   2  17
HETATM   17  C   UNL     1      42.780 -13.779   5.937  1.00  0.00     0.037 A 
HETATM   18  C   UNL     1      41.895 -12.758   5.584  1.00  0.00     0.075 A 
HETATM   19  C   UNL     1      42.103 -11.500   6.113  1.00  0.00     0.165 A 
HETATM   20  N   UNL     1      43.119 -11.193   6.945  1.00  0.00    -0.237 NA
HETATM   21  C   UNL     1      43.953 -12.199   7.282  1.00  0.00     0.120 A 
HETATM   22  C   UNL     1      43.828 -13.498   6.816  1.00  0.00     0.036 A 
BRANCH  19  23
HETATM   23  O   UNL     1      41.190 -10.525   5.763  1.00  0.00    -0.329 OA
BRANCH  23  24
HETATM   24  C   UNL     1      40.124 -10.930   4.880  1.00  0.00     0.130 C 
HETATM   25  C   UNL     1      38.735 -10.278   5.111  1.00  0.00     0.032 C 
HETATM   26  C   UNL     1      38.588 -10.189   3.582  1.00  0.00     0.005 C 
HETATM   27  C   UNL     1      40.125 -10.217   3.501  1.00  0.00     0.032 C 
ENDBRANCH  23  24
ENDBRANCH  19  23
ENDBRANCH   2  17
TORSDOF 6
ENDMDL
MODEL 6
REMARK VINA RESULT:      -7.0      2.780      7.876
REMARK  6 active torsions:
REMARK  status: ('A' for Active; 'I' for Inactive)
REMARK    1  A    between atoms: C_2  and  N_3 
REMARK       I    between atoms: N_3  and  C_4 
REMARK    2  A    between atoms: C_4  and  C_5 
REMARK    3  A    between atoms: C_6  and  N_7 
REMARK       I    between atoms: N_7  and  C_8 
REMARK    4  A    between atoms: C_8  and  C_9 
REMARK    5  A    between atoms: C_11  and  O_12 
REMARK    6  A    between atoms: O_12  and  C_13 
ROOT
HETATM    1  N   UNL     1      43.548 -12.032   7.575  1.00  0.00    -0.322 N 
HETATM    2  C   UNL     1      43.649 -12.721   6.379  1.00  0.00     0.256 C 
HETATM    3  O   UNL     1      44.106 -12.277   5.332  1.00  0.00    -0.267 OA
HETATM    4  H   UNL     1      43.002 -12.454   8.319  1.00  0.00     0.169 HD
ENDROOT
BRANCH   1   5
HETATM    5  C   UNL     1      44.101 -10.758   7.884  1.00  0.00     0.050 A 
HETATM    6  C   UNL     1      43.258  -9.629   7.969  1.00  0.00     0.058 A 
HETATM    7  C   UNL     1      43.763  -8.380   8.364  1.00  0.00     0.019 A 
HETATM    8  C   UNL     1      45.117  -8.230   8.647  1.00  0.00     0.001 A 
HETATM    9  C   UNL     1      45.965  -9.327   8.544  1.00  0.00     0.002 A 
HETATM   10  C   UNL     1      45.460 -10.580   8.171  1.00  0.00     0.030 A 
BRANCH   6  11
HETATM   11  C   UNL     1      41.808  -9.677   7.650  1.00  0.00     0.253 C 
HETATM   12  N   UNL     1      40.973  -9.096   8.587  1.00  0.00    -0.357 N 
HETATM   13  H   UNL     1      41.367  -8.924   9.508  1.00  0.00     0.162 HD
HETATM   14  O   UNL     1      41.414 -10.238   6.635  1.00  0.00    -0.268 OA
BRANCH  12  15
HETATM   15  C   UNL     1      39.535  -9.262   8.500  1.00  0.00     0.118 C 
HETATM   16  C   UNL     1      38.974 -10.058   9.665  1.00  0.00     0.026 C 
ENDBRANCH  12  15
ENDBRANCH   6  11
ENDBRANCH   1   5
BRANCH   2  17
HETATM   17  C   UNL     1      43.114 -14.114   6.369  1.00  0.00     0.037 A 
HETATM   18  C   UNL     1      42.833 -14.694   5.130  1.00  0.00     0.075 A 
HETATM   19  C   UNL     1      42.382 -15.998   5.104  1.00  0.00     0.165 A 
HETATM   20  N   UNL     1      42.186 -16.747   6.209  1.00  0.00    -0.237 NA
HETATM   21  C   UNL     1      42.476 -16.170   7.394  1.00  0.00     0.120 A 
HETATM   22  C   UNL     1      42.944 -14.873   7.529  1.00  0.00     0.036 A 
BRANCH  19  23
HETATM   23  O   UNL     1      42.144 -16.545   3.859  1.00  0.00    -0.329 OA
BRANCH  23  24
HETATM   24  C   UNL     1      43.262 -17.190   3.215  1.00  0.00     0.130 C 
HETATM   25  C   UNL     1      44.016 -18.270   4.034  1.00  0.00     0.032 C 
HETATM   26  C   UNL     1      44.109 -19.100   2.742  1.00  0.00     0.005 C 
HETATM   27  C   UNL     1      42.872 -18.333   2.240  1.00  0.00     0.032 C 
ENDBRANCH  23  24
ENDBRANCH  19  23
ENDBRANCH   2  17
TORSDOF 6
ENDMDL
MODEL 7
REMARK VINA RESULT:      -7.0      4.014      7.914
REMARK  6 active torsions:
REMARK  status: ('A' for Active; 'I' for Inactive)
REMARK    1  A    between atoms: C_2  and  N_3 
REMARK       I    between atoms: N_3  and  C_4 
REMARK    2  A    between atoms: C_4  and  C_5 
REMARK    3  A    between atoms: C_6  and  N_7 
REMARK       I    between atoms: N_7  and  C_8 
REMARK    4  A    between atoms: C_8  and  C_9 
REMARK    5  A    between atoms: C_11  and  O_12 
REMARK    6  A    between atoms: O_12  and  C_13 
ROOT
HETATM    1  N   UNL     1      40.163 -14.285  -0.150  1.00  0.00    -0.322 N 
HETATM    2  C   UNL     1      40.236 -15.339   0.744  1.00  0.00     0.256 C 
HETATM    3  O   UNL     1      39.429 -16.257   0.838  1.00  0.00    -0.267 OA
HETATM    4  H   UNL     1      40.801 -13.507  -0.015  1.00  0.00     0.169 HD
ENDROOT
BRANCH   1   5
HETATM    5  C   UNL     1      39.259 -14.140  -1.238  1.00  0.00     0.050 A 
HETATM    6  C   UNL     1      38.489 -12.962  -1.358  1.00  0.00     0.058 A 
HETATM    7  C   UNL     1      37.660 -12.754  -2.472  1.00  0.00     0.019 A 
HETATM    8  C   UNL     1      37.559 -13.726  -3.462  1.00  0.00     0.001 A 
HETATM    9  C   UNL     1      38.292 -14.902  -3.345  1.00  0.00     0.002 A 
HETATM   10  C   UNL     1      39.138 -15.104  -2.246  1.00  0.00     0.030 A 
BRANCH   6  11
HETATM   11  C   UNL     1      38.497 -11.884  -0.337  1.00  0.00     0.253 C 
HETATM   12  N   UNL     1      37.337 -11.759   0.405  1.00  0.00    -0.357 N 
HETATM   13  H   UNL     1      36.506 -12.214   0.037  1.00  0.00     0.162 HD
HETATM   14  O   UNL     1      39.469 -11.149  -0.217  1.00  0.00    -0.268 OA
BRANCH  12  15
HETATM   15  C   UNL     1      37.137 -10.620   1.281  1.00  0.00     0.118 C 
HETATM   16  C   UNL     1      36.243  -9.563   0.657  1.00  0.00     0.026 C 
ENDBRANCH  12  15
ENDBRANCH   6  11
ENDBRANCH   1   5
BRANCH   2  17
HETATM   17  C   UNL     1      41.385 -15.323   1.697  1.00  0.00     0.037 A 
HETATM   18  C   UNL     1      41.635 -16.483   2.433  1.00  0.00     0.075 A 
HETATM   19  C   UNL     1      42.723 -16.497   3.283  1.00  0.00     0.165 A 
HETATM   20  N   UNL     1      43.556 -15.450   3.455  1.00  0.00    -0.237 NA
HETATM   21  C   UNL     1      43.301 -14.345   2.723  1.00  0.00     0.120 A 
HETATM   22  C   UNL     1      42.244 -14.231   1.835  1.00  0.00     0.036 A 
BRANCH  19  23
HETATM   23  O   UNL     1      42.954 -17.672   3.971  1.00  0.00    -0.329 OA
BRANCH  23  24
HETATM   24  C   UNL     1      43.816 -18.634   3.328  1.00  0.00     0.130 C 
HETATM   25  C   UNL     1      43.980 -20.008   4.029  1.00  0.00     0.032 C 
HETATM   26  C   UNL     1      43.923 -20.658   2.635  1.00  0.00     0.005 C 
HETATM   27  C   UNL     1      43.154 -19.413   2.160  1.00  0.00     0.032 C 
ENDBRANCH  23  24
ENDBRANCH  19  23
ENDBRANCH   2  17
TORSDOF 6
ENDMDL
MODEL 8
REMARK VINA RESULT:      -6.9      3.034      5.460
REMARK  6 active torsions:
REMARK  status: ('A' for Active; 'I' for Inactive)
REMARK    1  A    between atoms: C_2  and  N_3 
REMARK       I    between atoms: N_3  and  C_4 
REMARK    2  A    between atoms: C_4  and  C_5 
REMARK    3  A    between atoms: C_6  and  N_7 
REMARK       I    between atoms: N_7  and  C_8 
REMARK    4  A    between atoms: C_8  and  C_9 
REMARK    5  A    between atoms: C_11  and  O_12 
REMARK    6  A    between atoms: O_12  and  C_13 
ROOT
HETATM    1  N   UNL     1      41.976 -15.047   2.506  1.00  0.00    -0.322 N 
HETATM    2  C   UNL     1      42.496 -13.785   2.276  1.00  0.00     0.256 C 
HETATM    3  O   UNL     1      43.607 -13.394   2.618  1.00  0.00    -0.267 OA
HETATM    4  H   UNL     1      40.989 -15.192   2.321  1.00  0.00     0.169 HD
ENDROOT
BRANCH   1   5
HETATM    5  C   UNL     1      42.665 -16.183   3.014  1.00  0.00     0.050 A 
HETATM    6  C   UNL     1      42.880 -16.309   4.403  1.00  0.00     0.058 A 
HETATM    7  C   UNL     1      43.473 -17.464   4.939  1.00  0.00     0.019 A 
HETATM    8  C   UNL     1      43.890 -18.492   4.098  1.00  0.00     0.001 A 
HETATM    9  C   UNL     1      43.706 -18.371   2.725  1.00  0.00     0.002 A 
HETATM   10  C   UNL     1      43.095 -17.230   2.189  1.00  0.00     0.030 A 
BRANCH   6  11
HETATM   11  C   UNL     1      42.507 -15.253   5.378  1.00  0.00     0.253 C 
HETATM   12  N   UNL     1      43.533 -14.407   5.760  1.00  0.00    -0.357 N 
HETATM   13  H   UNL     1      44.480 -14.718   5.564  1.00  0.00     0.162 HD
HETATM   14  O   UNL     1      41.368 -15.190   5.821  1.00  0.00    -0.268 OA
BRANCH  12  15
HETATM   15  C   UNL     1      43.354 -13.476   6.857  1.00  0.00     0.118 C 
HETATM   16  C   UNL     1      44.376 -12.354   6.834  1.00  0.00     0.026 C 
ENDBRANCH  12  15
ENDBRANCH   6  11
ENDBRANCH   1   5
BRANCH   2  17
HETATM   17  C   UNL     1      41.599 -12.813   1.585  1.00  0.00     0.037 A 
HETATM   18  C   UNL     1      40.543 -13.327   0.829  1.00  0.00     0.075 A 
HETATM   19  C   UNL     1      39.679 -12.438   0.223  1.00  0.00     0.165 A 
HETATM   20  N   UNL     1      39.798 -11.097   0.308  1.00  0.00    -0.237 NA
HETATM   21  C   UNL     1      40.818 -10.624   1.054  1.00  0.00     0.120 A 
HETATM   22  C   UNL     1      41.735 -11.429   1.711  1.00  0.00     0.036 A 
BRANCH  19  23
HETATM   23  O   UNL     1      38.630 -12.985  -0.490  1.00  0.00    -0.329 OA
BRANCH  23  24
HETATM   24  C   UNL     1      38.916 -13.387  -1.845  1.00  0.00     0.130 C 
HETATM   25  C   UNL     1      39.044 -14.910  -2.113  1.00  0.00     0.032 C 
HETATM   26  C   UNL     1      38.277 -14.683  -3.428  1.00  0.00     0.005 C 
HETATM   27  C   UNL     1      37.678 -13.421  -2.781  1.00  0.00     0.032 C 
ENDBRANCH  23  24
ENDBRANCH  19  23
ENDBRANCH   2  17
TORSDOF 6
ENDMDL
MODEL 9
REMARK VINA RESULT:      -6.8      3.029      6.010
REMARK  6 active torsions:
REMARK  status: ('A' for Active; 'I' for Inactive)
REMARK    1  A    between atoms: C_2  and  N_3 
REMARK       I    between atoms: N_3  and  C_4 
REMARK    2  A    between atoms: C_4  and  C_5 
REMARK    3  A    between atoms: C_6  and  N_7 
REMARK       I    between atoms: N_7  and  C_8 
REMARK    4  A    between atoms: C_8  and  C_9 
REMARK    5  A    between atoms: C_11  and  O_12 
REMARK    6  A    between atoms: O_12  and  C_13 
ROOT
HETATM    1  N   UNL     1      42.778 -14.272   3.333  1.00  0.00    -0.322 N 
HETATM    2  C   UNL     1      41.492 -13.943   2.940  1.00  0.00     0.256 C 
HETATM    3  O   UNL     1      40.458 -14.389   3.424  1.00  0.00    -0.267 OA
HETATM    4  H   UNL     1      43.545 -13.962   2.746  1.00  0.00     0.169 HD
ENDROOT
BRANCH   1   5
HETATM    5  C   UNL     1      43.161 -15.039   4.468  1.00  0.00     0.050 A 
HETATM    6  C   UNL     1      43.472 -16.408   4.317  1.00  0.00     0.058 A 
HETATM    7  C   UNL     1      43.943 -17.164   5.402  1.00  0.00     0.019 A 
HETATM    8  C   UNL     1      44.079 -16.579   6.657  1.00  0.00     0.001 A 
HETATM    9  C   UNL     1      43.754 -15.238   6.827  1.00  0.00     0.002 A 
HETATM   10  C   UNL     1      43.304 -14.475   5.742  1.00  0.00     0.030 A 
BRANCH   6  11
HETATM   11  C   UNL     1      43.322 -17.134   3.030  1.00  0.00     0.253 C 
HETATM   12  N   UNL     1      42.918 -18.452   3.133  1.00  0.00    -0.357 N 
HETATM   13  H   UNL     1      43.007 -18.888   4.046  1.00  0.00     0.162 HD
HETATM   14  O   UNL     1      43.586 -16.579   1.970  1.00  0.00    -0.268 OA
BRANCH  12  15
HETATM   15  C   UNL     1      42.939 -19.325   1.975  1.00  0.00     0.118 C 
HETATM   16  C   UNL     1      43.920 -20.473   2.136  1.00  0.00     0.026 C 
ENDBRANCH  12  15
ENDBRANCH   6  11
ENDBRANCH   1   5
BRANCH   2  17
HETATM   17  C   UNL     1      41.371 -12.988   1.799  1.00  0.00     0.037 A 
HETATM   18  C   UNL     1      40.961 -13.499   0.566  1.00  0.00     0.075 A 
HETATM   19  C   UNL     1      40.799 -12.619  -0.486  1.00  0.00     0.165 A 
HETATM   20  N   UNL     1      41.024 -11.292  -0.397  1.00  0.00    -0.237 NA
HETATM   21  C   UNL     1      41.407 -10.820   0.808  1.00  0.00     0.120 A 
HETATM   22  C   UNL     1      41.588 -11.615   1.929  1.00  0.00     0.036 A 
BRANCH  19  23
HETATM   23  O   UNL     1      40.364 -13.158  -1.681  1.00  0.00    -0.329 OA
BRANCH  23  24
HETATM   24  C   UNL     1      38.999 -13.625  -1.716  1.00  0.00     0.130 C 
HETATM   25  C   UNL     1      37.891 -12.545  -1.824  1.00  0.00     0.032 C 
HETATM   26  C   UNL     1      37.158 -13.481  -2.802  1.00  0.00     0.005 C 
HETATM   27  C   UNL     1      38.524 -14.120  -3.108  1.00  0.00     0.032 C 
ENDBRANCH  23  24
ENDBRANCH  19  23
ENDBRANCH   2  17
TORSDOF 6
ENDMDL
MODEL 10
REMARK VINA RESULT:      -6.8      3.266      7.768
REMARK  6 active torsions:
REMARK  status: ('A' for Active; 'I' for Inactive)
REMARK    1  A    between atoms: C_2  and  N_3 
REMARK       I    between atoms: N_3  and  C_4 
REMARK    2  A    between atoms: C_4  and  C_5 
REMARK    3  A    between atoms: C_6  and  N_7 
REMARK       I    between atoms: N_7  and  C_8 
REMARK    4  A    between atoms: C_8  and  C_9 
REMARK    5  A    between atoms: C_11  and  O_12 
REMARK    6  A    between atoms: O_12  and  C_13 
ROOT
HETATM    1  N   UNL     1      40.914 -14.300   0.392  1.00  0.00    -0.322 N 
HETATM    2  C   UNL     1      40.513 -14.539   1.696  1.00  0.00     0.256 C 
HETATM    3  O   UNL     1      39.391 -14.338   2.148  1.00  0.00    -0.267 OA
HETATM    4  H   UNL     1      41.907 -14.351   0.188  1.00  0.00     0.169 HD
ENDROOT
BRANCH   1   5
HETATM    5  C   UNL     1      40.090 -13.951  -0.712  1.00  0.00     0.050 A 
HETATM    6  C   UNL     1      39.997 -12.602  -1.119  1.00  0.00     0.058 A 
HETATM    7  C   UNL     1      39.266 -12.243  -2.262  1.00  0.00     0.019 A 
HETATM    8  C   UNL     1      38.590 -13.213  -2.996  1.00  0.00     0.001 A 
HETATM    9  C   UNL     1      38.652 -14.543  -2.593  1.00  0.00     0.002 A 
HETATM   10  C   UNL     1      39.399 -14.908  -1.466  1.00  0.00     0.030 A 
BRANCH   6  11
HETATM   11  C   UNL     1      40.648 -11.489  -0.382  1.00  0.00     0.253 C 
HETATM   12  N   UNL     1      41.129 -10.457  -1.167  1.00  0.00    -0.357 N 
HETATM   13  H   UNL     1      41.238 -10.648  -2.159  1.00  0.00     0.162 HD
HETATM   14  O   UNL     1      40.767 -11.536   0.836  1.00  0.00    -0.268 OA
BRANCH  12  15
HETATM   15  C   UNL     1      41.967  -9.420  -0.594  1.00  0.00     0.118 C 
HETATM   16  C   UNL     1      42.523  -8.480  -1.648  1.00  0.00     0.026 C 
ENDBRANCH  12  15
ENDBRANCH   6  11
ENDBRANCH   1   5
BRANCH   2  17
HETATM   17  C   UNL     1      41.559 -15.049   2.630  1.00  0.00     0.037 A 
HETATM   18  C   UNL     1      42.248 -16.207   2.264  1.00  0.00     0.075 A 
HETATM   19  C   UNL     1      43.250 -16.663   3.097  1.00  0.00     0.165 A 
HETATM   20  N   UNL     1      43.599 -16.061   4.252  1.00  0.00    -0.237 NA
HETATM   21  C   UNL     1      42.929 -14.936   4.578  1.00  0.00     0.120 A 
HETATM   22  C   UNL     1      41.915 -14.389   3.809  1.00  0.00     0.036 A 
BRANCH  19  23
HETATM   23  O   UNL     1      43.928 -17.794   2.686  1.00  0.00    -0.329 OA
BRANCH  23  24
HETATM   24  C   UNL     1      43.382 -19.060   3.111  1.00  0.00     0.130 C 
HETATM   25  C   UNL     1      43.726 -20.299   2.244  1.00  0.00     0.032 C 
HETATM   26  C   UNL     1      43.893 -21.094   3.551  1.00  0.00     0.005 C 
HETATM   27  C   UNL     1      44.177 -19.753   4.251  1.00  0.00     0.032 C 
ENDBRANCH  23  24
ENDBRANCH  19  23
ENDBRANCH   2  17
TORSDOF 6
ENDMDL
