MODEL 1
REMARK VINA RESULT:      -9.7      0.000      0.000
REMARK  3 active torsions:
REMARK  status: ('A' for Active; 'I' for Inactive)
REMARK    1  A    between atoms: C_3  and  C_4 
REMARK       I    between atoms: C_4  and  N_5 
REMARK    2  A    between atoms: N_5  and  C_6 
REMARK    3  A    between atoms: C_13  and  C_14 
REMARK       I    between atoms: C_14  and  N_15 
ROOT
HETATM    1  C   UNL     1      40.933 -14.215   0.699  1.00  0.00     0.035 A 
HETATM    2  C   UNL     1      40.234 -14.649  -0.435  1.00  0.00     0.046 A 
HETATM    3  C   UNL     1      39.301 -13.786  -1.050  1.00  0.00     0.030 A 
HETATM    4  C   UNL     1      39.088 -12.528  -0.501  1.00  0.00     0.063 A 
HETATM    5  N   UNL     1      38.145 -11.942  -1.298  1.00  0.00    -0.277 N 
HETATM    6  H   UNL     1      37.743 -11.016  -1.193  1.00  0.00     0.189 HD
HETATM    7  N   UNL     1      37.738 -12.699  -2.329  1.00  0.00    -0.168 NA
HETATM    8  C   UNL     1      38.447 -13.842  -2.192  1.00  0.00     0.156 A 
HETATM    9  C   UNL     1      39.760 -12.067   0.632  1.00  0.00     0.034 A 
HETATM   10  C   UNL     1      40.693 -12.934   1.214  1.00  0.00     0.032 A 
ENDROOT
BRANCH   1  11
HETATM   11  N   UNL     1      41.914 -14.988   1.348  1.00  0.00    -0.325 N 
HETATM   12  C   UNL     1      41.787 -15.721   2.514  1.00  0.00     0.252 C 
HETATM   13  O   UNL     1      40.813 -15.744   3.261  1.00  0.00    -0.270 OA
HETATM   14  H   UNL     1      42.846 -14.996   0.943  1.00  0.00     0.169 HD
BRANCH  12  15
HETATM   15  C   UNL     1      42.997 -16.622   2.784  1.00  0.00     0.229 C 
HETATM   16  C   UNL     1      43.023 -16.998   4.279  1.00  0.00     0.056 C 
HETATM   17  C   UNL     1      43.929 -16.091   5.097  1.00  0.00     0.018 C 
HETATM   18  C   UNL     1      43.484 -18.405   4.162  1.00  0.00    -0.018 A 
HETATM   19  C   UNL     1      43.380 -18.814   2.841  1.00  0.00     0.076 A 
HETATM   20  C   UNL     1      43.900 -19.289   5.143  1.00  0.00     0.010 A 
HETATM   21  O   UNL     1      42.927 -17.839   1.992  1.00  0.00    -0.335 OA
HETATM   22  C   UNL     1      43.686 -20.100   2.447  1.00  0.00     0.037 A 
HETATM   23  C   UNL     1      44.119 -20.998   3.424  1.00  0.00     0.003 A 
HETATM   24  C   UNL     1      44.225 -20.595   4.765  1.00  0.00     0.001 A 
ENDBRANCH  12  15
ENDBRANCH   1  11
BRANCH   8  25
HETATM   25  C   UNL     1      38.303 -14.947  -3.151  1.00  0.00     0.270 C 
HETATM   26  N   UNL     1      38.243 -16.184  -2.572  1.00  0.00    -0.365 N 
HETATM   27  H   UNL     1      38.286 -16.250  -1.562  1.00  0.00     0.159 HD
HETATM   28  H   UNL     1      38.126 -17.001  -3.151  1.00  0.00     0.159 HD
HETATM   29  O   UNL     1      38.232 -14.812  -4.368  1.00  0.00    -0.266 OA
ENDBRANCH   8  25
TORSDOF 3
ENDMDL
MODEL 2
REMARK VINA RESULT:      -9.1      1.413      2.720
REMARK  3 active torsions:
REMARK  status: ('A' for Active; 'I' for Inactive)
REMARK    1  A    between atoms: C_3  and  C_4 
REMARK       I    between atoms: C_4  and  N_5 
REMARK    2  A    between atoms: N_5  and  C_6 
REMARK    3  A    between atoms: C_13  and  C_14 
REMARK       I    between atoms: C_14  and  N_15 
ROOT
HETATM    1  C   UNL     1      40.583 -14.425   0.785  1.00  0.00     0.035 A 
HETATM    2  C   UNL     1      39.876 -14.782  -0.371  1.00  0.00     0.046 A 
HETATM    3  C   UNL     1      39.683 -13.827  -1.393  1.00  0.00     0.030 A 
HETATM    4  C   UNL     1      40.188 -12.546  -1.217  1.00  0.00     0.063 A 
HETATM    5  N   UNL     1      39.845 -11.863  -2.349  1.00  0.00    -0.277 N 
HETATM    6  H   UNL     1      40.048 -10.893  -2.567  1.00  0.00     0.189 HD
HETATM    7  N   UNL     1      39.176 -12.591  -3.258  1.00  0.00    -0.168 NA
HETATM    8  C   UNL     1      39.071 -13.810  -2.682  1.00  0.00     0.156 A 
HETATM    9  C   UNL     1      40.890 -12.153  -0.075  1.00  0.00     0.034 A 
HETATM   10  C   UNL     1      41.083 -13.123   0.916  1.00  0.00     0.032 A 
ENDROOT
BRANCH   1  11
HETATM   11  N   UNL     1      40.863 -15.323   1.831  1.00  0.00    -0.325 N 
HETATM   12  C   UNL     1      42.022 -16.047   2.045  1.00  0.00     0.252 C 
HETATM   13  O   UNL     1      42.989 -16.118   1.291  1.00  0.00    -0.270 OA
HETATM   14  H   UNL     1      40.124 -15.499   2.506  1.00  0.00     0.169 HD
BRANCH  12  15
HETATM   15  C   UNL     1      42.048 -16.736   3.414  1.00  0.00     0.229 C 
HETATM   16  C   UNL     1      43.511 -17.023   3.806  1.00  0.00     0.056 C 
HETATM   17  C   UNL     1      43.946 -18.437   3.452  1.00  0.00     0.018 C 
HETATM   18  C   UNL     1      43.427 -16.738   5.262  1.00  0.00    -0.018 A 
HETATM   19  C   UNL     1      42.238 -16.079   5.532  1.00  0.00     0.076 A 
HETATM   20  C   UNL     1      44.349 -16.974   6.268  1.00  0.00     0.010 A 
HETATM   21  O   UNL     1      41.444 -15.892   4.432  1.00  0.00    -0.335 OA
HETATM   22  C   UNL     1      41.919 -15.637   6.799  1.00  0.00     0.037 A 
HETATM   23  C   UNL     1      42.833 -15.879   7.826  1.00  0.00     0.003 A 
HETATM   24  C   UNL     1      44.041 -16.544   7.562  1.00  0.00     0.001 A 
ENDBRANCH  12  15
ENDBRANCH   1  11
BRANCH   8  25
HETATM   25  C   UNL     1      38.406 -14.924  -3.374  1.00  0.00     0.270 C 
HETATM   26  N   UNL     1      38.242 -16.041  -2.602  1.00  0.00    -0.365 N 
HETATM   27  H   UNL     1      38.565 -16.020  -1.643  1.00  0.00     0.159 HD
HETATM   28  H   UNL     1      37.778 -16.849  -2.986  1.00  0.00     0.159 HD
HETATM   29  O   UNL     1      38.011 -14.891  -4.534  1.00  0.00    -0.266 OA
ENDBRANCH   8  25
TORSDOF 3
ENDMDL
MODEL 3
REMARK VINA RESULT:      -9.0      2.689      8.509
REMARK  3 active torsions:
REMARK  status: ('A' for Active; 'I' for Inactive)
REMARK    1  A    between atoms: C_3  and  C_4 
REMARK       I    between atoms: C_4  and  N_5 
REMARK    2  A    between atoms: N_5  and  C_6 
REMARK    3  A    between atoms: C_13  and  C_14 
REMARK       I    between atoms: C_14  and  N_15 
ROOT
HETATM    1  C   UNL     1      42.570 -15.691   1.966  1.00  0.00     0.035 A 
HETATM    2  C   UNL     1      42.890 -17.055   2.008  1.00  0.00     0.046 A 
HETATM    3  C   UNL     1      43.394 -17.615   3.201  1.00  0.00     0.030 A 
HETATM    4  C   UNL     1      43.577 -16.792   4.304  1.00  0.00     0.063 A 
HETATM    5  N   UNL     1      44.072 -17.604   5.285  1.00  0.00    -0.277 N 
HETATM    6  H   UNL     1      44.327 -17.340   6.230  1.00  0.00     0.189 HD
HETATM    7  N   UNL     1      44.212 -18.890   4.924  1.00  0.00    -0.168 NA
HETATM    8  C   UNL     1      43.794 -18.914   3.639  1.00  0.00     0.156 A 
HETATM    9  C   UNL     1      43.276 -15.428   4.296  1.00  0.00     0.034 A 
HETATM   10  C   UNL     1      42.760 -14.899   3.106  1.00  0.00     0.032 A 
ENDROOT
BRANCH   1  11
HETATM   11  N   UNL     1      42.018 -15.058   0.836  1.00  0.00    -0.325 N 
HETATM   12  C   UNL     1      40.683 -14.944   0.491  1.00  0.00     0.252 C 
HETATM   13  O   UNL     1      39.733 -15.473   1.060  1.00  0.00    -0.270 OA
HETATM   14  H   UNL     1      42.665 -14.657   0.164  1.00  0.00     0.169 HD
BRANCH  12  15
HETATM   15  C   UNL     1      40.454 -13.984  -0.681  1.00  0.00     0.229 C 
HETATM   16  C   UNL     1      39.044 -14.220  -1.258  1.00  0.00     0.056 C 
HETATM   17  C   UNL     1      39.049 -15.159  -2.454  1.00  0.00     0.018 C 
HETATM   18  C   UNL     1      38.674 -12.814  -1.565  1.00  0.00    -0.018 A 
HETATM   19  C   UNL     1      39.569 -11.958  -0.942  1.00  0.00     0.076 A 
HETATM   20  C   UNL     1      37.598 -12.313  -2.278  1.00  0.00     0.010 A 
HETATM   21  O   UNL     1      40.562 -12.600  -0.249  1.00  0.00    -0.335 OA
HETATM   22  C   UNL     1      39.435 -10.586  -1.005  1.00  0.00     0.037 A 
HETATM   23  C   UNL     1      38.362 -10.067  -1.732  1.00  0.00     0.003 A 
HETATM   24  C   UNL     1      37.449 -10.926  -2.365  1.00  0.00     0.001 A 
ENDBRANCH  12  15
ENDBRANCH   1  11
BRANCH   8  25
HETATM   25  C   UNL     1      43.773 -20.165   2.868  1.00  0.00     0.270 C 
HETATM   26  N   UNL     1      43.997 -21.287   3.618  1.00  0.00    -0.365 N 
HETATM   27  H   UNL     1      44.144 -21.183   4.614  1.00  0.00     0.159 HD
HETATM   28  H   UNL     1      43.982 -22.193   3.177  1.00  0.00     0.159 HD
HETATM   29  O   UNL     1      43.567 -20.240   1.661  1.00  0.00    -0.266 OA
ENDBRANCH   8  25
TORSDOF 3
ENDMDL
MODEL 4
REMARK VINA RESULT:      -8.9      2.812      8.837
REMARK  3 active torsions:
REMARK  status: ('A' for Active; 'I' for Inactive)
REMARK    1  A    between atoms: C_3  and  C_4 
REMARK       I    between atoms: C_4  and  N_5 
REMARK    2  A    between atoms: N_5  and  C_6 
REMARK    3  A    between atoms: C_13  and  C_14 
REMARK       I    between atoms: C_14  and  N_15 
ROOT
HETATM    1  C   UNL     1      42.341 -15.909   2.400  1.00  0.00     0.035 A 
HETATM    2  C   UNL     1      42.118 -15.828   3.781  1.00  0.00     0.046 A 
HETATM    3  C   UNL     1      42.685 -16.798   4.636  1.00  0.00     0.030 A 
HETATM    4  C   UNL     1      43.439 -17.823   4.080  1.00  0.00     0.063 A 
HETATM    5  N   UNL     1      43.840 -18.591   5.137  1.00  0.00    -0.277 N 
HETATM    6  H   UNL     1      44.407 -19.432   5.105  1.00  0.00     0.189 HD
HETATM    7  N   UNL     1      43.429 -18.148   6.336  1.00  0.00    -0.168 NA
HETATM    8  C   UNL     1      42.716 -17.036   6.043  1.00  0.00     0.156 A 
HETATM    9  C   UNL     1      43.674 -17.940   2.709  1.00  0.00     0.034 A 
HETATM   10  C   UNL     1      43.116 -16.955   1.884  1.00  0.00     0.032 A 
ENDROOT
BRANCH   1  11
HETATM   11  N   UNL     1      41.856 -14.961   1.480  1.00  0.00    -0.325 N 
HETATM   12  C   UNL     1      40.628 -14.943   0.844  1.00  0.00     0.252 C 
HETATM   13  O   UNL     1      39.770 -15.819   0.886  1.00  0.00    -0.270 OA
HETATM   14  H   UNL     1      42.482 -14.207   1.214  1.00  0.00     0.169 HD
BRANCH  12  15
HETATM   15  C   UNL     1      40.366 -13.631   0.096  1.00  0.00     0.229 C 
HETATM   16  C   UNL     1      39.449 -13.911  -1.111  1.00  0.00     0.056 C 
HETATM   17  C   UNL     1      40.226 -14.111  -2.403  1.00  0.00     0.018 C 
HETATM   18  C   UNL     1      38.613 -12.685  -1.064  1.00  0.00    -0.018 A 
HETATM   19  C   UNL     1      38.807 -12.043   0.149  1.00  0.00     0.076 A 
HETATM   20  C   UNL     1      37.697 -12.198  -1.982  1.00  0.00     0.010 A 
HETATM   21  O   UNL     1      39.720 -12.658   0.963  1.00  0.00    -0.335 OA
HETATM   22  C   UNL     1      38.111 -10.902   0.493  1.00  0.00     0.037 A 
HETATM   23  C   UNL     1      37.194 -10.393  -0.429  1.00  0.00     0.003 A 
HETATM   24  C   UNL     1      36.988 -11.037  -1.660  1.00  0.00     0.001 A 
ENDBRANCH  12  15
ENDBRANCH   1  11
BRANCH   8  25
HETATM   25  C   UNL     1      42.097 -16.228   7.103  1.00  0.00     0.270 C 
HETATM   26  N   UNL     1      42.962 -15.846   8.092  1.00  0.00    -0.365 N 
HETATM   27  H   UNL     1      43.933 -16.126   8.021  1.00  0.00     0.159 HD
HETATM   28  H   UNL     1      42.630 -15.272   8.851  1.00  0.00     0.159 HD
HETATM   29  O   UNL     1      40.917 -15.896   7.131  1.00  0.00    -0.266 OA
ENDBRANCH   8  25
TORSDOF 3
ENDMDL
MODEL 5
REMARK VINA RESULT:      -8.8      5.585      8.716
REMARK  3 active torsions:
REMARK  status: ('A' for Active; 'I' for Inactive)
REMARK    1  A    between atoms: C_3  and  C_4 
REMARK       I    between atoms: C_4  and  N_5 
REMARK    2  A    between atoms: N_5  and  C_6 
REMARK    3  A    between atoms: C_13  and  C_14 
REMARK       I    between atoms: C_14  and  N_15 
ROOT
HETATM    1  C   UNL     1      44.097 -12.689   6.766  1.00  0.00     0.035 A 
HETATM    2  C   UNL     1      43.675 -11.948   7.878  1.00  0.00     0.046 A 
HETATM    3  C   UNL     1      44.387 -10.787   8.252  1.00  0.00     0.030 A 
HETATM    4  C   UNL     1      45.503 -10.418   7.513  1.00  0.00     0.063 A 
HETATM    5  N   UNL     1      45.972  -9.281   8.109  1.00  0.00    -0.277 N 
HETATM    6  H   UNL     1      46.781  -8.734   7.836  1.00  0.00     0.189 HD
HETATM    7  N   UNL     1      45.249  -8.866   9.162  1.00  0.00    -0.168 NA
HETATM    8  C   UNL     1      44.263  -9.785   9.262  1.00  0.00     0.156 A 
HETATM    9  C   UNL     1      45.955 -11.136   6.404  1.00  0.00     0.034 A 
HETATM   10  C   UNL     1      45.222 -12.273   6.043  1.00  0.00     0.032 A 
ENDROOT
BRANCH   1  11
HETATM   11  N   UNL     1      43.421 -13.830   6.293  1.00  0.00    -0.325 N 
HETATM   12  C   UNL     1      42.771 -13.994   5.083  1.00  0.00     0.252 C 
HETATM   13  O   UNL     1      42.571 -13.127   4.238  1.00  0.00    -0.270 OA
HETATM   14  H   UNL     1      43.368 -14.631   6.915  1.00  0.00     0.169 HD
BRANCH  12  15
HETATM   15  C   UNL     1      42.360 -15.447   4.823  1.00  0.00     0.229 C 
HETATM   16  C   UNL     1      42.366 -15.709   3.304  1.00  0.00     0.056 C 
HETATM   17  C   UNL     1      40.990 -15.552   2.677  1.00  0.00     0.018 C 
HETATM   18  C   UNL     1      42.901 -17.095   3.304  1.00  0.00    -0.018 A 
HETATM   19  C   UNL     1      43.419 -17.387   4.556  1.00  0.00     0.076 A 
HETATM   20  C   UNL     1      42.993 -18.013   2.271  1.00  0.00     0.010 A 
HETATM   21  O   UNL     1      43.282 -16.371   5.465  1.00  0.00    -0.335 OA
HETATM   22  C   UNL     1      44.039 -18.589   4.830  1.00  0.00     0.037 A 
HETATM   23  C   UNL     1      44.126 -19.528   3.801  1.00  0.00     0.003 A 
HETATM   24  C   UNL     1      43.607 -19.242   2.529  1.00  0.00     0.001 A 
ENDBRANCH  12  15
ENDBRANCH   1  11
BRANCH   8  25
HETATM   25  C   UNL     1      43.227  -9.682  10.299  1.00  0.00     0.270 C 
HETATM   26  N   UNL     1      43.150 -10.772  11.122  1.00  0.00    -0.365 N 
HETATM   27  H   UNL     1      43.795 -11.539  10.973  1.00  0.00     0.159 HD
HETATM   28  H   UNL     1      42.481 -10.783  11.875  1.00  0.00     0.159 HD
HETATM   29  O   UNL     1      42.484  -8.719  10.452  1.00  0.00    -0.266 OA
ENDBRANCH   8  25
TORSDOF 3
ENDMDL
MODEL 6
REMARK VINA RESULT:      -8.8      2.929      8.459
REMARK  3 active torsions:
REMARK  status: ('A' for Active; 'I' for Inactive)
REMARK    1  A    between atoms: C_3  and  C_4 
REMARK       I    between atoms: C_4  and  N_5 
REMARK    2  A    between atoms: N_5  and  C_6 
REMARK    3  A    between atoms: C_13  and  C_14 
REMARK       I    between atoms: C_14  and  N_15 
ROOT
HETATM    1  C   UNL     1      42.121 -15.989   2.457  1.00  0.00     0.035 A 
HETATM    2  C   UNL     1      41.963 -15.898   3.846  1.00  0.00     0.046 A 
HETATM    3  C   UNL     1      42.681 -16.775   4.687  1.00  0.00     0.030 A 
HETATM    4  C   UNL     1      43.517 -17.723   4.111  1.00  0.00     0.063 A 
HETATM    5  N   UNL     1      44.058 -18.413   5.159  1.00  0.00    -0.277 N 
HETATM    6  H   UNL     1      44.715 -19.185   5.112  1.00  0.00     0.189 HD
HETATM    7  N   UNL     1      43.663 -17.987   6.370  1.00  0.00    -0.168 NA
HETATM    8  C   UNL     1      42.814 -16.972   6.095  1.00  0.00     0.156 A 
HETATM    9  C   UNL     1      43.692 -17.847   2.731  1.00  0.00     0.034 A 
HETATM   10  C   UNL     1      42.982 -16.954   1.919  1.00  0.00     0.032 A 
ENDROOT
BRANCH   1  11
HETATM   11  N   UNL     1      41.483 -15.126   1.546  1.00  0.00    -0.325 N 
HETATM   12  C   UNL     1      40.263 -15.303   0.917  1.00  0.00     0.252 C 
HETATM   13  O   UNL     1      39.558 -16.306   0.959  1.00  0.00    -0.270 OA
HETATM   14  H   UNL     1      41.977 -14.279   1.281  1.00  0.00     0.169 HD
BRANCH  12  15
HETATM   15  C   UNL     1      39.788 -14.046   0.180  1.00  0.00     0.229 C 
HETATM   16  C   UNL     1      40.563 -12.825   0.715  1.00  0.00     0.056 C 
HETATM   17  C   UNL     1      39.803 -12.078   1.800  1.00  0.00     0.018 C 
HETATM   18  C   UNL     1      40.736 -12.077  -0.558  1.00  0.00    -0.018 A 
HETATM   19  C   UNL     1      40.429 -12.909  -1.623  1.00  0.00     0.076 A 
HETATM   20  C   UNL     1      41.193 -10.789  -0.777  1.00  0.00     0.010 A 
HETATM   21  O   UNL     1      40.020 -14.162  -1.250  1.00  0.00    -0.335 OA
HETATM   22  C   UNL     1      40.558 -12.497  -2.934  1.00  0.00     0.037 A 
HETATM   23  C   UNL     1      41.006 -11.196  -3.169  1.00  0.00     0.003 A 
HETATM   24  C   UNL     1      41.321 -10.346  -2.096  1.00  0.00     0.001 A 
ENDBRANCH  12  15
ENDBRANCH   1  11
BRANCH   8  25
HETATM   25  C   UNL     1      42.163 -16.211   7.171  1.00  0.00     0.270 C 
HETATM   26  N   UNL     1      43.006 -15.842   8.183  1.00  0.00    -0.365 N 
HETATM   27  H   UNL     1      43.984 -16.097   8.117  1.00  0.00     0.159 HD
HETATM   28  H   UNL     1      42.652 -15.300   8.955  1.00  0.00     0.159 HD
HETATM   29  O   UNL     1      40.975 -15.906   7.193  1.00  0.00    -0.266 OA
ENDBRANCH   8  25
TORSDOF 3
ENDMDL
MODEL 7
REMARK VINA RESULT:      -8.8      5.317      7.920
REMARK  3 active torsions:
REMARK  status: ('A' for Active; 'I' for Inactive)
REMARK    1  A    between atoms: C_3  and  C_4 
REMARK       I    between atoms: C_4  and  N_5 
REMARK    2  A    between atoms: N_5  and  C_6 
REMARK    3  A    between atoms: C_13  and  C_14 
REMARK       I    between atoms: C_14  and  N_15 
ROOT
HETATM    1  C   UNL     1      41.995 -12.013   6.020  1.00  0.00     0.035 A 
HETATM    2  C   UNL     1      43.167 -11.597   6.666  1.00  0.00     0.046 A 
HETATM    3  C   UNL     1      43.266 -10.272   7.143  1.00  0.00     0.030 A 
HETATM    4  C   UNL     1      42.199  -9.406   6.944  1.00  0.00     0.063 A 
HETATM    5  N   UNL     1      42.586  -8.220   7.500  1.00  0.00    -0.277 N 
HETATM    6  H   UNL     1      42.056  -7.356   7.537  1.00  0.00     0.189 HD
HETATM    7  N   UNL     1      43.806  -8.240   8.061  1.00  0.00    -0.168 NA
HETATM    8  C   UNL     1      44.239  -9.504   7.852  1.00  0.00     0.156 A 
HETATM    9  C   UNL     1      41.020  -9.785   6.298  1.00  0.00     0.034 A 
HETATM   10  C   UNL     1      40.939 -11.109   5.849  1.00  0.00     0.032 A 
ENDROOT
BRANCH   1  11
HETATM   11  N   UNL     1      41.791 -13.326   5.554  1.00  0.00    -0.325 N 
HETATM   12  C   UNL     1      42.351 -13.933   4.445  1.00  0.00     0.252 C 
HETATM   13  O   UNL     1      43.054 -13.395   3.594  1.00  0.00    -0.270 OA
HETATM   14  H   UNL     1      41.130 -13.904   6.065  1.00  0.00     0.169 HD
BRANCH  12  15
HETATM   15  C   UNL     1      42.078 -15.440   4.392  1.00  0.00     0.229 C 
HETATM   16  C   UNL     1      42.157 -15.916   2.928  1.00  0.00     0.056 C 
HETATM   17  C   UNL     1      40.794 -15.978   2.257  1.00  0.00     0.018 C 
HETATM   18  C   UNL     1      42.812 -17.233   3.142  1.00  0.00    -0.018 A 
HETATM   19  C   UNL     1      43.311 -17.292   4.433  1.00  0.00     0.076 A 
HETATM   20  C   UNL     1      43.018 -18.277   2.256  1.00  0.00     0.010 A 
HETATM   21  O   UNL     1      43.054 -16.174   5.181  1.00  0.00    -0.335 OA
HETATM   22  C   UNL     1      44.024 -18.381   4.892  1.00  0.00     0.037 A 
HETATM   23  C   UNL     1      44.228 -19.447   4.014  1.00  0.00     0.003 A 
HETATM   24  C   UNL     1      43.728 -19.395   2.703  1.00  0.00     0.001 A 
ENDBRANCH  12  15
ENDBRANCH   1  11
BRANCH   8  25
HETATM   25  C   UNL     1      45.552  -9.951   8.338  1.00  0.00     0.270 C 
HETATM   26  N   UNL     1      46.610  -9.309   7.757  1.00  0.00    -0.365 N 
HETATM   27  H   UNL     1      46.423  -8.591   7.068  1.00  0.00     0.159 HD
HETATM   28  H   UNL     1      47.550  -9.536   8.042  1.00  0.00     0.159 HD
HETATM   29  O   UNL     1      45.725 -10.812   9.194  1.00  0.00    -0.266 OA
ENDBRANCH   8  25
TORSDOF 3
ENDMDL
MODEL 8
REMARK VINA RESULT:      -8.7      2.772      8.090
REMARK  3 active torsions:
REMARK  status: ('A' for Active; 'I' for Inactive)
REMARK    1  A    between atoms: C_3  and  C_4 
REMARK       I    between atoms: C_4  and  N_5 
REMARK    2  A    between atoms: N_5  and  C_6 
REMARK    3  A    between atoms: C_13  and  C_14 
REMARK       I    between atoms: C_14  and  N_15 
ROOT
HETATM    1  C   UNL     1      42.318 -15.652   2.533  1.00  0.00     0.035 A 
HETATM    2  C   UNL     1      42.674 -17.002   2.411  1.00  0.00     0.046 A 
HETATM    3  C   UNL     1      43.348 -17.644   3.472  1.00  0.00     0.030 A 
HETATM    4  C   UNL     1      43.657 -16.911   4.611  1.00  0.00     0.063 A 
HETATM    5  N   UNL     1      44.299 -17.785   5.441  1.00  0.00    -0.277 N 
HETATM    6  H   UNL     1      44.673 -17.594   6.365  1.00  0.00     0.189 HD
HETATM    7  N   UNL     1      44.421 -19.030   4.952  1.00  0.00    -0.168 NA
HETATM    8  C   UNL     1      43.834 -18.960   3.736  1.00  0.00     0.156 A 
HETATM    9  C   UNL     1      43.325 -15.563   4.764  1.00  0.00     0.034 A 
HETATM   10  C   UNL     1      42.642 -14.954   3.704  1.00  0.00     0.032 A 
ENDROOT
BRANCH   1  11
HETATM   11  N   UNL     1      41.605 -14.946   1.547  1.00  0.00    -0.325 N 
HETATM   12  C   UNL     1      40.347 -15.224   1.043  1.00  0.00     0.252 C 
HETATM   13  O   UNL     1      39.662 -16.212   1.291  1.00  0.00    -0.270 OA
HETATM   14  H   UNL     1      42.066 -14.148   1.119  1.00  0.00     0.169 HD
BRANCH  12  15
HETATM   15  C   UNL     1      39.801 -14.100   0.155  1.00  0.00     0.229 C 
HETATM   16  C   UNL     1      40.332 -12.747   0.671  1.00  0.00     0.056 C 
HETATM   17  C   UNL     1      39.350 -12.047   1.597  1.00  0.00     0.018 C 
HETATM   18  C   UNL     1      40.559 -12.069  -0.631  1.00  0.00    -0.018 A 
HETATM   19  C   UNL     1      40.501 -13.006  -1.652  1.00  0.00     0.076 A 
HETATM   20  C   UNL     1      40.862 -10.746  -0.904  1.00  0.00     0.010 A 
HETATM   21  O   UNL     1      40.222 -14.277  -1.225  1.00  0.00    -0.335 OA
HETATM   22  C   UNL     1      40.735 -12.667  -2.969  1.00  0.00     0.037 A 
HETATM   23  C   UNL     1      41.029 -11.334  -3.260  1.00  0.00     0.003 A 
HETATM   24  C   UNL     1      41.092 -10.378  -2.232  1.00  0.00     0.001 A 
ENDBRANCH  12  15
ENDBRANCH   1  11
BRANCH   8  25
HETATM   25  C   UNL     1      43.740 -20.141   2.866  1.00  0.00     0.270 C 
HETATM   26  N   UNL     1      44.000 -21.324   3.501  1.00  0.00    -0.365 N 
HETATM   27  H   UNL     1      44.218 -21.306   4.490  1.00  0.00     0.159 HD
HETATM   28  H   UNL     1      43.940 -22.189   2.988  1.00  0.00     0.159 HD
HETATM   29  O   UNL     1      43.448 -20.111   1.676  1.00  0.00    -0.266 OA
ENDBRANCH   8  25
TORSDOF 3
ENDMDL
MODEL 9
REMARK VINA RESULT:      -8.4      2.338      3.995
REMARK  3 active torsions:
REMARK  status: ('A' for Active; 'I' for Inactive)
REMARK    1  A    between atoms: C_3  and  C_4 
REMARK       I    between atoms: C_4  and  N_5 
REMARK    2  A    between atoms: N_5  and  C_6 
REMARK    3  A    between atoms: C_13  and  C_14 
REMARK       I    between atoms: C_14  and  N_15 
ROOT
HETATM    1  C   UNL     1      40.505 -14.466   0.303  1.00  0.00     0.035 A 
HETATM    2  C   UNL     1      41.013 -13.163   0.221  1.00  0.00     0.046 A 
HETATM    3  C   UNL     1      40.649 -12.341  -0.868  1.00  0.00     0.030 A 
HETATM    4  C   UNL     1      39.805 -12.855  -1.844  1.00  0.00     0.063 A 
HETATM    5  N   UNL     1      39.644 -11.846  -2.751  1.00  0.00    -0.277 N 
HETATM    6  H   UNL     1      39.092 -11.867  -3.601  1.00  0.00     0.189 HD
HETATM    7  N   UNL     1      40.294 -10.712  -2.444  1.00  0.00    -0.168 NA
HETATM    8  C   UNL     1      40.918 -11.001  -1.280  1.00  0.00     0.156 A 
HETATM    9  C   UNL     1      39.287 -14.151  -1.798  1.00  0.00     0.034 A 
HETATM   10  C   UNL     1      39.648 -14.940  -0.699  1.00  0.00     0.032 A 
ENDROOT
BRANCH   1  11
HETATM   11  N   UNL     1      40.775 -15.338   1.374  1.00  0.00    -0.325 N 
HETATM   12  C   UNL     1      41.999 -15.843   1.773  1.00  0.00     0.252 C 
HETATM   13  O   UNL     1      43.071 -15.707   1.191  1.00  0.00    -0.270 OA
HETATM   14  H   UNL     1      39.982 -15.672   1.915  1.00  0.00     0.169 HD
BRANCH  12  15
HETATM   15  C   UNL     1      41.931 -16.568   3.122  1.00  0.00     0.229 C 
HETATM   16  C   UNL     1      43.350 -17.012   3.528  1.00  0.00     0.056 C 
HETATM   17  C   UNL     1      43.648 -18.453   3.140  1.00  0.00     0.018 C 
HETATM   18  C   UNL     1      43.269 -16.760   4.990  1.00  0.00    -0.018 A 
HETATM   19  C   UNL     1      42.148 -15.992   5.261  1.00  0.00     0.076 A 
HETATM   20  C   UNL     1      44.144 -17.115   6.003  1.00  0.00     0.010 A 
HETATM   21  O   UNL     1      41.396 -15.696   4.154  1.00  0.00    -0.335 OA
HETATM   22  C   UNL     1      41.851 -15.554   6.535  1.00  0.00     0.037 A 
HETATM   23  C   UNL     1      42.718 -15.915   7.568  1.00  0.00     0.003 A 
HETATM   24  C   UNL     1      43.858 -16.691   7.304  1.00  0.00     0.001 A 
ENDBRANCH  12  15
ENDBRANCH   1  11
BRANCH   8  25
HETATM   25  C   UNL     1      41.739  -9.998  -0.586  1.00  0.00     0.270 C 
HETATM   26  N   UNL     1      42.250  -9.030  -1.406  1.00  0.00    -0.365 N 
HETATM   27  H   UNL     1      42.025  -9.063  -2.394  1.00  0.00     0.159 HD
HETATM   28  H   UNL     1      42.810  -8.289  -1.016  1.00  0.00     0.159 HD
HETATM   29  O   UNL     1      41.962  -9.989   0.620  1.00  0.00    -0.266 OA
ENDBRANCH   8  25
TORSDOF 3
ENDMDL
MODEL 10
REMARK VINA RESULT:      -8.3      2.104      3.281
REMARK  3 active torsions:
REMARK  status: ('A' for Active; 'I' for Inactive)
REMARK    1  A    between atoms: C_3  and  C_4 
REMARK       I    between atoms: C_4  and  N_5 
REMARK    2  A    between atoms: N_5  and  C_6 
REMARK    3  A    between atoms: C_13  and  C_14 
REMARK       I    between atoms: C_14  and  N_15 
ROOT
HETATM    1  C   UNL     1      39.974 -13.721  -0.866  1.00  0.00     0.035 A 
HETATM    2  C   UNL     1      39.255 -12.521  -0.774  1.00  0.00     0.046 A 
HETATM    3  C   UNL     1      38.178 -12.286  -1.656  1.00  0.00     0.030 A 
HETATM    4  C   UNL     1      37.867 -13.249  -2.607  1.00  0.00     0.063 A 
HETATM    5  N   UNL     1      36.805 -12.744  -3.301  1.00  0.00    -0.277 N 
HETATM    6  H   UNL     1      36.314 -13.178  -4.076  1.00  0.00     0.189 HD
HETATM    7  N   UNL     1      36.382 -11.543  -2.874  1.00  0.00    -0.168 NA
HETATM    8  C   UNL     1      37.219 -11.247  -1.854  1.00  0.00     0.156 A 
HETATM    9  C   UNL     1      38.567 -14.452  -2.732  1.00  0.00     0.034 A 
HETATM   10  C   UNL     1      39.620 -14.669  -1.834  1.00  0.00     0.032 A 
ENDROOT
BRANCH   1  11
HETATM   11  N   UNL     1      41.030 -14.060   0.001  1.00  0.00    -0.325 N 
HETATM   12  C   UNL     1      40.949 -14.527   1.300  1.00  0.00     0.252 C 
HETATM   13  O   UNL     1      39.931 -14.631   1.977  1.00  0.00    -0.270 OA
HETATM   14  H   UNL     1      41.977 -13.921  -0.341  1.00  0.00     0.169 HD
BRANCH  12  15
HETATM   15  C   UNL     1      42.299 -15.012   1.842  1.00  0.00     0.229 C 
HETATM   16  C   UNL     1      42.321 -14.834   3.373  1.00  0.00     0.056 C 
HETATM   17  C   UNL     1      42.985 -13.535   3.803  1.00  0.00     0.018 C 
HETATM   18  C   UNL     1      43.058 -16.069   3.745  1.00  0.00    -0.018 A 
HETATM   19  C   UNL     1      43.105 -16.921   2.653  1.00  0.00     0.076 A 
HETATM   20  C   UNL     1      43.590 -16.453   4.964  1.00  0.00     0.010 A 
HETATM   21  O   UNL     1      42.512 -16.415   1.527  1.00  0.00    -0.335 OA
HETATM   22  C   UNL     1      43.680 -18.173   2.726  1.00  0.00     0.037 A 
HETATM   23  C   UNL     1      44.232 -18.569   3.946  1.00  0.00     0.003 A 
HETATM   24  C   UNL     1      44.187 -17.714   5.059  1.00  0.00     0.001 A 
ENDBRANCH  12  15
ENDBRANCH   1  11
BRANCH   8  25
HETATM   25  C   UNL     1      37.080  -9.999  -1.091  1.00  0.00     0.270 C 
HETATM   26  N   UNL     1      36.926  -8.884  -1.868  1.00  0.00    -0.365 N 
HETATM   27  H   UNL     1      36.907  -8.993  -2.875  1.00  0.00     0.159 HD
HETATM   28  H   UNL     1      36.804  -7.984  -1.431  1.00  0.00     0.159 HD
HETATM   29  O   UNL     1      37.087  -9.923   0.133  1.00  0.00    -0.266 OA
ENDBRANCH   8  25
TORSDOF 3
ENDMDL
