MODEL 1
REMARK VINA RESULT:      -8.8      0.000      0.000
REMARK  5 active torsions:
REMARK  status: ('A' for Active; 'I' for Inactive)
REMARK    1  A    between atoms: C_3  and  O_4 
REMARK    2  A    between atoms: C_6  and  N_7 
REMARK       I    between atoms: N_7  and  C_8 
REMARK    3  A    between atoms: C_8  and  C_9 
REMARK    4  A    between atoms: C_14  and  C_15 
REMARK    5  A    between atoms: C_23  and  C_24 
ROOT
HETATM    1  C   UNL     1      40.078 -13.289   2.094  1.00  0.00     0.148 A 
HETATM    2  N   UNL     1      40.026 -13.635   3.402  1.00  0.00    -0.165 NA
HETATM    3  N   UNL     1      41.164 -14.329   3.588  1.00  0.00    -0.240 N 
HETATM    4  C   UNL     1      41.959 -14.401   2.479  1.00  0.00     0.123 A 
HETATM    5  N   UNL     1      43.160 -15.016   2.502  1.00  0.00    -0.366 N 
HETATM    6  C   UNL     1      43.687 -15.676   3.690  1.00  0.00     0.118 C 
HETATM    7  C   UNL     1      43.038 -15.112   4.968  1.00  0.00     0.066 C 
HETATM    8  C   UNL     1      41.517 -14.886   4.878  1.00  0.00     0.221 C 
HETATM    9  C   UNL     1      41.278 -13.751   1.485  1.00  0.00     0.089 A 
HETATM   10  H   UNL     1      43.704 -15.142   1.650  1.00  0.00     0.161 HD
ENDROOT
BRANCH   1  11
HETATM   11  C   UNL     1      38.998 -12.528   1.440  1.00  0.00     0.276 C 
HETATM   12  N   UNL     1      39.101 -12.573   0.063  1.00  0.00    -0.322 N 
HETATM   13  H   UNL     1      39.901 -13.110  -0.262  1.00  0.00     0.169 HD
HETATM   14  O   UNL     1      38.148 -11.938   2.096  1.00  0.00    -0.266 OA
BRANCH  12  15
HETATM   15  C   UNL     1      38.272 -11.967  -0.896  1.00  0.00     0.037 A 
HETATM   16  C   UNL     1      37.546 -12.671  -1.857  1.00  0.00     0.066 A 
HETATM   17  C   UNL     1      36.748 -11.982  -2.770  1.00  0.00     0.067 A 
HETATM   18  C   UNL     1      36.655 -10.594  -2.742  1.00  0.00     0.036 A 
HETATM   19  C   UNL     1      37.379  -9.885  -1.785  1.00  0.00     0.005 A 
HETATM   20  C   UNL     1      38.184 -10.569  -0.869  1.00  0.00     0.029 A 
BRANCH  17  21
HETATM   21  O   UNL     1      36.060 -12.715  -3.693  1.00  0.00    -0.361 OA
HETATM   22  H   UNL     1      36.453 -13.599  -3.747  1.00  0.00     0.217 HD
ENDBRANCH  17  21
ENDBRANCH  12  15
ENDBRANCH   1  11
BRANCH   8  23
HETATM   23  C   UNL     1      40.691 -16.120   5.160  1.00  0.00     0.409 C 
HETATM   24  F   UNL     1      40.188 -16.705   4.058  1.00  0.00    -0.169 F 
HETATM   25  F   UNL     1      41.446 -17.051   5.799  1.00  0.00    -0.169 F 
HETATM   26  F   UNL     1      39.651 -15.850   5.984  1.00  0.00    -0.169 F 
ENDBRANCH   8  23
BRANCH   6  27
HETATM   27  C   UNL     1      43.670 -17.191   3.578  1.00  0.00    -0.035 A 
HETATM   28  C   UNL     1      44.219 -17.959   4.624  1.00  0.00     0.012 A 
HETATM   29  C   UNL     1      44.245 -19.354   4.556  1.00  0.00     0.043 A 
HETATM   30  C   UNL     1      43.722 -19.995   3.441  1.00  0.00     0.116 A 
HETATM   31  F   UNL     1      43.746 -21.332   3.377  1.00  0.00    -0.206 F 
HETATM   32  C   UNL     1      43.177 -19.266   2.393  1.00  0.00     0.043 A 
HETATM   33  C   UNL     1      43.158 -17.871   2.459  1.00  0.00     0.012 A 
ENDBRANCH   6  27
TORSDOF 5
ENDMDL
MODEL 2
REMARK VINA RESULT:      -8.8      4.983      7.377
REMARK  5 active torsions:
REMARK  status: ('A' for Active; 'I' for Inactive)
REMARK    1  A    between atoms: C_3  and  O_4 
REMARK    2  A    between atoms: C_6  and  N_7 
REMARK       I    between atoms: N_7  and  C_8 
REMARK    3  A    between atoms: C_8  and  C_9 
REMARK    4  A    between atoms: C_14  and  C_15 
REMARK    5  A    between atoms: C_23  and  C_24 
ROOT
HETATM    1  C   UNL     1      40.670 -11.555   5.871  1.00  0.00     0.148 A 
HETATM    2  N   UNL     1      41.243 -11.514   4.645  1.00  0.00    -0.165 NA
HETATM    3  N   UNL     1      41.111 -12.776   4.196  1.00  0.00    -0.240 N 
HETATM    4  C   UNL     1      40.442 -13.604   5.052  1.00  0.00     0.123 A 
HETATM    5  N   UNL     1      40.176 -14.889   4.738  1.00  0.00    -0.366 N 
HETATM    6  C   UNL     1      40.606 -15.502   3.488  1.00  0.00     0.118 C 
HETATM    7  C   UNL     1      40.848 -14.434   2.404  1.00  0.00     0.066 C 
HETATM    8  C   UNL     1      41.592 -13.176   2.888  1.00  0.00     0.221 C 
HETATM    9  C   UNL     1      40.155 -12.849   6.157  1.00  0.00     0.089 A 
HETATM   10  H   UNL     1      39.756 -15.522   5.417  1.00  0.00     0.161 HD
ENDROOT
BRANCH   1  11
HETATM   11  C   UNL     1      40.616 -10.374   6.752  1.00  0.00     0.276 C 
HETATM   12  N   UNL     1      41.778 -10.228   7.485  1.00  0.00    -0.322 N 
HETATM   13  H   UNL     1      42.462 -10.957   7.302  1.00  0.00     0.169 HD
HETATM   14  O   UNL     1      39.625  -9.655   6.792  1.00  0.00    -0.266 OA
BRANCH  12  15
HETATM   15  C   UNL     1      42.097  -9.239   8.431  1.00  0.00     0.037 A 
HETATM   16  C   UNL     1      41.592  -9.211   9.731  1.00  0.00     0.066 A 
HETATM   17  C   UNL     1      41.967  -8.188  10.602  1.00  0.00     0.067 A 
HETATM   18  C   UNL     1      42.846  -7.186  10.200  1.00  0.00     0.036 A 
HETATM   19  C   UNL     1      43.353  -7.209   8.902  1.00  0.00     0.005 A 
HETATM   20  C   UNL     1      42.979  -8.230   8.023  1.00  0.00     0.029 A 
BRANCH  17  21
HETATM   21  O   UNL     1      41.444  -8.201  11.862  1.00  0.00    -0.361 OA
HETATM   22  H   UNL     1      41.360  -9.121  12.156  1.00  0.00     0.217 HD
ENDBRANCH  17  21
ENDBRANCH  12  15
ENDBRANCH   1  11
BRANCH   8  23
HETATM   23  C   UNL     1      43.097 -13.314   2.904  1.00  0.00     0.409 C 
HETATM   24  F   UNL     1      43.582 -14.122   1.944  1.00  0.00    -0.169 F 
HETATM   25  F   UNL     1      43.679 -12.098   2.736  1.00  0.00    -0.169 F 
HETATM   26  F   UNL     1      43.544 -13.784   4.092  1.00  0.00    -0.169 F 
ENDBRANCH   8  23
BRANCH   6  27
HETATM   27  C   UNL     1      41.744 -16.491   3.678  1.00  0.00    -0.035 A 
HETATM   28  C   UNL     1      42.273 -16.682   4.971  1.00  0.00     0.012 A 
HETATM   29  C   UNL     1      43.333 -17.565   5.191  1.00  0.00     0.043 A 
HETATM   30  C   UNL     1      43.875 -18.264   4.122  1.00  0.00     0.116 A 
HETATM   31  F   UNL     1      44.891 -19.111   4.334  1.00  0.00    -0.206 F 
HETATM   32  C   UNL     1      43.379 -18.095   2.837  1.00  0.00     0.043 A 
HETATM   33  C   UNL     1      42.322 -17.207   2.616  1.00  0.00     0.012 A 
ENDBRANCH   6  27
TORSDOF 5
ENDMDL
MODEL 3
REMARK VINA RESULT:      -8.7      6.814      9.464
REMARK  5 active torsions:
REMARK  status: ('A' for Active; 'I' for Inactive)
REMARK    1  A    between atoms: C_3  and  O_4 
REMARK    2  A    between atoms: C_6  and  N_7 
REMARK       I    between atoms: N_7  and  C_8 
REMARK    3  A    between atoms: C_8  and  C_9 
REMARK    4  A    between atoms: C_14  and  C_15 
REMARK    5  A    between atoms: C_23  and  C_24 
ROOT
HETATM    1  C   UNL     1      43.542 -11.392   6.177  1.00  0.00     0.148 A 
HETATM    2  N   UNL     1      43.101 -10.115   6.264  1.00  0.00    -0.165 NA
HETATM    3  N   UNL     1      43.556  -9.709   7.465  1.00  0.00    -0.240 N 
HETATM    4  C   UNL     1      44.303 -10.644   8.122  1.00  0.00     0.123 A 
HETATM    5  N   UNL     1      44.879 -10.386   9.315  1.00  0.00    -0.366 N 
HETATM    6  C   UNL     1      44.725  -9.114  10.008  1.00  0.00     0.118 C 
HETATM    7  C   UNL     1      44.361  -7.988   9.021  1.00  0.00     0.066 C 
HETATM    8  C   UNL     1      43.311  -8.369   7.961  1.00  0.00     0.221 C 
HETATM    9  C   UNL     1      44.301 -11.756   7.323  1.00  0.00     0.089 A 
HETATM   10  H   UNL     1      45.359 -11.118   9.837  1.00  0.00     0.161 HD
ENDROOT
BRANCH   1  11
HETATM   11  C   UNL     1      43.242 -12.248   5.014  1.00  0.00     0.276 C 
HETATM   12  N   UNL     1      42.541 -13.380   5.379  1.00  0.00    -0.322 N 
HETATM   13  H   UNL     1      42.360 -13.436   6.378  1.00  0.00     0.169 HD
HETATM   14  O   UNL     1      43.610 -11.940   3.886  1.00  0.00    -0.266 OA
BRANCH  12  15
HETATM   15  C   UNL     1      42.088 -14.430   4.562  1.00  0.00     0.037 A 
HETATM   16  C   UNL     1      40.835 -14.457   3.948  1.00  0.00     0.066 A 
HETATM   17  C   UNL     1      40.473 -15.543   3.152  1.00  0.00     0.067 A 
HETATM   18  C   UNL     1      41.342 -16.611   2.952  1.00  0.00     0.036 A 
HETATM   19  C   UNL     1      42.594 -16.591   3.564  1.00  0.00     0.005 A 
HETATM   20  C   UNL     1      42.963 -15.506   4.365  1.00  0.00     0.029 A 
BRANCH  17  21
HETATM   21  O   UNL     1      39.236 -15.525   2.576  1.00  0.00    -0.361 OA
HETATM   22  H   UNL     1      39.297 -15.918   1.691  1.00  0.00     0.217 HD
ENDBRANCH  17  21
ENDBRANCH  12  15
ENDBRANCH   1  11
BRANCH   8  23
HETATM   23  C   UNL     1      41.881  -8.239   8.433  1.00  0.00     0.409 C 
HETATM   24  F   UNL     1      41.011  -7.914   7.460  1.00  0.00    -0.169 F 
HETATM   25  F   UNL     1      41.459  -9.413   8.972  1.00  0.00    -0.169 F 
HETATM   26  F   UNL     1      41.759  -7.312   9.412  1.00  0.00    -0.169 F 
ENDBRANCH   8  23
BRANCH   6  27
HETATM   27  C   UNL     1      43.822  -9.213  11.227  1.00  0.00    -0.035 A 
HETATM   28  C   UNL     1      43.607  -8.062  12.012  1.00  0.00     0.012 A 
HETATM   29  C   UNL     1      42.803  -8.110  13.153  1.00  0.00     0.043 A 
HETATM   30  C   UNL     1      42.206  -9.308  13.520  1.00  0.00     0.116 A 
HETATM   31  F   UNL     1      41.434  -9.354  14.613  1.00  0.00    -0.206 F 
HETATM   32  C   UNL     1      42.401 -10.459  12.769  1.00  0.00     0.043 A 
HETATM   33  C   UNL     1      43.211 -10.413  11.632  1.00  0.00     0.012 A 
ENDBRANCH   6  27
TORSDOF 5
ENDMDL
MODEL 4
REMARK VINA RESULT:      -8.6      3.969      9.331
REMARK  5 active torsions:
REMARK  status: ('A' for Active; 'I' for Inactive)
REMARK    1  A    between atoms: C_3  and  O_4 
REMARK    2  A    between atoms: C_6  and  N_7 
REMARK       I    between atoms: N_7  and  C_8 
REMARK    3  A    between atoms: C_8  and  C_9 
REMARK    4  A    between atoms: C_14  and  C_15 
REMARK    5  A    between atoms: C_23  and  C_24 
ROOT
HETATM    1  C   UNL     1      40.862 -14.656   1.300  1.00  0.00     0.148 A 
HETATM    2  N   UNL     1      40.723 -14.920  -0.021  1.00  0.00    -0.165 NA
HETATM    3  N   UNL     1      40.441 -13.716  -0.553  1.00  0.00    -0.240 N 
HETATM    4  C   UNL     1      40.442 -12.693   0.353  1.00  0.00     0.123 A 
HETATM    5  N   UNL     1      40.230 -11.413  -0.016  1.00  0.00    -0.366 N 
HETATM    6  C   UNL     1      39.950 -11.025  -1.393  1.00  0.00     0.118 C 
HETATM    7  C   UNL     1      40.482 -12.079  -2.383  1.00  0.00     0.066 C 
HETATM    8  C   UNL     1      40.222 -13.541  -1.975  1.00  0.00     0.221 C 
HETATM    9  C   UNL     1      40.695 -13.269   1.569  1.00  0.00     0.089 A 
HETATM   10  H   UNL     1      40.144 -10.672   0.677  1.00  0.00     0.161 HD
ENDROOT
BRANCH   1  11
HETATM   11  C   UNL     1      41.152 -15.714   2.286  1.00  0.00     0.276 C 
HETATM   12  N   UNL     1      42.363 -16.329   2.035  1.00  0.00    -0.322 N 
HETATM   13  H   UNL     1      42.840 -15.958   1.217  1.00  0.00     0.169 HD
HETATM   14  O   UNL     1      40.365 -15.975   3.188  1.00  0.00    -0.266 OA
BRANCH  12  15
HETATM   15  C   UNL     1      42.973 -17.379   2.741  1.00  0.00     0.037 A 
HETATM   16  C   UNL     1      43.086 -18.683   2.258  1.00  0.00     0.066 A 
HETATM   17  C   UNL     1      43.710 -19.661   3.032  1.00  0.00     0.067 A 
HETATM   18  C   UNL     1      44.232 -19.362   4.287  1.00  0.00     0.036 A 
HETATM   19  C   UNL     1      44.121 -18.062   4.776  1.00  0.00     0.005 A 
HETATM   20  C   UNL     1      43.494 -17.077   4.007  1.00  0.00     0.029 A 
BRANCH  17  21
HETATM   21  O   UNL     1      43.793 -20.922   2.517  1.00  0.00    -0.361 OA
HETATM   22  H   UNL     1      42.926 -21.349   2.593  1.00  0.00     0.217 HD
ENDBRANCH  17  21
ENDBRANCH  12  15
ENDBRANCH   1  11
BRANCH   8  23
HETATM   23  C   UNL     1      38.856 -14.058  -2.361  1.00  0.00     0.409 C 
HETATM   24  F   UNL     1      37.863 -13.633  -1.559  1.00  0.00    -0.169 F 
HETATM   25  F   UNL     1      38.547 -13.662  -3.624  1.00  0.00    -0.169 F 
HETATM   26  F   UNL     1      38.816 -15.411  -2.371  1.00  0.00    -0.169 F 
ENDBRANCH   8  23
BRANCH   6  27
HETATM   27  C   UNL     1      38.502 -10.619  -1.608  1.00  0.00    -0.035 A 
HETATM   28  C   UNL     1      37.678 -10.411  -0.483  1.00  0.00     0.012 A 
HETATM   29  C   UNL     1      36.334 -10.057  -0.632  1.00  0.00     0.043 A 
HETATM   30  C   UNL     1      35.803  -9.907  -1.905  1.00  0.00     0.116 A 
HETATM   31  F   UNL     1      34.515  -9.566  -2.046  1.00  0.00    -0.206 F 
HETATM   32  C   UNL     1      36.588 -10.107  -3.031  1.00  0.00     0.043 A 
HETATM   33  C   UNL     1      37.929 -10.468  -2.883  1.00  0.00     0.012 A 
ENDBRANCH   6  27
TORSDOF 5
ENDMDL
MODEL 5
REMARK VINA RESULT:      -8.6     15.745     18.899
REMARK  5 active torsions:
REMARK  status: ('A' for Active; 'I' for Inactive)
REMARK    1  A    between atoms: C_3  and  O_4 
REMARK    2  A    between atoms: C_6  and  N_7 
REMARK       I    between atoms: N_7  and  C_8 
REMARK    3  A    between atoms: C_8  and  C_9 
REMARK    4  A    between atoms: C_14  and  C_15 
REMARK    5  A    between atoms: C_23  and  C_24 
ROOT
HETATM    1  C   UNL     1      47.498 -29.702   2.763  1.00  0.00     0.148 A 
HETATM    2  N   UNL     1      48.339 -29.348   1.762  1.00  0.00    -0.165 NA
HETATM    3  N   UNL     1      47.508 -28.919   0.793  1.00  0.00    -0.240 N 
HETATM    4  C   UNL     1      46.188 -28.937   1.144  1.00  0.00     0.123 A 
HETATM    5  N   UNL     1      45.223 -28.493   0.311  1.00  0.00    -0.366 N 
HETATM    6  C   UNL     1      45.505 -27.995  -1.029  1.00  0.00     0.118 C 
HETATM    7  C   UNL     1      46.963 -27.511  -1.143  1.00  0.00     0.066 C 
HETATM    8  C   UNL     1      48.005 -28.429  -0.477  1.00  0.00     0.221 C 
HETATM    9  C   UNL     1      46.143 -29.456   2.410  1.00  0.00     0.089 A 
HETATM   10  H   UNL     1      44.238 -28.593   0.546  1.00  0.00     0.161 HD
ENDROOT
BRANCH   1  11
HETATM   11  C   UNL     1      47.986 -30.266   4.035  1.00  0.00     0.276 C 
HETATM   12  N   UNL     1      49.278 -30.743   3.922  1.00  0.00    -0.322 N 
HETATM   13  H   UNL     1      49.665 -30.634   2.988  1.00  0.00     0.169 HD
HETATM   14  O   UNL     1      47.277 -30.289   5.034  1.00  0.00    -0.266 OA
BRANCH  12  15
HETATM   15  C   UNL     1      50.073 -31.355   4.905  1.00  0.00     0.037 A 
HETATM   16  C   UNL     1      51.351 -30.920   5.258  1.00  0.00     0.066 A 
HETATM   17  C   UNL     1      52.067 -31.592   6.248  1.00  0.00     0.067 A 
HETATM   18  C   UNL     1      51.529 -32.697   6.901  1.00  0.00     0.036 A 
HETATM   19  C   UNL     1      50.254 -33.137   6.553  1.00  0.00     0.005 A 
HETATM   20  C   UNL     1      49.531 -32.470   5.558  1.00  0.00     0.029 A 
BRANCH  17  21
HETATM   21  O   UNL     1      53.314 -31.131   6.555  1.00  0.00    -0.361 OA
HETATM   22  H   UNL     1      53.942 -31.466   5.898  1.00  0.00     0.217 HD
ENDBRANCH  17  21
ENDBRANCH  12  15
ENDBRANCH   1  11
BRANCH   8  23
HETATM   23  C   UNL     1      48.457 -29.582  -1.342  1.00  0.00     0.409 C 
HETATM   24  F   UNL     1      47.799 -30.732  -1.109  1.00  0.00    -0.169 F 
HETATM   25  F   UNL     1      48.281 -29.278  -2.654  1.00  0.00    -0.169 F 
HETATM   26  F   UNL     1      49.779 -29.835  -1.190  1.00  0.00    -0.169 F 
ENDBRANCH   8  23
BRANCH   6  27
HETATM   27  C   UNL     1      45.062 -28.957  -2.119  1.00  0.00    -0.035 A 
HETATM   28  C   UNL     1      45.137 -28.544  -3.465  1.00  0.00     0.012 A 
HETATM   29  C   UNL     1      44.721 -29.385  -4.500  1.00  0.00     0.043 A 
HETATM   30  C   UNL     1      44.227 -30.647  -4.199  1.00  0.00     0.116 A 
HETATM   31  F   UNL     1      43.830 -31.454  -5.192  1.00  0.00    -0.206 F 
HETATM   32  C   UNL     1      44.138 -31.082  -2.884  1.00  0.00     0.043 A 
HETATM   33  C   UNL     1      44.548 -30.237  -1.849  1.00  0.00     0.012 A 
ENDBRANCH   6  27
TORSDOF 5
ENDMDL
MODEL 6
REMARK VINA RESULT:      -8.4      2.867      4.491
REMARK  5 active torsions:
REMARK  status: ('A' for Active; 'I' for Inactive)
REMARK    1  A    between atoms: C_3  and  O_4 
REMARK    2  A    between atoms: C_6  and  N_7 
REMARK       I    between atoms: N_7  and  C_8 
REMARK    3  A    between atoms: C_8  and  C_9 
REMARK    4  A    between atoms: C_14  and  C_15 
REMARK    5  A    between atoms: C_23  and  C_24 
ROOT
HETATM    1  C   UNL     1      39.891 -13.570   0.197  1.00  0.00     0.148 A 
HETATM    2  N   UNL     1      40.698 -14.645   0.360  1.00  0.00    -0.165 NA
HETATM    3  N   UNL     1      40.787 -14.769   1.698  1.00  0.00    -0.240 N 
HETATM    4  C   UNL     1      40.040 -13.859   2.392  1.00  0.00     0.123 A 
HETATM    5  N   UNL     1      39.973 -13.872   3.739  1.00  0.00    -0.366 N 
HETATM    6  C   UNL     1      40.711 -14.826   4.558  1.00  0.00     0.118 C 
HETATM    7  C   UNL     1      41.065 -16.089   3.750  1.00  0.00     0.066 C 
HETATM    8  C   UNL     1      41.565 -15.823   2.318  1.00  0.00     0.221 C 
HETATM    9  C   UNL     1      39.458 -13.055   1.450  1.00  0.00     0.089 A 
HETATM   10  H   UNL     1      39.486 -13.137   4.250  1.00  0.00     0.161 HD
ENDROOT
BRANCH   1  11
HETATM   11  C   UNL     1      39.540 -13.048  -1.137  1.00  0.00     0.276 C 
HETATM   12  N   UNL     1      39.739 -11.684  -1.221  1.00  0.00    -0.322 N 
HETATM   13  H   UNL     1      40.081 -11.274  -0.357  1.00  0.00     0.169 HD
HETATM   14  O   UNL     1      39.116 -13.788  -2.017  1.00  0.00    -0.266 OA
BRANCH  12  15
HETATM   15  C   UNL     1      39.510 -10.833  -2.316  1.00  0.00     0.037 A 
HETATM   16  C   UNL     1      40.522 -10.282  -3.102  1.00  0.00     0.066 A 
HETATM   17  C   UNL     1      40.197  -9.446  -4.170  1.00  0.00     0.067 A 
HETATM   18  C   UNL     1      38.873  -9.150  -4.476  1.00  0.00     0.036 A 
HETATM   19  C   UNL     1      37.857  -9.696  -3.694  1.00  0.00     0.005 A 
HETATM   20  C   UNL     1      38.175 -10.532  -2.619  1.00  0.00     0.029 A 
BRANCH  17  21
HETATM   21  O   UNL     1      41.223  -8.929  -4.907  1.00  0.00    -0.361 OA
HETATM   22  H   UNL     1      41.514  -9.595  -5.549  1.00  0.00     0.217 HD
ENDBRANCH  17  21
ENDBRANCH  12  15
ENDBRANCH   1  11
BRANCH   8  23
HETATM   23  C   UNL     1      43.040 -15.508   2.226  1.00  0.00     0.409 C 
HETATM   24  F   UNL     1      43.322 -14.193   2.256  1.00  0.00    -0.169 F 
HETATM   25  F   UNL     1      43.706 -16.085   3.260  1.00  0.00    -0.169 F 
HETATM   26  F   UNL     1      43.591 -16.013   1.096  1.00  0.00    -0.169 F 
ENDBRANCH   8  23
BRANCH   6  27
HETATM   27  C   UNL     1      41.877 -14.189   5.296  1.00  0.00    -0.035 A 
HETATM   28  C   UNL     1      42.149 -12.822   5.091  1.00  0.00     0.012 A 
HETATM   29  C   UNL     1      43.223 -12.198   5.731  1.00  0.00     0.043 A 
HETATM   30  C   UNL     1      44.034 -12.936   6.582  1.00  0.00     0.116 A 
HETATM   31  F   UNL     1      45.063 -12.337   7.197  1.00  0.00    -0.206 F 
HETATM   32  C   UNL     1      43.793 -14.284   6.803  1.00  0.00     0.043 A 
HETATM   33  C   UNL     1      42.723 -14.909   6.157  1.00  0.00     0.012 A 
ENDBRANCH   6  27
TORSDOF 5
ENDMDL
MODEL 7
REMARK VINA RESULT:      -8.1      3.310      4.392
REMARK  5 active torsions:
REMARK  status: ('A' for Active; 'I' for Inactive)
REMARK    1  A    between atoms: C_3  and  O_4 
REMARK    2  A    between atoms: C_6  and  N_7 
REMARK       I    between atoms: N_7  and  C_8 
REMARK    3  A    between atoms: C_8  and  C_9 
REMARK    4  A    between atoms: C_14  and  C_15 
REMARK    5  A    between atoms: C_23  and  C_24 
ROOT
HETATM    1  C   UNL     1      41.037 -12.108   1.714  1.00  0.00     0.148 A 
HETATM    2  N   UNL     1      41.640 -13.216   1.224  1.00  0.00    -0.165 NA
HETATM    3  N   UNL     1      41.367 -14.156   2.149  1.00  0.00    -0.240 N 
HETATM    4  C   UNL     1      40.580 -13.714   3.175  1.00  0.00     0.123 A 
HETATM    5  N   UNL     1      40.167 -14.536   4.161  1.00  0.00    -0.366 N 
HETATM    6  C   UNL     1      40.551 -15.941   4.231  1.00  0.00     0.118 C 
HETATM    7  C   UNL     1      40.948 -16.474   2.841  1.00  0.00     0.066 C 
HETATM    8  C   UNL     1      41.827 -15.523   2.009  1.00  0.00     0.221 C 
HETATM    9  C   UNL     1      40.360 -12.384   2.934  1.00  0.00     0.089 A 
HETATM   10  H   UNL     1      39.657 -14.178   4.967  1.00  0.00     0.161 HD
ENDROOT
BRANCH   1  11
HETATM   11  C   UNL     1      41.105 -10.807   1.022  1.00  0.00     0.276 C 
HETATM   12  N   UNL     1      41.372 -10.956  -0.325  1.00  0.00    -0.322 N 
HETATM   13  H   UNL     1      41.484 -11.927  -0.607  1.00  0.00     0.169 HD
HETATM   14  O   UNL     1      40.948  -9.754   1.631  1.00  0.00    -0.266 OA
BRANCH  12  15
HETATM   15  C   UNL     1      41.522  -9.959  -1.302  1.00  0.00     0.037 A 
HETATM   16  C   UNL     1      42.414  -8.891  -1.199  1.00  0.00     0.066 A 
HETATM   17  C   UNL     1      42.493  -7.948  -2.223  1.00  0.00     0.067 A 
HETATM   18  C   UNL     1      41.697  -8.050  -3.359  1.00  0.00     0.036 A 
HETATM   19  C   UNL     1      40.804  -9.114  -3.469  1.00  0.00     0.005 A 
HETATM   20  C   UNL     1      40.716 -10.062  -2.445  1.00  0.00     0.029 A 
BRANCH  17  21
HETATM   21  O   UNL     1      43.378  -6.920  -2.074  1.00  0.00    -0.361 OA
HETATM   22  H   UNL     1      42.981  -6.246  -1.501  1.00  0.00     0.217 HD
ENDBRANCH  17  21
ENDBRANCH  12  15
ENDBRANCH   1  11
BRANCH   8  23
HETATM   23  C   UNL     1      43.303 -15.612   2.321  1.00  0.00     0.409 C 
HETATM   24  F   UNL     1      43.675 -14.917   3.411  1.00  0.00    -0.169 F 
HETATM   25  F   UNL     1      43.658 -16.906   2.530  1.00  0.00    -0.169 F 
HETATM   26  F   UNL     1      44.061 -15.177   1.287  1.00  0.00    -0.169 F 
ENDBRANCH   8  23
BRANCH   6  27
HETATM   27  C   UNL     1      41.555 -16.223   5.336  1.00  0.00    -0.035 A 
HETATM   28  C   UNL     1      41.676 -15.304   6.398  1.00  0.00     0.012 A 
HETATM   29  C   UNL     1      42.600 -15.510   7.426  1.00  0.00     0.043 A 
HETATM   30  C   UNL     1      43.411 -16.636   7.401  1.00  0.00     0.116 A 
HETATM   31  F   UNL     1      44.296 -16.834   8.387  1.00  0.00    -0.206 F 
HETATM   32  C   UNL     1      43.317 -17.558   6.368  1.00  0.00     0.043 A 
HETATM   33  C   UNL     1      42.398 -17.348   5.336  1.00  0.00     0.012 A 
ENDBRANCH   6  27
TORSDOF 5
ENDMDL
MODEL 8
REMARK VINA RESULT:      -8.1      2.879      4.114
REMARK  5 active torsions:
REMARK  status: ('A' for Active; 'I' for Inactive)
REMARK    1  A    between atoms: C_3  and  O_4 
REMARK    2  A    between atoms: C_6  and  N_7 
REMARK       I    between atoms: N_7  and  C_8 
REMARK    3  A    between atoms: C_8  and  C_9 
REMARK    4  A    between atoms: C_14  and  C_15 
REMARK    5  A    between atoms: C_23  and  C_24 
ROOT
HETATM    1  C   UNL     1      40.465 -12.335   0.668  1.00  0.00     0.148 A 
HETATM    2  N   UNL     1      41.414 -13.284   0.485  1.00  0.00    -0.165 NA
HETATM    3  N   UNL     1      41.175 -14.161   1.478  1.00  0.00    -0.240 N 
HETATM    4  C   UNL     1      40.095 -13.844   2.253  1.00  0.00     0.123 A 
HETATM    5  N   UNL     1      39.683 -14.640   3.261  1.00  0.00    -0.366 N 
HETATM    6  C   UNL     1      40.369 -15.873   3.624  1.00  0.00     0.118 C 
HETATM    7  C   UNL     1      41.185 -16.421   2.438  1.00  0.00     0.066 C 
HETATM    8  C   UNL     1      41.972 -15.360   1.647  1.00  0.00     0.221 C 
HETATM    9  C   UNL     1      39.620 -12.656   1.766  1.00  0.00     0.089 A 
HETATM   10  H   UNL     1      38.933 -14.352   3.888  1.00  0.00     0.161 HD
ENDROOT
BRANCH   1  11
HETATM   11  C   UNL     1      40.370 -11.144  -0.195  1.00  0.00     0.276 C 
HETATM   12  N   UNL     1      39.919 -11.463  -1.461  1.00  0.00    -0.322 N 
HETATM   13  H   UNL     1      39.740 -12.456  -1.584  1.00  0.00     0.169 HD
HETATM   14  O   UNL     1      40.682 -10.033   0.218  1.00  0.00    -0.266 OA
BRANCH  12  15
HETATM   15  C   UNL     1      39.711 -10.609  -2.557  1.00  0.00     0.037 A 
HETATM   16  C   UNL     1      40.737  -9.990  -3.271  1.00  0.00     0.066 A 
HETATM   17  C   UNL     1      40.433  -9.157  -4.347  1.00  0.00     0.067 A 
HETATM   18  C   UNL     1      39.115  -8.929  -4.731  1.00  0.00     0.036 A 
HETATM   19  C   UNL     1      38.085  -9.544  -4.022  1.00  0.00     0.005 A 
HETATM   20  C   UNL     1      38.383 -10.378  -2.939  1.00  0.00     0.029 A 
BRANCH  17  21
HETATM   21  O   UNL     1      41.471  -8.572  -5.012  1.00  0.00    -0.361 OA
HETATM   22  H   UNL     1      42.237  -8.527  -4.419  1.00  0.00     0.217 HD
ENDBRANCH  17  21
ENDBRANCH  12  15
ENDBRANCH   1  11
BRANCH   8  23
HETATM   23  C   UNL     1      43.317 -15.014   2.244  1.00  0.00     0.409 C 
HETATM   24  F   UNL     1      43.312 -13.895   2.992  1.00  0.00    -0.169 F 
HETATM   25  F   UNL     1      43.748 -16.026   3.040  1.00  0.00    -0.169 F 
HETATM   26  F   UNL     1      44.264 -14.857   1.289  1.00  0.00    -0.169 F 
ENDBRANCH   8  23
BRANCH   6  27
HETATM   27  C   UNL     1      41.137 -15.757   4.931  1.00  0.00    -0.035 A 
HETATM   28  C   UNL     1      41.737 -16.910   5.474  1.00  0.00     0.012 A 
HETATM   29  C   UNL     1      42.435 -16.856   6.684  1.00  0.00     0.043 A 
HETATM   30  C   UNL     1      42.539 -15.649   7.360  1.00  0.00     0.116 A 
HETATM   31  F   UNL     1      43.208 -15.597   8.519  1.00  0.00    -0.206 F 
HETATM   32  C   UNL     1      41.956 -14.496   6.852  1.00  0.00     0.043 A 
HETATM   33  C   UNL     1      41.252 -14.552   5.646  1.00  0.00     0.012 A 
ENDBRANCH   6  27
TORSDOF 5
ENDMDL
MODEL 9
REMARK VINA RESULT:      -7.9     15.783     17.330
REMARK  5 active torsions:
REMARK  status: ('A' for Active; 'I' for Inactive)
REMARK    1  A    between atoms: C_3  and  O_4 
REMARK    2  A    between atoms: C_6  and  N_7 
REMARK       I    between atoms: N_7  and  C_8 
REMARK    3  A    between atoms: C_8  and  C_9 
REMARK    4  A    between atoms: C_14  and  C_15 
REMARK    5  A    between atoms: C_23  and  C_24 
ROOT
HETATM    1  C   UNL     1      45.982 -29.111  -2.264  1.00  0.00     0.148 A 
HETATM    2  N   UNL     1      45.286 -29.687  -1.256  1.00  0.00    -0.165 NA
HETATM    3  N   UNL     1      45.973 -29.328  -0.155  1.00  0.00    -0.240 N 
HETATM    4  C   UNL     1      47.041 -28.514  -0.407  1.00  0.00     0.123 A 
HETATM    5  N   UNL     1      47.809 -28.019   0.585  1.00  0.00    -0.366 N 
HETATM    6  C   UNL     1      47.585 -28.336   1.990  1.00  0.00     0.118 C 
HETATM    7  C   UNL     1      46.129 -28.774   2.232  1.00  0.00     0.066 C 
HETATM    8  C   UNL     1      45.556 -29.733   1.172  1.00  0.00     0.221 C 
HETATM    9  C   UNL     1      47.087 -28.366  -1.767  1.00  0.00     0.089 A 
HETATM   10  H   UNL     1      48.654 -27.488   0.383  1.00  0.00     0.161 HD
ENDROOT
BRANCH   1  11
HETATM   11  C   UNL     1      45.594 -29.270  -3.677  1.00  0.00     0.276 C 
HETATM   12  N   UNL     1      45.734 -30.577  -4.102  1.00  0.00    -0.322 N 
HETATM   13  H   UNL     1      46.086 -31.199  -3.380  1.00  0.00     0.169 HD
HETATM   14  O   UNL     1      45.213 -28.315  -4.344  1.00  0.00    -0.266 OA
BRANCH  12  15
HETATM   15  C   UNL     1      45.476 -31.115  -5.374  1.00  0.00     0.037 A 
HETATM   16  C   UNL     1      44.248 -31.019  -6.029  1.00  0.00     0.066 A 
HETATM   17  C   UNL     1      44.087 -31.585  -7.293  1.00  0.00     0.067 A 
HETATM   18  C   UNL     1      45.134 -32.248  -7.925  1.00  0.00     0.036 A 
HETATM   19  C   UNL     1      46.363 -32.349  -7.276  1.00  0.00     0.005 A 
HETATM   20  C   UNL     1      46.532 -31.786  -6.007  1.00  0.00     0.029 A 
BRANCH  17  21
HETATM   21  O   UNL     1      42.866 -31.468  -7.891  1.00  0.00    -0.361 OA
HETATM   22  H   UNL     1      42.454 -30.639  -7.603  1.00  0.00     0.217 HD
ENDBRANCH  17  21
ENDBRANCH  12  15
ENDBRANCH   1  11
BRANCH   8  23
HETATM   23  C   UNL     1      45.895 -31.188   1.406  1.00  0.00     0.409 C 
HETATM   24  F   UNL     1      44.923 -32.042   1.040  1.00  0.00    -0.169 F 
HETATM   25  F   UNL     1      47.010 -31.525   0.707  1.00  0.00    -0.169 F 
HETATM   26  F   UNL     1      46.180 -31.433   2.707  1.00  0.00    -0.169 F 
ENDBRANCH   8  23
BRANCH   6  27
HETATM   27  C   UNL     1      48.639 -29.273   2.557  1.00  0.00    -0.035 A 
HETATM   28  C   UNL     1      48.676 -29.495   3.949  1.00  0.00     0.012 A 
HETATM   29  C   UNL     1      49.640 -30.331   4.518  1.00  0.00     0.043 A 
HETATM   30  C   UNL     1      50.575 -30.953   3.702  1.00  0.00     0.116 A 
HETATM   31  F   UNL     1      51.498 -31.755   4.248  1.00  0.00    -0.206 F 
HETATM   32  C   UNL     1      50.566 -30.752   2.329  1.00  0.00     0.043 A 
HETATM   33  C   UNL     1      49.606 -29.910   1.760  1.00  0.00     0.012 A 
ENDBRANCH   6  27
TORSDOF 5
ENDMDL
MODEL 10
REMARK VINA RESULT:      -7.9      4.902      8.576
REMARK  5 active torsions:
REMARK  status: ('A' for Active; 'I' for Inactive)
REMARK    1  A    between atoms: C_3  and  O_4 
REMARK    2  A    between atoms: C_6  and  N_7 
REMARK       I    between atoms: N_7  and  C_8 
REMARK    3  A    between atoms: C_8  and  C_9 
REMARK    4  A    between atoms: C_14  and  C_15 
REMARK    5  A    between atoms: C_23  and  C_24 
ROOT
HETATM    1  C   UNL     1      43.171 -12.215   4.362  1.00  0.00     0.148 A 
HETATM    2  N   UNL     1      41.863 -12.503   4.557  1.00  0.00    -0.165 NA
HETATM    3  N   UNL     1      41.512 -13.146   3.427  1.00  0.00    -0.240 N 
HETATM    4  C   UNL     1      42.541 -13.323   2.546  1.00  0.00     0.123 A 
HETATM    5  N   UNL     1      42.378 -13.992   1.385  1.00  0.00    -0.366 N 
HETATM    6  C   UNL     1      41.096 -14.545   0.966  1.00  0.00     0.118 C 
HETATM    7  C   UNL     1      40.174 -14.782   2.177  1.00  0.00     0.066 C 
HETATM    8  C   UNL     1      40.169 -13.649   3.219  1.00  0.00     0.221 C 
HETATM    9  C   UNL     1      43.630 -12.717   3.112  1.00  0.00     0.089 A 
HETATM   10  H   UNL     1      43.126 -14.042   0.696  1.00  0.00     0.161 HD
ENDROOT
BRANCH   1  11
HETATM   11  C   UNL     1      43.968 -11.473   5.356  1.00  0.00     0.276 C 
HETATM   12  N   UNL     1      43.209 -11.110   6.452  1.00  0.00    -0.322 N 
HETATM   13  H   UNL     1      42.239 -11.405   6.384  1.00  0.00     0.169 HD
HETATM   14  O   UNL     1      45.154 -11.229   5.167  1.00  0.00    -0.266 OA
BRANCH  12  15
HETATM   15  C   UNL     1      43.607 -10.391   7.592  1.00  0.00     0.037 A 
HETATM   16  C   UNL     1      44.336 -10.941   8.647  1.00  0.00     0.066 A 
HETATM   17  C   UNL     1      44.686 -10.147   9.739  1.00  0.00     0.067 A 
HETATM   18  C   UNL     1      44.325  -8.804   9.799  1.00  0.00     0.036 A 
HETATM   19  C   UNL     1      43.597  -8.250   8.749  1.00  0.00     0.005 A 
HETATM   20  C   UNL     1      43.239  -9.040   7.652  1.00  0.00     0.029 A 
BRANCH  17  21
HETATM   21  O   UNL     1      45.396 -10.730  10.748  1.00  0.00    -0.361 OA
HETATM   22  H   UNL     1      44.797 -11.285  11.272  1.00  0.00     0.217 HD
ENDBRANCH  17  21
ENDBRANCH  12  15
ENDBRANCH   1  11
BRANCH   8  23
HETATM   23  C   UNL     1      39.229 -12.512   2.892  1.00  0.00     0.409 C 
HETATM   24  F   UNL     1      38.175 -12.872   2.139  1.00  0.00    -0.169 F 
HETATM   25  F   UNL     1      38.737 -11.968   4.036  1.00  0.00    -0.169 F 
HETATM   26  F   UNL     1      39.865 -11.508   2.243  1.00  0.00    -0.169 F 
ENDBRANCH   8  23
BRANCH   6  27
HETATM   27  C   UNL     1      40.466 -13.766  -0.177  1.00  0.00    -0.035 A 
HETATM   28  C   UNL     1      39.437 -14.371  -0.928  1.00  0.00     0.012 A 
HETATM   29  C   UNL     1      38.842 -13.702  -2.001  1.00  0.00     0.043 A 
HETATM   30  C   UNL     1      39.269 -12.424  -2.332  1.00  0.00     0.116 A 
HETATM   31  F   UNL     1      38.697 -11.783  -3.360  1.00  0.00    -0.206 F 
HETATM   32  C   UNL     1      40.281 -11.803  -1.614  1.00  0.00     0.043 A 
HETATM   33  C   UNL     1      40.881 -12.475  -0.545  1.00  0.00     0.012 A 
ENDBRANCH   6  27
TORSDOF 5
ENDMDL
