MODEL 1
REMARK VINA RESULT:      -7.0      0.000      0.000
REMARK  5 active torsions:
REMARK  status: ('A' for Active; 'I' for Inactive)
REMARK    1  A    between atoms: C_8  and  C_9 
REMARK    2  A    between atoms: C_11  and  O_12 
REMARK    3  A    between atoms: C_14  and  O_15 
REMARK    4  A    between atoms: C_18  and  C_19 
REMARK    5  A    between atoms: C_22  and  O_23 
ROOT
HETATM    1  C   UNL     1      43.778 -18.030   1.842  1.00  0.00     0.070 C 
HETATM    2  C   UNL     1      43.684 -18.188   3.312  1.00  0.00     0.033 A 
HETATM    3  N   UNL     1      43.868 -19.402   3.918  1.00  0.00    -0.282 N 
HETATM    4  H   UNL     1      44.065 -20.296   3.480  1.00  0.00     0.189 HD
HETATM    5  N   UNL     1      43.786 -19.361   5.256  1.00  0.00    -0.179 NA
HETATM    6  C   UNL     1      43.568 -18.071   5.515  1.00  0.00     0.066 A 
HETATM    7  C   UNL     1      43.426 -17.295   4.338  1.00  0.00     0.001 A 
HETATM    8  C   UNL     1      43.157 -15.819   4.377  1.00  0.00     0.070 C 
HETATM    9  C   UNL     1      42.690 -15.364   5.788  1.00  0.00     0.102 C 
HETATM   10  C   UNL     1      43.557 -15.983   6.928  1.00  0.00     0.071 C 
HETATM   11  C   UNL     1      43.113 -15.499   8.316  1.00  0.00     0.047 C 
HETATM   12  C   UNL     1      43.470 -17.536   6.902  1.00  0.00     0.100 C 
ENDROOT
BRANCH   8  13
HETATM   13  C   UNL     1      42.114 -15.543   3.298  1.00  0.00    -0.046 A 
HETATM   14  C   UNL     1      42.335 -14.496   2.379  1.00  0.00     0.047 A 
HETATM   15  C   UNL     1      41.405 -14.220   1.376  1.00  0.00     0.101 A 
HETATM   16  C   UNL     1      40.222 -14.963   1.326  1.00  0.00     0.099 A 
HETATM   17  C   UNL     1      39.980 -15.998   2.216  1.00  0.00     0.040 A 
HETATM   18  C   UNL     1      40.928 -16.296   3.194  1.00  0.00     0.011 A 
BRANCH  15  19
HETATM   19  O   UNL     1      41.529 -13.250   0.415  1.00  0.00    -0.353 OA
HETATM   20  C   UNL     1      41.204 -11.927   0.831  1.00  0.00     0.210 C 
ENDBRANCH  15  19
BRANCH  16  21
HETATM   21  O   UNL     1      39.279 -14.694   0.373  1.00  0.00    -0.358 OA
HETATM   22  H   UNL     1      39.682 -14.980  -0.470  1.00  0.00     0.218 HD
ENDBRANCH  16  21
ENDBRANCH   8  13
BRANCH   9  23
HETATM   23  C   UNL     1      42.735 -13.843   5.842  1.00  0.00     0.131 C 
HETATM   24  C   UNL     1      41.427 -13.108   5.972  1.00  0.00     0.091 C 
HETATM   25  O   UNL     1      43.805 -13.234   5.767  1.00  0.00    -0.298 OA
ENDBRANCH   9  23
BRANCH  10  26
HETATM   26  O   UNL     1      44.936 -15.611   6.771  1.00  0.00    -0.389 OA
HETATM   27  H   UNL     1      45.013 -14.652   6.966  1.00  0.00     0.210 HD
ENDBRANCH  10  26
TORSDOF 5
ENDMDL
MODEL 2
REMARK VINA RESULT:      -7.0      4.116      6.223
REMARK  5 active torsions:
REMARK  status: ('A' for Active; 'I' for Inactive)
REMARK    1  A    between atoms: C_8  and  C_9 
REMARK    2  A    between atoms: C_11  and  O_12 
REMARK    3  A    between atoms: C_14  and  O_15 
REMARK    4  A    between atoms: C_18  and  C_19 
REMARK    5  A    between atoms: C_22  and  O_23 
ROOT
HETATM    1  C   UNL     1      37.365 -11.411   0.525  1.00  0.00     0.070 C 
HETATM    2  C   UNL     1      38.157 -11.338   1.775  1.00  0.00     0.033 A 
HETATM    3  N   UNL     1      37.923 -10.373   2.719  1.00  0.00    -0.282 N 
HETATM    4  H   UNL     1      37.240  -9.624   2.691  1.00  0.00     0.189 HD
HETATM    5  N   UNL     1      38.703 -10.475   3.805  1.00  0.00    -0.179 NA
HETATM    6  C   UNL     1      39.441 -11.558   3.558  1.00  0.00     0.066 A 
HETATM    7  C   UNL     1      39.196 -12.104   2.275  1.00  0.00     0.001 A 
HETATM    8  C   UNL     1      39.922 -13.315   1.765  1.00  0.00     0.070 C 
HETATM    9  C   UNL     1      41.180 -13.625   2.623  1.00  0.00     0.102 C 
HETATM   10  C   UNL     1      40.892 -13.532   4.154  1.00  0.00     0.071 C 
HETATM   11  C   UNL     1      42.129 -13.877   4.995  1.00  0.00     0.047 C 
HETATM   12  C   UNL     1      40.425 -12.098   4.538  1.00  0.00     0.100 C 
ENDROOT
BRANCH   8  13
HETATM   13  C   UNL     1      40.266 -13.029   0.306  1.00  0.00    -0.046 A 
HETATM   14  C   UNL     1      39.832 -13.927  -0.691  1.00  0.00     0.047 A 
HETATM   15  C   UNL     1      40.123 -13.692  -2.036  1.00  0.00     0.101 A 
HETATM   16  C   UNL     1      40.897 -12.580  -2.378  1.00  0.00     0.099 A 
HETATM   17  C   UNL     1      41.335 -11.681  -1.418  1.00  0.00     0.040 A 
HETATM   18  C   UNL     1      41.010 -11.897  -0.079  1.00  0.00     0.011 A 
BRANCH  15  19
HETATM   19  O   UNL     1      39.729 -14.479  -3.088  1.00  0.00    -0.353 OA
HETATM   20  C   UNL     1      38.322 -14.589  -3.281  1.00  0.00     0.210 C 
ENDBRANCH  15  19
BRANCH  16  21
HETATM   21  O   UNL     1      41.223 -12.343  -3.685  1.00  0.00    -0.358 OA
HETATM   22  H   UNL     1      42.002 -12.907  -3.857  1.00  0.00     0.218 HD
ENDBRANCH  16  21
ENDBRANCH   8  13
BRANCH   9  23
HETATM   23  C   UNL     1      41.683 -15.014   2.254  1.00  0.00     0.131 C 
HETATM   24  C   UNL     1      43.090 -15.132   1.727  1.00  0.00     0.091 C 
HETATM   25  O   UNL     1      40.959 -16.006   2.369  1.00  0.00    -0.298 OA
ENDBRANCH   9  23
BRANCH  10  26
HETATM   26  O   UNL     1      39.856 -14.454   4.529  1.00  0.00    -0.389 OA
HETATM   27  H   UNL     1      40.285 -15.260   4.889  1.00  0.00     0.210 HD
ENDBRANCH  10  26
TORSDOF 5
ENDMDL
MODEL 3
REMARK VINA RESULT:      -6.8      7.272     10.151
REMARK  5 active torsions:
REMARK  status: ('A' for Active; 'I' for Inactive)
REMARK    1  A    between atoms: C_8  and  C_9 
REMARK    2  A    between atoms: C_11  and  O_12 
REMARK    3  A    between atoms: C_14  and  O_15 
REMARK    4  A    between atoms: C_18  and  C_19 
REMARK    5  A    between atoms: C_22  and  O_23 
ROOT
HETATM    1  C   UNL     1      40.939  -9.880   6.815  1.00  0.00     0.070 C 
HETATM    2  C   UNL     1      40.198  -8.997   7.746  1.00  0.00     0.033 A 
HETATM    3  N   UNL     1      39.103  -8.283   7.340  1.00  0.00    -0.282 N 
HETATM    4  H   UNL     1      38.686  -8.248   6.416  1.00  0.00     0.189 HD
HETATM    5  N   UNL     1      38.528  -7.565   8.318  1.00  0.00    -0.179 NA
HETATM    6  C   UNL     1      39.267  -7.853   9.390  1.00  0.00     0.066 A 
HETATM    7  C   UNL     1      40.369  -8.690   9.085  1.00  0.00     0.001 A 
HETATM    8  C   UNL     1      41.354  -9.133  10.127  1.00  0.00     0.070 C 
HETATM    9  C   UNL     1      41.233  -8.280  11.421  1.00  0.00     0.102 C 
HETATM   10  C   UNL     1      39.750  -8.067  11.855  1.00  0.00     0.071 C 
HETATM   11  C   UNL     1      39.641  -7.256  13.154  1.00  0.00     0.047 C 
HETATM   12  C   UNL     1      38.956  -7.319  10.745  1.00  0.00     0.100 C 
ENDROOT
BRANCH   8  13
HETATM   13  C   UNL     1      42.734  -9.032   9.486  1.00  0.00    -0.046 A 
HETATM   14  C   UNL     1      43.425 -10.215   9.150  1.00  0.00     0.047 A 
HETATM   15  C   UNL     1      44.687 -10.159   8.557  1.00  0.00     0.101 A 
HETATM   16  C   UNL     1      45.282  -8.913   8.347  1.00  0.00     0.099 A 
HETATM   17  C   UNL     1      44.625  -7.735   8.667  1.00  0.00     0.040 A 
HETATM   18  C   UNL     1      43.348  -7.792   9.224  1.00  0.00     0.011 A 
BRANCH  15  19
HETATM   19  O   UNL     1      45.434 -11.240   8.163  1.00  0.00    -0.353 OA
HETATM   20  C   UNL     1      45.016 -11.869   6.955  1.00  0.00     0.210 C 
ENDBRANCH  15  19
BRANCH  16  21
HETATM   21  O   UNL     1      46.531  -8.830   7.795  1.00  0.00    -0.358 OA
HETATM   22  H   UNL     1      46.791  -7.894   7.899  1.00  0.00     0.218 HD
ENDBRANCH  16  21
ENDBRANCH   8  13
BRANCH   9  23
HETATM   23  C   UNL     1      42.024  -8.968  12.525  1.00  0.00     0.131 C 
HETATM   24  C   UNL     1      43.170  -8.210  13.143  1.00  0.00     0.091 C 
HETATM   25  O   UNL     1      41.744 -10.113  12.891  1.00  0.00    -0.298 OA
ENDBRANCH   9  23
BRANCH  10  26
HETATM   26  O   UNL     1      39.107  -9.330  12.091  1.00  0.00    -0.389 OA
HETATM   27  H   UNL     1      38.312  -9.376  11.516  1.00  0.00     0.210 HD
ENDBRANCH  10  26
TORSDOF 5
ENDMDL
MODEL 4
REMARK VINA RESULT:      -6.8      3.193      6.288
REMARK  5 active torsions:
REMARK  status: ('A' for Active; 'I' for Inactive)
REMARK    1  A    between atoms: C_8  and  C_9 
REMARK    2  A    between atoms: C_11  and  O_12 
REMARK    3  A    between atoms: C_14  and  O_15 
REMARK    4  A    between atoms: C_18  and  C_19 
REMARK    5  A    between atoms: C_22  and  O_23 
ROOT
HETATM    1  C   UNL     1      44.232 -12.610   6.823  1.00  0.00     0.070 C 
HETATM    2  C   UNL     1      42.962 -12.011   6.353  1.00  0.00     0.033 A 
HETATM    3  N   UNL     1      42.451 -10.874   6.921  1.00  0.00    -0.282 N 
HETATM    4  H   UNL     1      42.831 -10.334   7.691  1.00  0.00     0.189 HD
HETATM    5  N   UNL     1      41.315 -10.444   6.351  1.00  0.00    -0.179 NA
HETATM    6  C   UNL     1      41.109 -11.322   5.368  1.00  0.00     0.066 A 
HETATM    7  C   UNL     1      42.067 -12.366   5.359  1.00  0.00     0.001 A 
HETATM    8  C   UNL     1      42.029 -13.482   4.356  1.00  0.00     0.070 C 
HETATM    9  C   UNL     1      40.656 -13.546   3.630  1.00  0.00     0.102 C 
HETATM   10  C   UNL     1      40.156 -12.138   3.181  1.00  0.00     0.071 C 
HETATM   11  C   UNL     1      38.818 -12.215   2.431  1.00  0.00     0.047 C 
HETATM   12  C   UNL     1      39.973 -11.203   4.412  1.00  0.00     0.100 C 
ENDROOT
BRANCH   8  13
HETATM   13  C   UNL     1      42.345 -14.762   5.124  1.00  0.00    -0.046 A 
HETATM   14  C   UNL     1      43.339 -15.632   4.629  1.00  0.00     0.047 A 
HETATM   15  C   UNL     1      43.657 -16.809   5.309  1.00  0.00     0.101 A 
HETATM   16  C   UNL     1      42.942 -17.139   6.463  1.00  0.00     0.099 A 
HETATM   17  C   UNL     1      41.961 -16.302   6.971  1.00  0.00     0.040 A 
HETATM   18  C   UNL     1      41.671 -15.108   6.310  1.00  0.00     0.011 A 
BRANCH  15  19
HETATM   19  O   UNL     1      44.622 -17.711   4.938  1.00  0.00    -0.353 OA
HETATM   20  C   UNL     1      44.265 -18.591   3.876  1.00  0.00     0.210 C 
ENDBRANCH  15  19
BRANCH  16  21
HETATM   21  O   UNL     1      43.212 -18.302   7.132  1.00  0.00    -0.358 OA
HETATM   22  H   UNL     1      44.057 -18.618   6.758  1.00  0.00     0.218 HD
ENDBRANCH  16  21
ENDBRANCH   8  13
BRANCH   9  23
HETATM   23  C   UNL     1      40.789 -14.477   2.432  1.00  0.00     0.131 C 
HETATM   24  C   UNL     1      39.921 -15.707   2.401  1.00  0.00     0.091 C 
HETATM   25  O   UNL     1      41.592 -14.239   1.526  1.00  0.00    -0.298 OA
ENDBRANCH   9  23
BRANCH  10  26
HETATM   26  O   UNL     1      41.104 -11.525   2.292  1.00  0.00    -0.389 OA
HETATM   27  H   UNL     1      40.687 -10.721   1.915  1.00  0.00     0.210 HD
ENDBRANCH  10  26
TORSDOF 5
ENDMDL
MODEL 5
REMARK VINA RESULT:      -6.8      3.399      6.425
REMARK  5 active torsions:
REMARK  status: ('A' for Active; 'I' for Inactive)
REMARK    1  A    between atoms: C_8  and  C_9 
REMARK    2  A    between atoms: C_11  and  O_12 
REMARK    3  A    between atoms: C_14  and  O_15 
REMARK    4  A    between atoms: C_18  and  C_19 
REMARK    5  A    between atoms: C_22  and  O_23 
ROOT
HETATM    1  C   UNL     1      44.028 -15.332   6.730  1.00  0.00     0.070 C 
HETATM    2  C   UNL     1      43.042 -15.066   5.657  1.00  0.00     0.033 A 
HETATM    3  N   UNL     1      42.778 -15.987   4.679  1.00  0.00    -0.282 N 
HETATM    4  H   UNL     1      43.197 -16.903   4.553  1.00  0.00     0.189 HD
HETATM    5  N   UNL     1      41.832 -15.602   3.809  1.00  0.00    -0.179 NA
HETATM    6  C   UNL     1      41.461 -14.404   4.264  1.00  0.00     0.066 A 
HETATM    7  C   UNL     1      42.228 -13.982   5.378  1.00  0.00     0.001 A 
HETATM    8  C   UNL     1      42.007 -12.658   6.050  1.00  0.00     0.070 C 
HETATM    9  C   UNL     1      41.148 -11.710   5.168  1.00  0.00     0.102 C 
HETATM   10  C   UNL     1      39.914 -12.434   4.546  1.00  0.00     0.071 C 
HETATM   11  C   UNL     1      39.050 -11.481   3.706  1.00  0.00     0.047 C 
HETATM   12  C   UNL     1      40.369 -13.610   3.634  1.00  0.00     0.100 C 
ENDROOT
BRANCH   8  13
HETATM   13  C   UNL     1      43.391 -12.088   6.346  1.00  0.00    -0.046 A 
HETATM   14  C   UNL     1      43.732 -11.768   7.677  1.00  0.00     0.047 A 
HETATM   15  C   UNL     1      44.991 -11.251   7.984  1.00  0.00     0.101 A 
HETATM   16  C   UNL     1      45.894 -11.005   6.947  1.00  0.00     0.099 A 
HETATM   17  C   UNL     1      45.585 -11.311   5.631  1.00  0.00     0.040 A 
HETATM   18  C   UNL     1      44.340 -11.863   5.331  1.00  0.00     0.011 A 
BRANCH  15  19
HETATM   19  O   UNL     1      45.441 -10.933   9.241  1.00  0.00    -0.353 OA
HETATM   20  C   UNL     1      44.752  -9.867   9.888  1.00  0.00     0.210 C 
ENDBRANCH  15  19
BRANCH  16  21
HETATM   21  O   UNL     1      47.124 -10.470   7.216  1.00  0.00    -0.358 OA
HETATM   22  H   UNL     1      46.963  -9.808   7.916  1.00  0.00     0.218 HD
ENDBRANCH  16  21
ENDBRANCH   8  13
BRANCH   9  23
HETATM   23  C   UNL     1      40.706 -10.529   6.021  1.00  0.00     0.131 C 
HETATM   24  C   UNL     1      41.223  -9.164   5.649  1.00  0.00     0.091 C 
HETATM   25  O   UNL     1      39.962 -10.687   6.992  1.00  0.00    -0.298 OA
ENDBRANCH   9  23
BRANCH  10  26
HETATM   26  O   UNL     1      39.070 -12.970   5.578  1.00  0.00    -0.389 OA
HETATM   27  H   UNL     1      38.225 -12.471   5.566  1.00  0.00     0.210 HD
ENDBRANCH  10  26
TORSDOF 5
ENDMDL
MODEL 6
REMARK VINA RESULT:      -6.6     14.379     15.652
REMARK  5 active torsions:
REMARK  status: ('A' for Active; 'I' for Inactive)
REMARK    1  A    between atoms: C_8  and  C_9 
REMARK    2  A    between atoms: C_11  and  O_12 
REMARK    3  A    between atoms: C_14  and  O_15 
REMARK    4  A    between atoms: C_18  and  C_19 
REMARK    5  A    between atoms: C_22  and  O_23 
ROOT
HETATM    1  C   UNL     1      47.263 -27.923  -1.746  1.00  0.00     0.070 C 
HETATM    2  C   UNL     1      47.258 -28.638  -0.449  1.00  0.00     0.033 A 
HETATM    3  N   UNL     1      48.411 -28.845   0.262  1.00  0.00    -0.282 N 
HETATM    4  H   UNL     1      49.356 -28.573   0.014  1.00  0.00     0.189 HD
HETATM    5  N   UNL     1      48.223 -29.474   1.432  1.00  0.00    -0.179 NA
HETATM    6  C   UNL     1      46.902 -29.650   1.482  1.00  0.00     0.066 A 
HETATM    7  C   UNL     1      46.248 -29.210   0.305  1.00  0.00     0.001 A 
HETATM    8  C   UNL     1      44.763 -29.324   0.120  1.00  0.00     0.070 C 
HETATM    9  C   UNL     1      44.134 -30.290   1.163  1.00  0.00     0.102 C 
HETATM   10  C   UNL     1      44.679 -30.044   2.604  1.00  0.00     0.071 C 
HETATM   11  C   UNL     1      44.025 -30.977   3.634  1.00  0.00     0.047 C 
HETATM   12  C   UNL     1      46.218 -30.266   2.654  1.00  0.00     0.100 C 
ENDROOT
BRANCH   8  13
HETATM   13  C   UNL     1      44.541 -29.789  -1.315  1.00  0.00    -0.046 A 
HETATM   14  C   UNL     1      44.784 -31.138  -1.647  1.00  0.00     0.047 A 
HETATM   15  C   UNL     1      44.585 -31.598  -2.949  1.00  0.00     0.101 A 
HETATM   16  C   UNL     1      44.190 -30.691  -3.936  1.00  0.00     0.099 A 
HETATM   17  C   UNL     1      43.943 -29.360  -3.637  1.00  0.00     0.040 A 
HETATM   18  C   UNL     1      44.106 -28.911  -2.327  1.00  0.00     0.011 A 
BRANCH  15  19
HETATM   19  O   UNL     1      44.761 -32.890  -3.377  1.00  0.00    -0.353 OA
HETATM   20  C   UNL     1      43.760 -33.816  -2.964  1.00  0.00     0.210 C 
ENDBRANCH  15  19
BRANCH  16  21
HETATM   21  O   UNL     1      44.018 -31.108  -5.227  1.00  0.00    -0.358 OA
HETATM   22  H   UNL     1      43.419 -30.449  -5.628  1.00  0.00     0.218 HD
ENDBRANCH  16  21
ENDBRANCH   8  13
BRANCH   9  23
HETATM   23  C   UNL     1      42.621 -30.121   1.124  1.00  0.00     0.131 C 
HETATM   24  C   UNL     1      41.777 -31.369   1.118  1.00  0.00     0.091 C 
HETATM   25  O   UNL     1      42.105 -29.001   1.084  1.00  0.00    -0.298 OA
ENDBRANCH   9  23
BRANCH  10  26
HETATM   26  O   UNL     1      44.408 -28.697   3.023  1.00  0.00    -0.389 OA
HETATM   27  H   UNL     1      44.805 -28.089   2.362  1.00  0.00     0.210 HD
ENDBRANCH  10  26
TORSDOF 5
ENDMDL
MODEL 7
REMARK VINA RESULT:      -6.5      2.190      5.478
REMARK  5 active torsions:
REMARK  status: ('A' for Active; 'I' for Inactive)
REMARK    1  A    between atoms: C_8  and  C_9 
REMARK    2  A    between atoms: C_11  and  O_12 
REMARK    3  A    between atoms: C_14  and  O_15 
REMARK    4  A    between atoms: C_18  and  C_19 
REMARK    5  A    between atoms: C_22  and  O_23 
ROOT
HETATM    1  C   UNL     1      42.139 -15.308   7.108  1.00  0.00     0.070 C 
HETATM    2  C   UNL     1      42.203 -15.753   5.696  1.00  0.00     0.033 A 
HETATM    3  N   UNL     1      42.855 -16.902   5.334  1.00  0.00    -0.282 N 
HETATM    4  H   UNL     1      43.357 -17.550   5.931  1.00  0.00     0.189 HD
HETATM    5  N   UNL     1      42.783 -17.178   4.023  1.00  0.00    -0.179 NA
HETATM    6  C   UNL     1      42.038 -16.184   3.537  1.00  0.00     0.066 A 
HETATM    7  C   UNL     1      41.700 -15.223   4.521  1.00  0.00     0.001 A 
HETATM    8  C   UNL     1      40.883 -14.004   4.206  1.00  0.00     0.070 C 
HETATM    9  C   UNL     1      40.802 -13.755   2.674  1.00  0.00     0.102 C 
HETATM   10  C   UNL     1      40.509 -15.063   1.875  1.00  0.00     0.071 C 
HETATM   11  C   UNL     1      40.394 -14.802   0.366  1.00  0.00     0.047 C 
HETATM   12  C   UNL     1      41.638 -16.110   2.103  1.00  0.00     0.100 C 
ENDROOT
BRANCH   8  13
HETATM   13  C   UNL     1      41.533 -12.844   4.953  1.00  0.00    -0.046 A 
HETATM   14  C   UNL     1      42.893 -12.552   4.720  1.00  0.00     0.047 A 
HETATM   15  C   UNL     1      43.517 -11.494   5.382  1.00  0.00     0.101 A 
HETATM   16  C   UNL     1      42.789 -10.758   6.321  1.00  0.00     0.099 A 
HETATM   17  C   UNL     1      41.451 -11.023   6.568  1.00  0.00     0.040 A 
HETATM   18  C   UNL     1      40.819 -12.056   5.878  1.00  0.00     0.011 A 
BRANCH  15  19
HETATM   19  O   UNL     1      44.821 -11.102   5.213  1.00  0.00    -0.353 OA
HETATM   20  C   UNL     1      45.723 -11.509   6.237  1.00  0.00     0.210 C 
ENDBRANCH  15  19
BRANCH  16  21
HETATM   21  O   UNL     1      43.385  -9.735   7.007  1.00  0.00    -0.358 OA
HETATM   22  H   UNL     1      43.847 -10.166   7.751  1.00  0.00     0.218 HD
ENDBRANCH  16  21
ENDBRANCH   8  13
BRANCH   9  23
HETATM   23  C   UNL     1      39.724 -12.712   2.412  1.00  0.00     0.131 C 
HETATM   24  C   UNL     1      40.143 -11.421   1.760  1.00  0.00     0.091 C 
HETATM   25  O   UNL     1      38.551 -12.913   2.736  1.00  0.00    -0.298 OA
ENDBRANCH   9  23
BRANCH  10  26
HETATM   26  O   UNL     1      39.267 -15.646   2.298  1.00  0.00    -0.389 OA
HETATM   27  H   UNL     1      38.887 -15.071   2.997  1.00  0.00     0.210 HD
ENDBRANCH  10  26
TORSDOF 5
ENDMDL
MODEL 8
REMARK VINA RESULT:      -6.4      6.577      9.640
REMARK  5 active torsions:
REMARK  status: ('A' for Active; 'I' for Inactive)
REMARK    1  A    between atoms: C_8  and  C_9 
REMARK    2  A    between atoms: C_11  and  O_12 
REMARK    3  A    between atoms: C_14  and  O_15 
REMARK    4  A    between atoms: C_18  and  C_19 
REMARK    5  A    between atoms: C_22  and  O_23 
ROOT
HETATM    1  C   UNL     1      43.475  -9.826  11.763  1.00  0.00     0.070 C 
HETATM    2  C   UNL     1      42.094  -9.696  11.243  1.00  0.00     0.033 A 
HETATM    3  N   UNL     1      41.039 -10.335  11.838  1.00  0.00    -0.282 N 
HETATM    4  H   UNL     1      41.055 -10.950  12.645  1.00  0.00     0.189 HD
HETATM    5  N   UNL     1      39.854 -10.079  11.264  1.00  0.00    -0.179 NA
HETATM    6  C   UNL     1      40.160  -9.227  10.285  1.00  0.00     0.066 A 
HETATM    7  C   UNL     1      41.554  -8.999  10.176  1.00  0.00     0.001 A 
HETATM    8  C   UNL     1      42.140  -8.091   9.135  1.00  0.00     0.070 C 
HETATM    9  C   UNL     1      41.110  -7.770   8.017  1.00  0.00     0.102 C 
HETATM   10  C   UNL     1      39.702  -7.418   8.590  1.00  0.00     0.071 C 
HETATM   11  C   UNL     1      38.700  -7.065   7.481  1.00  0.00     0.047 C 
HETATM   12  C   UNL     1      39.127  -8.613   9.405  1.00  0.00     0.100 C 
ENDROOT
BRANCH   8  13
HETATM   13  C   UNL     1      43.384  -8.795   8.600  1.00  0.00    -0.046 A 
HETATM   14  C   UNL     1      43.239 -10.015   7.907  1.00  0.00     0.047 A 
HETATM   15  C   UNL     1      44.354 -10.682   7.399  1.00  0.00     0.101 A 
HETATM   16  C   UNL     1      45.625 -10.151   7.631  1.00  0.00     0.099 A 
HETATM   17  C   UNL     1      45.796  -8.954   8.308  1.00  0.00     0.040 A 
HETATM   18  C   UNL     1      44.678  -8.269   8.782  1.00  0.00     0.011 A 
BRANCH  15  19
HETATM   19  O   UNL     1      44.329 -11.854   6.686  1.00  0.00    -0.353 OA
HETATM   20  C   UNL     1      43.812 -11.758   5.362  1.00  0.00     0.210 C 
ENDBRANCH  15  19
BRANCH  16  21
HETATM   21  O   UNL     1      46.738 -10.801   7.171  1.00  0.00    -0.358 OA
HETATM   22  H   UNL     1      46.472 -11.738   7.101  1.00  0.00     0.218 HD
ENDBRANCH  16  21
ENDBRANCH   8  13
BRANCH   9  23
HETATM   23  C   UNL     1      41.653  -6.621   7.179  1.00  0.00     0.131 C 
HETATM   24  C   UNL     1      41.798  -6.842   5.696  1.00  0.00     0.091 C 
HETATM   25  O   UNL     1      41.976  -5.550   7.699  1.00  0.00    -0.298 OA
ENDBRANCH   9  23
BRANCH  10  26
HETATM   26  O   UNL     1      39.783  -6.280   9.463  1.00  0.00    -0.389 OA
HETATM   27  H   UNL     1      39.079  -5.648   9.202  1.00  0.00     0.210 HD
ENDBRANCH  10  26
TORSDOF 5
ENDMDL
MODEL 9
REMARK VINA RESULT:      -6.4     14.378     16.334
REMARK  5 active torsions:
REMARK  status: ('A' for Active; 'I' for Inactive)
REMARK    1  A    between atoms: C_8  and  C_9 
REMARK    2  A    between atoms: C_11  and  O_12 
REMARK    3  A    between atoms: C_14  and  O_15 
REMARK    4  A    between atoms: C_18  and  C_19 
REMARK    5  A    between atoms: C_22  and  O_23 
ROOT
HETATM    1  C   UNL     1      50.790 -30.317  -2.245  1.00  0.00     0.070 C 
HETATM    2  C   UNL     1      50.744 -30.832  -0.857  1.00  0.00     0.033 A 
HETATM    3  N   UNL     1      51.625 -31.782  -0.414  1.00  0.00    -0.282 N 
HETATM    4  H   UNL     1      52.365 -32.241  -0.935  1.00  0.00     0.189 HD
HETATM    5  N   UNL     1      51.469 -32.108   0.878  1.00  0.00    -0.179 NA
HETATM    6  C   UNL     1      50.470 -31.320   1.279  1.00  0.00     0.066 A 
HETATM    7  C   UNL     1      49.928 -30.547   0.224  1.00  0.00     0.001 A 
HETATM    8  C   UNL     1      48.783 -29.599   0.429  1.00  0.00     0.070 C 
HETATM    9  C   UNL     1      48.064 -29.862   1.781  1.00  0.00     0.102 C 
HETATM   10  C   UNL     1      49.068 -30.066   2.958  1.00  0.00     0.071 C 
HETATM   11  C   UNL     1      48.350 -30.288   4.297  1.00  0.00     0.047 C 
HETATM   12  C   UNL     1      49.986 -31.293   2.688  1.00  0.00     0.100 C 
ENDROOT
BRANCH   8  13
HETATM   13  C   UNL     1      47.856 -29.776  -0.770  1.00  0.00    -0.046 A 
HETATM   14  C   UNL     1      47.279 -31.040  -1.012  1.00  0.00     0.047 A 
HETATM   15  C   UNL     1      46.422 -31.235  -2.096  1.00  0.00     0.101 A 
HETATM   16  C   UNL     1      46.183 -30.173  -2.971  1.00  0.00     0.099 A 
HETATM   17  C   UNL     1      46.737 -28.920  -2.757  1.00  0.00     0.040 A 
HETATM   18  C   UNL     1      47.562 -28.717  -1.651  1.00  0.00     0.011 A 
BRANCH  15  19
HETATM   19  O   UNL     1      45.784 -32.408  -2.410  1.00  0.00    -0.353 OA
HETATM   20  C   UNL     1      44.623 -32.702  -1.638  1.00  0.00     0.210 C 
ENDBRANCH  15  19
BRANCH  16  21
HETATM   21  O   UNL     1      45.372 -30.345  -4.060  1.00  0.00    -0.358 OA
HETATM   22  H   UNL     1      44.630 -29.725  -3.922  1.00  0.00     0.218 HD
ENDBRANCH  16  21
ENDBRANCH   8  13
BRANCH   9  23
HETATM   23  C   UNL     1      47.132 -28.691   2.066  1.00  0.00     0.131 C 
HETATM   24  C   UNL     1      45.666 -28.989   2.239  1.00  0.00     0.091 C 
HETATM   25  O   UNL     1      47.562 -27.537   2.139  1.00  0.00    -0.298 OA
ENDBRANCH   9  23
BRANCH  10  26
HETATM   26  O   UNL     1      49.904 -28.908   3.114  1.00  0.00    -0.389 OA
HETATM   27  H   UNL     1      49.330 -28.113   3.074  1.00  0.00     0.210 HD
ENDBRANCH  10  26
TORSDOF 5
ENDMDL
MODEL 10
REMARK VINA RESULT:      -6.2      2.610      3.714
REMARK  5 active torsions:
REMARK  status: ('A' for Active; 'I' for Inactive)
REMARK    1  A    between atoms: C_8  and  C_9 
REMARK    2  A    between atoms: C_11  and  O_12 
REMARK    3  A    between atoms: C_14  and  O_15 
REMARK    4  A    between atoms: C_18  and  C_19 
REMARK    5  A    between atoms: C_22  and  O_23 
ROOT
HETATM    1  C   UNL     1      43.536 -15.559   1.550  1.00  0.00     0.070 C 
HETATM    2  C   UNL     1      42.806 -15.454   2.834  1.00  0.00     0.033 A 
HETATM    3  N   UNL     1      42.944 -16.398   3.818  1.00  0.00    -0.282 N 
HETATM    4  H   UNL     1      43.509 -17.240   3.801  1.00  0.00     0.189 HD
HETATM    5  N   UNL     1      42.243 -16.130   4.930  1.00  0.00    -0.179 NA
HETATM    6  C   UNL     1      41.659 -14.963   4.657  1.00  0.00     0.066 A 
HETATM    7  C   UNL     1      41.916 -14.520   3.336  1.00  0.00     0.001 A 
HETATM    8  C   UNL     1      41.349 -13.241   2.792  1.00  0.00     0.070 C 
HETATM    9  C   UNL     1      40.195 -12.708   3.686  1.00  0.00     0.102 C 
HETATM   10  C   UNL     1      40.544 -12.770   5.206  1.00  0.00     0.071 C 
HETATM   11  C   UNL     1      39.413 -12.206   6.079  1.00  0.00     0.047 C 
HETATM   12  C   UNL     1      40.815 -14.237   5.647  1.00  0.00     0.100 C 
ENDROOT
BRANCH   8  13
HETATM   13  C   UNL     1      40.894 -13.542   1.368  1.00  0.00    -0.046 A 
HETATM   14  C   UNL     1      41.255 -12.658   0.330  1.00  0.00     0.047 A 
HETATM   15  C   UNL     1      40.862 -12.906  -0.986  1.00  0.00     0.101 A 
HETATM   16  C   UNL     1      40.059 -14.018  -1.255  1.00  0.00     0.099 A 
HETATM   17  C   UNL     1      39.691 -14.903  -0.254  1.00  0.00     0.040 A 
HETATM   18  C   UNL     1      40.117 -14.674   1.054  1.00  0.00     0.011 A 
BRANCH  15  19
HETATM   19  O   UNL     1      41.178 -12.134  -2.075  1.00  0.00    -0.353 OA
HETATM   20  C   UNL     1      41.099 -10.726  -1.874  1.00  0.00     0.210 C 
ENDBRANCH  15  19
BRANCH  16  21
HETATM   21  O   UNL     1      39.633 -14.268  -2.531  1.00  0.00    -0.358 OA
HETATM   22  H   UNL     1      39.792 -13.436  -3.017  1.00  0.00     0.218 HD
ENDBRANCH  16  21
ENDBRANCH   8  13
BRANCH   9  23
HETATM   23  C   UNL     1      39.881 -11.279   3.264  1.00  0.00     0.131 C 
HETATM   24  C   UNL     1      38.525 -11.006   2.667  1.00  0.00     0.091 C 
HETATM   25  O   UNL     1      40.715 -10.378   3.393  1.00  0.00    -0.298 OA
ENDBRANCH   9  23
BRANCH  10  26
HETATM   26  O   UNL     1      41.720 -11.995   5.485  1.00  0.00    -0.389 OA
HETATM   27  H   UNL     1      41.685 -11.721   6.427  1.00  0.00     0.210 HD
ENDBRANCH  10  26
TORSDOF 5
ENDMDL
