MODEL 1
REMARK VINA RESULT:      -8.7      0.000      0.000
REMARK  7 active torsions:
REMARK  status: ('A' for Active; 'I' for Inactive)
REMARK    1  A    between atoms: C_2  and  O_3 
REMARK    2  A    between atoms: O_3  and  C_4 
REMARK    3  A    between atoms: C_9  and  C_10 
REMARK       I    between atoms: C_10  and  N_11 
REMARK    4  A    between atoms: N_11  and  C_12 
REMARK    5  A    between atoms: C_12  and  C_13 
REMARK    6  A    between atoms: C_14  and  C_15 
REMARK    7  A    between atoms: C_15  and  N_16 
ROOT
HETATM    1  C   UNL     1      41.881 -12.794   5.059  1.00  0.00     0.276 C 
HETATM    2  N   UNL     1      42.068 -12.428   6.383  1.00  0.00    -0.351 N 
HETATM    3  O   UNL     1      41.414 -11.994   4.248  1.00  0.00    -0.265 OA
HETATM    4  H   UNL     1      42.579 -13.083   6.964  1.00  0.00     0.163 HD
ENDROOT
BRANCH   2   5
HETATM    5  C   UNL     1      42.205 -11.031   6.716  1.00  0.00     0.162 C 
BRANCH   5   6
HETATM    6  C   UNL     1      43.609 -10.694   7.151  1.00  0.00    -0.033 A 
HETATM    7  C   UNL     1      43.894  -9.823   8.228  1.00  0.00    -0.025 A 
HETATM    8  C   UNL     1      45.241  -9.573   8.562  1.00  0.00     0.009 A 
HETATM    9  C   UNL     1      46.282 -10.163   7.847  1.00  0.00     0.001 A 
HETATM   10  C   UNL     1      45.999 -11.021   6.792  1.00  0.00     0.001 A 
HETATM   11  C   UNL     1      44.676 -11.289   6.452  1.00  0.00     0.009 A 
BRANCH   7  12
HETATM   12  C   UNL     1      42.819  -9.140   9.046  1.00  0.00     0.274 C 
BRANCH  12  13
HETATM   13  N   UNL     1      42.318  -9.991  10.193  1.00  0.00    -0.067 N 
HETATM   14  H   UNL     1      42.052 -10.901   9.798  1.00  0.00     0.280 HD
HETATM   15  C   UNL     1      41.134  -9.395  10.907  1.00  0.00     0.235 C 
HETATM   16  C   UNL     1      41.750  -8.471  11.938  1.00  0.00     0.029 C 
HETATM   17  C   UNL     1      43.119  -9.058  12.254  1.00  0.00     0.029 C 
HETATM   18  C   UNL     1      43.322 -10.218  11.293  1.00  0.00     0.235 C 
ENDBRANCH  12  13
ENDBRANCH   7  12
ENDBRANCH   5   6
ENDBRANCH   2   5
BRANCH   1  19
HETATM   19  C   UNL     1      42.322 -14.131   4.728  1.00  0.00     0.150 A 
HETATM   20  O   UNL     1      41.862 -14.645   3.547  1.00  0.00    -0.304 OA
HETATM   21  C   UNL     1      42.445 -15.856   3.370  1.00  0.00     0.087 A 
HETATM   22  C   UNL     1      43.260 -16.160   4.450  1.00  0.00     0.009 A 
HETATM   23  C   UNL     1      42.267 -16.682   2.264  1.00  0.00     0.041 A 
HETATM   24  C   UNL     1      43.934 -17.397   4.440  1.00  0.00     0.051 A 
HETATM   25  C   UNL     1      43.179 -15.039   5.338  1.00  0.00    -0.009 A 
HETATM   26  C   UNL     1      43.764 -18.270   3.352  1.00  0.00     0.069 A 
HETATM   27  C   UNL     1      42.953 -17.904   2.273  1.00  0.00     0.039 A 
HETATM   28  C   UNL     1      43.869 -14.918   6.648  1.00  0.00     0.052 C 
BRANCH  26  29
HETATM   29  O   UNL     1      44.454 -19.449   3.462  1.00  0.00    -0.351 OA
BRANCH  29  30
HETATM   30  C   UNL     1      43.696 -20.615   3.784  1.00  0.00     0.171 C 
HETATM   31  C   UNL     1      43.958 -20.961   5.239  1.00  0.00     0.034 C 
ENDBRANCH  29  30
ENDBRANCH  26  29
ENDBRANCH   1  19
TORSDOF 7
ENDMDL
MODEL 2
REMARK VINA RESULT:      -8.7      4.640      8.549
REMARK  7 active torsions:
REMARK  status: ('A' for Active; 'I' for Inactive)
REMARK    1  A    between atoms: C_2  and  O_3 
REMARK    2  A    between atoms: O_3  and  C_4 
REMARK    3  A    between atoms: C_9  and  C_10 
REMARK       I    between atoms: C_10  and  N_11 
REMARK    4  A    between atoms: N_11  and  C_12 
REMARK    5  A    between atoms: C_12  and  C_13 
REMARK    6  A    between atoms: C_14  and  C_15 
REMARK    7  A    between atoms: C_15  and  N_16 
ROOT
HETATM    1  C   UNL     1      40.965 -15.321   2.175  1.00  0.00     0.276 C 
HETATM    2  N   UNL     1      42.237 -15.781   1.867  1.00  0.00    -0.351 N 
HETATM    3  O   UNL     1      40.477 -15.529   3.285  1.00  0.00    -0.265 OA
HETATM    4  H   UNL     1      42.632 -15.461   0.989  1.00  0.00     0.163 HD
ENDROOT
BRANCH   2   5
HETATM    5  C   UNL     1      43.171 -16.040   2.934  1.00  0.00     0.162 C 
BRANCH   5   6
HETATM    6  C   UNL     1      43.408 -17.516   3.126  1.00  0.00    -0.033 A 
HETATM    7  C   UNL     1      43.932 -18.064   4.320  1.00  0.00    -0.025 A 
HETATM    8  C   UNL     1      44.114 -19.461   4.403  1.00  0.00     0.009 A 
HETATM    9  C   UNL     1      43.794 -20.295   3.334  1.00  0.00     0.001 A 
HETATM   10  C   UNL     1      43.277 -19.754   2.164  1.00  0.00     0.001 A 
HETATM   11  C   UNL     1      43.080 -18.379   2.063  1.00  0.00     0.009 A 
BRANCH   7  12
HETATM   12  C   UNL     1      44.310 -17.223   5.519  1.00  0.00     0.274 C 
BRANCH  12  13
HETATM   13  N   UNL     1      43.311 -17.326   6.652  1.00  0.00    -0.067 N 
HETATM   14  H   UNL     1      43.255 -18.317   6.915  1.00  0.00     0.280 HD
HETATM   15  C   UNL     1      41.937 -16.832   6.284  1.00  0.00     0.235 C 
HETATM   16  C   UNL     1      41.996 -15.342   6.549  1.00  0.00     0.029 C 
HETATM   17  C   UNL     1      43.040 -15.156   7.642  1.00  0.00     0.029 C 
HETATM   18  C   UNL     1      43.663 -16.522   7.877  1.00  0.00     0.235 C 
ENDBRANCH  12  13
ENDBRANCH   7  12
ENDBRANCH   5   6
ENDBRANCH   2   5
BRANCH   1  19
HETATM   19  C   UNL     1      40.322 -14.559   1.127  1.00  0.00     0.150 A 
HETATM   20  O   UNL     1      40.116 -15.211  -0.056  1.00  0.00    -0.304 OA
HETATM   21  C   UNL     1      39.433 -14.374  -0.876  1.00  0.00     0.087 A 
HETATM   22  C   UNL     1      39.220 -13.156  -0.248  1.00  0.00     0.009 A 
HETATM   23  C   UNL     1      38.994 -14.682  -2.160  1.00  0.00     0.041 A 
HETATM   24  C   UNL     1      38.536 -12.154  -0.965  1.00  0.00     0.051 A 
HETATM   25  C   UNL     1      39.802 -13.271   1.056  1.00  0.00    -0.009 A 
HETATM   26  C   UNL     1      38.096 -12.418  -2.274  1.00  0.00     0.069 A 
HETATM   27  C   UNL     1      38.310 -13.674  -2.851  1.00  0.00     0.039 A 
HETATM   28  C   UNL     1      39.841 -12.204   2.087  1.00  0.00     0.052 C 
BRANCH  26  29
HETATM   29  O   UNL     1      37.460 -11.365  -2.876  1.00  0.00    -0.351 OA
BRANCH  29  30
HETATM   30  C   UNL     1      38.026 -10.069  -2.680  1.00  0.00     0.171 C 
HETATM   31  C   UNL     1      39.109  -9.864  -3.725  1.00  0.00     0.034 C 
ENDBRANCH  29  30
ENDBRANCH  26  29
ENDBRANCH   1  19
TORSDOF 7
ENDMDL
MODEL 3
REMARK VINA RESULT:      -8.6      1.198      1.792
REMARK  7 active torsions:
REMARK  status: ('A' for Active; 'I' for Inactive)
REMARK    1  A    between atoms: C_2  and  O_3 
REMARK    2  A    between atoms: O_3  and  C_4 
REMARK    3  A    between atoms: C_9  and  C_10 
REMARK       I    between atoms: C_10  and  N_11 
REMARK    4  A    between atoms: N_11  and  C_12 
REMARK    5  A    between atoms: C_12  and  C_13 
REMARK    6  A    between atoms: C_14  and  C_15 
REMARK    7  A    between atoms: C_15  and  N_16 
ROOT
HETATM    1  C   UNL     1      41.979 -12.923   5.743  1.00  0.00     0.276 C 
HETATM    2  N   UNL     1      42.587 -12.319   6.832  1.00  0.00    -0.351 N 
HETATM    3  O   UNL     1      41.079 -12.348   5.129  1.00  0.00    -0.265 OA
HETATM    4  H   UNL     1      43.407 -12.784   7.206  1.00  0.00     0.163 HD
ENDROOT
BRANCH   2   5
HETATM    5  C   UNL     1      42.554 -10.882   6.951  1.00  0.00     0.162 C 
BRANCH   5   6
HETATM    6  C   UNL     1      43.885 -10.326   7.392  1.00  0.00    -0.033 A 
HETATM    7  C   UNL     1      44.008  -9.173   8.203  1.00  0.00    -0.025 A 
HETATM    8  C   UNL     1      45.298  -8.733   8.565  1.00  0.00     0.009 A 
HETATM    9  C   UNL     1      46.438  -9.408   8.134  1.00  0.00     0.001 A 
HETATM   10  C   UNL     1      46.313 -10.541   7.340  1.00  0.00     0.001 A 
HETATM   11  C   UNL     1      45.049 -10.999   6.978  1.00  0.00     0.009 A 
BRANCH   7  12
HETATM   12  C   UNL     1      42.818  -8.384   8.703  1.00  0.00     0.274 C 
BRANCH  12  13
HETATM   13  N   UNL     1      42.165  -9.006   9.920  1.00  0.00    -0.067 N 
HETATM   14  H   UNL     1      41.464  -9.672   9.577  1.00  0.00     0.280 HD
HETATM   15  C   UNL     1      41.496  -8.000  10.818  1.00  0.00     0.235 C 
HETATM   16  C   UNL     1      42.606  -7.522  11.731  1.00  0.00     0.029 C 
HETATM   17  C   UNL     1      43.596  -8.676  11.818  1.00  0.00     0.029 C 
HETATM   18  C   UNL     1      43.112  -9.733  10.839  1.00  0.00     0.235 C 
ENDBRANCH  12  13
ENDBRANCH   7  12
ENDBRANCH   5   6
ENDBRANCH   2   5
BRANCH   1  19
HETATM   19  C   UNL     1      42.519 -14.215   5.381  1.00  0.00     0.150 A 
HETATM   20  O   UNL     1      42.599 -15.140   6.384  1.00  0.00    -0.304 OA
HETATM   21  C   UNL     1      43.044 -16.300   5.841  1.00  0.00     0.087 A 
HETATM   22  C   UNL     1      43.294 -16.132   4.487  1.00  0.00     0.009 A 
HETATM   23  C   UNL     1      43.220 -17.497   6.528  1.00  0.00     0.041 A 
HETATM   24  C   UNL     1      43.782 -17.238   3.764  1.00  0.00     0.051 A 
HETATM   25  C   UNL     1      42.957 -14.773   4.185  1.00  0.00    -0.009 A 
HETATM   26  C   UNL     1      43.994 -18.460   4.426  1.00  0.00     0.069 A 
HETATM   27  C   UNL     1      43.699 -18.586   5.787  1.00  0.00     0.039 A 
HETATM   28  C   UNL     1      43.083 -14.122   2.856  1.00  0.00     0.052 C 
BRANCH  26  29
HETATM   29  O   UNL     1      44.486 -19.456   3.625  1.00  0.00    -0.351 OA
BRANCH  29  30
HETATM   30  C   UNL     1      43.578 -20.493   3.250  1.00  0.00     0.171 C 
HETATM   31  C   UNL     1      43.313 -20.372   1.760  1.00  0.00     0.034 C 
ENDBRANCH  29  30
ENDBRANCH  26  29
ENDBRANCH   1  19
TORSDOF 7
ENDMDL
MODEL 4
REMARK VINA RESULT:      -8.4      1.422      1.980
REMARK  7 active torsions:
REMARK  status: ('A' for Active; 'I' for Inactive)
REMARK    1  A    between atoms: C_2  and  O_3 
REMARK    2  A    between atoms: O_3  and  C_4 
REMARK    3  A    between atoms: C_9  and  C_10 
REMARK       I    between atoms: C_10  and  N_11 
REMARK    4  A    between atoms: N_11  and  C_12 
REMARK    5  A    between atoms: C_12  and  C_13 
REMARK    6  A    between atoms: C_14  and  C_15 
REMARK    7  A    between atoms: C_15  and  N_16 
ROOT
HETATM    1  C   UNL     1      41.859 -11.154   5.676  1.00  0.00     0.276 C 
HETATM    2  N   UNL     1      41.661 -10.913   7.027  1.00  0.00    -0.351 N 
HETATM    3  O   UNL     1      41.877 -10.223   4.871  1.00  0.00    -0.265 OA
HETATM    4  H   UNL     1      41.792 -11.703   7.650  1.00  0.00     0.163 HD
ENDROOT
BRANCH   2   5
HETATM    5  C   UNL     1      41.973  -9.612   7.565  1.00  0.00     0.162 C 
BRANCH   5   6
HETATM    6  C   UNL     1      43.208  -9.645   8.430  1.00  0.00    -0.033 A 
HETATM    7  C   UNL     1      43.193  -9.321   9.807  1.00  0.00    -0.025 A 
HETATM    8  C   UNL     1      44.401  -9.385  10.532  1.00  0.00     0.009 A 
HETATM    9  C   UNL     1      45.595  -9.754   9.914  1.00  0.00     0.001 A 
HETATM   10  C   UNL     1      45.605 -10.075   8.563  1.00  0.00     0.001 A 
HETATM   11  C   UNL     1      44.422 -10.028   7.830  1.00  0.00     0.009 A 
BRANCH   7  12
HETATM   12  C   UNL     1      41.940  -8.904  10.545  1.00  0.00     0.274 C 
BRANCH  12  13
HETATM   13  N   UNL     1      41.313 -10.036  11.331  1.00  0.00    -0.067 N 
HETATM   14  H   UNL     1      41.602 -10.912  10.879  1.00  0.00     0.280 HD
HETATM   15  C   UNL     1      39.809  -9.973  11.373  1.00  0.00     0.235 C 
HETATM   16  C   UNL     1      39.510  -9.068  12.550  1.00  0.00     0.029 C 
HETATM   17  C   UNL     1      40.690  -9.219  13.500  1.00  0.00     0.029 C 
HETATM   18  C   UNL     1      41.710 -10.089  12.783  1.00  0.00     0.235 C 
ENDBRANCH  12  13
ENDBRANCH   7  12
ENDBRANCH   5   6
ENDBRANCH   2   5
BRANCH   1  19
HETATM   19  C   UNL     1      42.089 -12.539   5.330  1.00  0.00     0.150 A 
HETATM   20  O   UNL     1      41.243 -13.080   4.403  1.00  0.00    -0.304 OA
HETATM   21  C   UNL     1      41.663 -14.344   4.148  1.00  0.00     0.087 A 
HETATM   22  C   UNL     1      42.765 -14.651   4.933  1.00  0.00     0.009 A 
HETATM   23  C   UNL     1      41.088 -15.214   3.227  1.00  0.00     0.041 A 
HETATM   24  C   UNL     1      43.324 -15.938   4.809  1.00  0.00     0.051 A 
HETATM   25  C   UNL     1      43.042 -13.479   5.708  1.00  0.00    -0.009 A 
HETATM   26  C   UNL     1      42.759 -16.855   3.906  1.00  0.00     0.069 A 
HETATM   27  C   UNL     1      41.666 -16.486   3.116  1.00  0.00     0.039 A 
HETATM   28  C   UNL     1      44.124 -13.340   6.715  1.00  0.00     0.052 C 
BRANCH  26  29
HETATM   29  O   UNL     1      43.377 -18.078   3.885  1.00  0.00    -0.351 OA
BRANCH  29  30
HETATM   30  C   UNL     1      43.931 -18.502   2.640  1.00  0.00     0.171 C 
HETATM   31  C   UNL     1      43.326 -19.850   2.289  1.00  0.00     0.034 C 
ENDBRANCH  29  30
ENDBRANCH  26  29
ENDBRANCH   1  19
TORSDOF 7
ENDMDL
MODEL 5
REMARK VINA RESULT:      -8.3      2.805      9.364
REMARK  7 active torsions:
REMARK  status: ('A' for Active; 'I' for Inactive)
REMARK    1  A    between atoms: C_2  and  O_3 
REMARK    2  A    between atoms: O_3  and  C_4 
REMARK    3  A    between atoms: C_9  and  C_10 
REMARK       I    between atoms: C_10  and  N_11 
REMARK    4  A    between atoms: N_11  and  C_12 
REMARK    5  A    between atoms: C_12  and  C_13 
REMARK    6  A    between atoms: C_14  and  C_15 
REMARK    7  A    between atoms: C_15  and  N_16 
ROOT
HETATM    1  C   UNL     1      43.871 -11.796   5.462  1.00  0.00     0.276 C 
HETATM    2  N   UNL     1      43.232 -13.025   5.392  1.00  0.00    -0.351 N 
HETATM    3  O   UNL     1      44.479 -11.351   4.488  1.00  0.00    -0.265 OA
HETATM    4  H   UNL     1      42.639 -13.270   6.178  1.00  0.00     0.163 HD
ENDROOT
BRANCH   2   5
HETATM    5  C   UNL     1      42.839 -13.544   4.106  1.00  0.00     0.162 C 
BRANCH   5   6
HETATM    6  C   UNL     1      43.065 -15.032   4.009  1.00  0.00    -0.033 A 
HETATM    7  C   UNL     1      42.851 -15.768   2.821  1.00  0.00    -0.025 A 
HETATM    8  C   UNL     1      43.094 -17.158   2.830  1.00  0.00     0.009 A 
HETATM    9  C   UNL     1      43.531 -17.806   3.984  1.00  0.00     0.001 A 
HETATM   10  C   UNL     1      43.744 -17.079   5.148  1.00  0.00     0.001 A 
HETATM   11  C   UNL     1      43.519 -15.705   5.159  1.00  0.00     0.009 A 
BRANCH   7  12
HETATM   12  C   UNL     1      42.371 -15.138   1.532  1.00  0.00     0.274 C 
BRANCH  12  13
HETATM   13  N   UNL     1      40.918 -15.440   1.231  1.00  0.00    -0.067 N 
HETATM   14  H   UNL     1      40.874 -16.416   0.917  1.00  0.00     0.280 HD
HETATM   15  C   UNL     1      40.330 -14.550   0.168  1.00  0.00     0.235 C 
HETATM   16  C   UNL     1      39.858 -13.328   0.929  1.00  0.00     0.029 C 
HETATM   17  C   UNL     1      39.544 -13.813   2.338  1.00  0.00     0.029 C 
HETATM   18  C   UNL     1      39.984 -15.266   2.400  1.00  0.00     0.235 C 
ENDBRANCH  12  13
ENDBRANCH   7  12
ENDBRANCH   5   6
ENDBRANCH   2   5
BRANCH   1  19
HETATM   19  C   UNL     1      43.712 -11.096   6.717  1.00  0.00     0.150 A 
HETATM   20  O   UNL     1      44.732 -11.227   7.617  1.00  0.00    -0.304 OA
HETATM   21  C   UNL     1      44.446 -10.440   8.684  1.00  0.00     0.087 A 
HETATM   22  C   UNL     1      43.219  -9.817   8.505  1.00  0.00     0.009 A 
HETATM   23  C   UNL     1      45.260 -10.265   9.798  1.00  0.00     0.041 A 
HETATM   24  C   UNL     1      42.754  -8.971   9.531  1.00  0.00     0.051 A 
HETATM   25  C   UNL     1      42.736 -10.246   7.227  1.00  0.00    -0.009 A 
HETATM   26  C   UNL     1      43.537  -8.785  10.684  1.00  0.00     0.069 A 
HETATM   27  C   UNL     1      44.780  -9.413  10.802  1.00  0.00     0.039 A 
HETATM   28  C   UNL     1      41.442  -9.857   6.612  1.00  0.00     0.052 C 
BRANCH  26  29
HETATM   29  O   UNL     1      42.974  -7.955  11.618  1.00  0.00    -0.351 OA
BRANCH  29  30
HETATM   30  C   UNL     1      43.108  -8.337  12.987  1.00  0.00     0.171 C 
HETATM   31  C   UNL     1      43.096  -7.075  13.832  1.00  0.00     0.034 C 
ENDBRANCH  29  30
ENDBRANCH  26  29
ENDBRANCH   1  19
TORSDOF 7
ENDMDL
MODEL 6
REMARK VINA RESULT:      -8.2      3.576      8.593
REMARK  7 active torsions:
REMARK  status: ('A' for Active; 'I' for Inactive)
REMARK    1  A    between atoms: C_2  and  O_3 
REMARK    2  A    between atoms: O_3  and  C_4 
REMARK    3  A    between atoms: C_9  and  C_10 
REMARK       I    between atoms: C_10  and  N_11 
REMARK    4  A    between atoms: N_11  and  C_12 
REMARK    5  A    between atoms: C_12  and  C_13 
REMARK    6  A    between atoms: C_14  and  C_15 
REMARK    7  A    between atoms: C_15  and  N_16 
ROOT
HETATM    1  C   UNL     1      42.659 -15.621   7.320  1.00  0.00     0.276 C 
HETATM    2  N   UNL     1      42.607 -16.744   6.507  1.00  0.00    -0.351 N 
HETATM    3  O   UNL     1      43.109 -15.696   8.463  1.00  0.00    -0.265 OA
HETATM    4  H   UNL     1      42.354 -16.587   5.538  1.00  0.00     0.163 HD
ENDROOT
BRANCH   2   5
HETATM    5  C   UNL     1      43.501 -17.845   6.768  1.00  0.00     0.162 C 
BRANCH   5   6
HETATM    6  C   UNL     1      43.649 -18.742   5.566  1.00  0.00    -0.033 A 
HETATM    7  C   UNL     1      43.731 -18.251   4.242  1.00  0.00    -0.025 A 
HETATM    8  C   UNL     1      43.873 -19.172   3.183  1.00  0.00     0.009 A 
HETATM    9  C   UNL     1      43.927 -20.543   3.423  1.00  0.00     0.001 A 
HETATM   10  C   UNL     1      43.850 -21.023   4.724  1.00  0.00     0.001 A 
HETATM   11  C   UNL     1      43.719 -20.131   5.785  1.00  0.00     0.009 A 
BRANCH   7  12
HETATM   12  C   UNL     1      43.673 -16.778   3.902  1.00  0.00     0.274 C 
BRANCH  12  13
HETATM   13  N   UNL     1      43.004 -16.503   2.572  1.00  0.00    -0.067 N 
HETATM   14  H   UNL     1      43.279 -17.261   1.936  1.00  0.00     0.280 HD
HETATM   15  C   UNL     1      43.398 -15.182   1.967  1.00  0.00     0.235 C 
HETATM   16  C   UNL     1      42.436 -14.190   2.588  1.00  0.00     0.029 C 
HETATM   17  C   UNL     1      41.180 -14.983   2.923  1.00  0.00     0.029 C 
HETATM   18  C   UNL     1      41.500 -16.439   2.625  1.00  0.00     0.235 C 
ENDBRANCH  12  13
ENDBRANCH   7  12
ENDBRANCH   5   6
ENDBRANCH   2   5
BRANCH   1  19
HETATM   19  C   UNL     1      42.204 -14.397   6.698  1.00  0.00     0.150 A 
HETATM   20  O   UNL     1      40.873 -14.331   6.395  1.00  0.00    -0.304 OA
HETATM   21  C   UNL     1      40.622 -13.091   5.905  1.00  0.00     0.087 A 
HETATM   22  C   UNL     1      41.794 -12.351   5.850  1.00  0.00     0.009 A 
HETATM   23  C   UNL     1      39.374 -12.614   5.519  1.00  0.00     0.041 A 
HETATM   24  C   UNL     1      41.721 -11.037   5.346  1.00  0.00     0.051 A 
HETATM   25  C   UNL     1      42.827 -13.200   6.362  1.00  0.00    -0.009 A 
HETATM   26  C   UNL     1      40.482 -10.525   4.924  1.00  0.00     0.069 A 
HETATM   27  C   UNL     1      39.324 -11.302   5.028  1.00  0.00     0.039 A 
HETATM   28  C   UNL     1      44.265 -12.847   6.476  1.00  0.00     0.052 C 
BRANCH  26  29
HETATM   29  O   UNL     1      40.538  -9.245   4.438  1.00  0.00    -0.351 OA
BRANCH  29  30
HETATM   30  C   UNL     1      39.603  -8.308   4.973  1.00  0.00     0.171 C 
HETATM   31  C   UNL     1      40.230  -7.662   6.196  1.00  0.00     0.034 C 
ENDBRANCH  29  30
ENDBRANCH  26  29
ENDBRANCH   1  19
TORSDOF 7
ENDMDL
MODEL 7
REMARK VINA RESULT:      -8.0      1.555      3.706
REMARK  7 active torsions:
REMARK  status: ('A' for Active; 'I' for Inactive)
REMARK    1  A    between atoms: C_2  and  O_3 
REMARK    2  A    between atoms: O_3  and  C_4 
REMARK    3  A    between atoms: C_9  and  C_10 
REMARK       I    between atoms: C_10  and  N_11 
REMARK    4  A    between atoms: N_11  and  C_12 
REMARK    5  A    between atoms: C_12  and  C_13 
REMARK    6  A    between atoms: C_14  and  C_15 
REMARK    7  A    between atoms: C_15  and  N_16 
ROOT
HETATM    1  C   UNL     1      40.638 -12.461   5.224  1.00  0.00     0.276 C 
HETATM    2  N   UNL     1      40.972 -11.736   6.358  1.00  0.00    -0.351 N 
HETATM    3  O   UNL     1      39.786 -12.042   4.441  1.00  0.00    -0.265 OA
HETATM    4  H   UNL     1      41.772 -12.067   6.885  1.00  0.00     0.163 HD
ENDROOT
BRANCH   2   5
HETATM    5  C   UNL     1      40.730 -10.315   6.384  1.00  0.00     0.162 C 
BRANCH   5   6
HETATM    6  C   UNL     1      40.638  -9.787   7.793  1.00  0.00    -0.033 A 
HETATM    7  C   UNL     1      41.764  -9.335   8.521  1.00  0.00    -0.025 A 
HETATM    8  C   UNL     1      41.575  -8.854   9.834  1.00  0.00     0.009 A 
HETATM    9  C   UNL     1      40.309  -8.827  10.416  1.00  0.00     0.001 A 
HETATM   10  C   UNL     1      39.206  -9.269   9.697  1.00  0.00     0.001 A 
HETATM   11  C   UNL     1      39.368  -9.738   8.396  1.00  0.00     0.009 A 
BRANCH   7  12
HETATM   12  C   UNL     1      43.168  -9.340   7.959  1.00  0.00     0.274 C 
BRANCH  12  13
HETATM   13  N   UNL     1      44.031 -10.444   8.534  1.00  0.00    -0.067 N 
HETATM   14  H   UNL     1      43.497 -10.875   9.298  1.00  0.00     0.280 HD
HETATM   15  C   UNL     1      45.352  -9.955   9.066  1.00  0.00     0.235 C 
HETATM   16  C   UNL     1      46.261  -9.955   7.855  1.00  0.00     0.029 C 
HETATM   17  C   UNL     1      45.712 -11.028   6.924  1.00  0.00     0.029 C 
HETATM   18  C   UNL     1      44.417 -11.518   7.550  1.00  0.00     0.235 C 
ENDBRANCH  12  13
ENDBRANCH   7  12
ENDBRANCH   5   6
ENDBRANCH   2   5
BRANCH   1  19
HETATM   19  C   UNL     1      41.398 -13.676   5.031  1.00  0.00     0.150 A 
HETATM   20  O   UNL     1      42.439 -13.882   5.893  1.00  0.00    -0.304 OA
HETATM   21  C   UNL     1      42.971 -15.098   5.615  1.00  0.00     0.087 A 
HETATM   22  C   UNL     1      42.306 -15.680   4.546  1.00  0.00     0.009 A 
HETATM   23  C   UNL     1      44.025 -15.693   6.301  1.00  0.00     0.041 A 
HETATM   24  C   UNL     1      42.742 -16.946   4.109  1.00  0.00     0.051 A 
HETATM   25  C   UNL     1      41.284 -14.754   4.161  1.00  0.00    -0.009 A 
HETATM   26  C   UNL     1      43.819 -17.572   4.761  1.00  0.00     0.069 A 
HETATM   27  C   UNL     1      44.437 -16.956   5.853  1.00  0.00     0.039 A 
HETATM   28  C   UNL     1      40.327 -14.934   3.039  1.00  0.00     0.052 C 
BRANCH  26  29
HETATM   29  O   UNL     1      44.163 -18.790   4.237  1.00  0.00    -0.351 OA
BRANCH  29  30
HETATM   30  C   UNL     1      44.117 -18.919   2.815  1.00  0.00     0.171 C 
HETATM   31  C   UNL     1      43.529 -20.280   2.484  1.00  0.00     0.034 C 
ENDBRANCH  29  30
ENDBRANCH  26  29
ENDBRANCH   1  19
TORSDOF 7
ENDMDL
MODEL 8
REMARK VINA RESULT:      -7.9      2.415      4.771
REMARK  7 active torsions:
REMARK  status: ('A' for Active; 'I' for Inactive)
REMARK    1  A    between atoms: C_2  and  O_3 
REMARK    2  A    between atoms: O_3  and  C_4 
REMARK    3  A    between atoms: C_9  and  C_10 
REMARK       I    between atoms: C_10  and  N_11 
REMARK    4  A    between atoms: N_11  and  C_12 
REMARK    5  A    between atoms: C_12  and  C_13 
REMARK    6  A    between atoms: C_14  and  C_15 
REMARK    7  A    between atoms: C_15  and  N_16 
ROOT
HETATM    1  C   UNL     1      39.181 -10.588   6.882  1.00  0.00     0.276 C 
HETATM    2  N   UNL     1      39.713 -10.581   8.162  1.00  0.00    -0.351 N 
HETATM    3  O   UNL     1      38.463  -9.666   6.496  1.00  0.00    -0.265 OA
HETATM    4  H   UNL     1      40.400 -11.296   8.369  1.00  0.00     0.163 HD
ENDROOT
BRANCH   2   5
HETATM    5  C   UNL     1      39.864  -9.325   8.855  1.00  0.00     0.162 C 
BRANCH   5   6
HETATM    6  C   UNL     1      40.447  -9.512  10.233  1.00  0.00    -0.033 A 
HETATM    7  C   UNL     1      41.838  -9.511  10.488  1.00  0.00    -0.025 A 
HETATM    8  C   UNL     1      42.286  -9.690  11.813  1.00  0.00     0.009 A 
HETATM    9  C   UNL     1      41.385  -9.873  12.860  1.00  0.00     0.001 A 
HETATM   10  C   UNL     1      40.020  -9.870  12.607  1.00  0.00     0.001 A 
HETATM   11  C   UNL     1      39.555  -9.685  11.307  1.00  0.00     0.009 A 
BRANCH   7  12
HETATM   12  C   UNL     1      42.877  -9.326   9.403  1.00  0.00     0.274 C 
BRANCH  12  13
HETATM   13  N   UNL     1      44.039 -10.289   9.526  1.00  0.00    -0.067 N 
HETATM   14  H   UNL     1      43.809 -10.941  10.285  1.00  0.00     0.280 HD
HETATM   15  C   UNL     1      45.348  -9.611   9.833  1.00  0.00     0.235 C 
HETATM   16  C   UNL     1      45.890  -9.221   8.474  1.00  0.00     0.029 C 
HETATM   17  C   UNL     1      45.310 -10.230   7.491  1.00  0.00     0.029 C 
HETATM   18  C   UNL     1      44.331 -11.084   8.280  1.00  0.00     0.235 C 
ENDBRANCH  12  13
ENDBRANCH   7  12
ENDBRANCH   5   6
ENDBRANCH   2   5
BRANCH   1  19
HETATM   19  C   UNL     1      39.581 -11.711   6.062  1.00  0.00     0.150 A 
HETATM   20  O   UNL     1      39.899 -12.863   6.726  1.00  0.00    -0.304 OA
HETATM   21  C   UNL     1      40.162 -13.815   5.798  1.00  0.00     0.087 A 
HETATM   22  C   UNL     1      40.055 -13.284   4.521  1.00  0.00     0.009 A 
HETATM   23  C   UNL     1      40.485 -15.141   6.072  1.00  0.00     0.041 A 
HETATM   24  C   UNL     1      40.314 -14.135   3.429  1.00  0.00     0.051 A 
HETATM   25  C   UNL     1      39.681 -11.912   4.690  1.00  0.00    -0.009 A 
HETATM   26  C   UNL     1      40.666 -15.476   3.663  1.00  0.00     0.069 A 
HETATM   27  C   UNL     1      40.732 -15.970   4.970  1.00  0.00     0.039 A 
HETATM   28  C   UNL     1      39.471 -10.928   3.597  1.00  0.00     0.052 C 
BRANCH  26  29
HETATM   29  O   UNL     1      40.911 -16.201   2.527  1.00  0.00    -0.351 OA
BRANCH  29  30
HETATM   30  C   UNL     1      42.060 -17.049   2.535  1.00  0.00     0.171 C 
HETATM   31  C   UNL     1      43.180 -16.332   1.802  1.00  0.00     0.034 C 
ENDBRANCH  29  30
ENDBRANCH  26  29
ENDBRANCH   1  19
TORSDOF 7
ENDMDL
MODEL 9
REMARK VINA RESULT:      -7.8      3.078      9.961
REMARK  7 active torsions:
REMARK  status: ('A' for Active; 'I' for Inactive)
REMARK    1  A    between atoms: C_2  and  O_3 
REMARK    2  A    between atoms: O_3  and  C_4 
REMARK    3  A    between atoms: C_9  and  C_10 
REMARK       I    between atoms: C_10  and  N_11 
REMARK    4  A    between atoms: N_11  and  C_12 
REMARK    5  A    between atoms: C_12  and  C_13 
REMARK    6  A    between atoms: C_14  and  C_15 
REMARK    7  A    between atoms: C_15  and  N_16 
ROOT
HETATM    1  C   UNL     1      44.505 -11.200   8.244  1.00  0.00     0.276 C 
HETATM    2  N   UNL     1      43.586 -12.118   7.758  1.00  0.00    -0.351 N 
HETATM    3  O   UNL     1      45.609 -11.079   7.713  1.00  0.00    -0.265 OA
HETATM    4  H   UNL     1      42.653 -12.073   8.152  1.00  0.00     0.163 HD
ENDROOT
BRANCH   2   5
HETATM    5  C   UNL     1      43.684 -12.558   6.388  1.00  0.00     0.162 C 
BRANCH   5   6
HETATM    6  C   UNL     1      42.329 -12.668   5.737  1.00  0.00    -0.033 A 
HETATM    7  C   UNL     1      41.973 -13.732   4.875  1.00  0.00    -0.025 A 
HETATM    8  C   UNL     1      40.678 -13.749   4.317  1.00  0.00     0.009 A 
HETATM    9  C   UNL     1      39.760 -12.739   4.595  1.00  0.00     0.001 A 
HETATM   10  C   UNL     1      40.111 -11.697   5.444  1.00  0.00     0.001 A 
HETATM   11  C   UNL     1      41.382 -11.666   6.014  1.00  0.00     0.009 A 
BRANCH   7  12
HETATM   12  C   UNL     1      42.917 -14.860   4.520  1.00  0.00     0.274 C 
BRANCH  12  13
HETATM   13  N   UNL     1      42.235 -16.211   4.477  1.00  0.00    -0.067 N 
HETATM   14  H   UNL     1      41.273 -16.073   4.809  1.00  0.00     0.280 HD
HETATM   15  C   UNL     1      42.910 -17.250   5.333  1.00  0.00     0.235 C 
HETATM   16  C   UNL     1      43.983 -17.828   4.434  1.00  0.00     0.029 C 
HETATM   17  C   UNL     1      43.470 -17.654   3.011  1.00  0.00     0.029 C 
HETATM   18  C   UNL     1      42.186 -16.848   3.113  1.00  0.00     0.235 C 
ENDBRANCH  12  13
ENDBRANCH   7  12
ENDBRANCH   5   6
ENDBRANCH   2   5
BRANCH   1  19
HETATM   19  C   UNL     1      44.037 -10.396   9.351  1.00  0.00     0.150 A 
HETATM   20  O   UNL     1      43.576 -11.078  10.443  1.00  0.00    -0.304 OA
HETATM   21  C   UNL     1      43.267 -10.168  11.398  1.00  0.00     0.087 A 
HETATM   22  C   UNL     1      43.486  -8.882  10.926  1.00  0.00     0.009 A 
HETATM   23  C   UNL     1      42.803 -10.466  12.676  1.00  0.00     0.041 A 
HETATM   24  C   UNL     1      43.198  -7.805  11.787  1.00  0.00     0.051 A 
HETATM   25  C   UNL     1      43.984  -9.027   9.590  1.00  0.00    -0.009 A 
HETATM   26  C   UNL     1      42.707  -8.063  13.078  1.00  0.00     0.069 A 
HETATM   27  C   UNL     1      42.530  -9.378  13.517  1.00  0.00     0.039 A 
HETATM   28  C   UNL     1      44.341  -7.917   8.671  1.00  0.00     0.052 C 
BRANCH  26  29
HETATM   29  O   UNL     1      42.447  -6.938  13.816  1.00  0.00    -0.351 OA
BRANCH  29  30
HETATM   30  C   UNL     1      41.347  -6.129  13.398  1.00  0.00     0.171 C 
HETATM   31  C   UNL     1      40.142  -6.497  14.246  1.00  0.00     0.034 C 
ENDBRANCH  29  30
ENDBRANCH  26  29
ENDBRANCH   1  19
TORSDOF 7
ENDMDL
MODEL 10
REMARK VINA RESULT:      -7.8     16.982     19.665
REMARK  7 active torsions:
REMARK  status: ('A' for Active; 'I' for Inactive)
REMARK    1  A    between atoms: C_2  and  O_3 
REMARK    2  A    between atoms: O_3  and  C_4 
REMARK    3  A    between atoms: C_9  and  C_10 
REMARK       I    between atoms: C_10  and  N_11 
REMARK    4  A    between atoms: N_11  and  C_12 
REMARK    5  A    between atoms: C_12  and  C_13 
REMARK    6  A    between atoms: C_14  and  C_15 
REMARK    7  A    between atoms: C_15  and  N_16 
ROOT
HETATM    1  C   UNL     1      48.293 -29.269   0.640  1.00  0.00     0.276 C 
HETATM    2  N   UNL     1      47.905 -28.291  -0.264  1.00  0.00    -0.351 N 
HETATM    3  O   UNL     1      47.697 -29.404   1.709  1.00  0.00    -0.265 OA
HETATM    4  H   UNL     1      48.346 -28.321  -1.176  1.00  0.00     0.163 HD
ENDROOT
BRANCH   2   5
HETATM    5  C   UNL     1      46.556 -27.783  -0.218  1.00  0.00     0.162 C 
BRANCH   5   6
HETATM    6  C   UNL     1      45.712 -28.334  -1.339  1.00  0.00    -0.033 A 
HETATM    7  C   UNL     1      44.764 -29.367  -1.154  1.00  0.00    -0.025 A 
HETATM    8  C   UNL     1      44.019 -29.813  -2.265  1.00  0.00     0.009 A 
HETATM    9  C   UNL     1      44.208 -29.258  -3.529  1.00  0.00     0.001 A 
HETATM   10  C   UNL     1      45.138 -28.242  -3.708  1.00  0.00     0.001 A 
HETATM   11  C   UNL     1      45.878 -27.780  -2.622  1.00  0.00     0.009 A 
BRANCH   7  12
HETATM   12  C   UNL     1      44.508 -30.023   0.185  1.00  0.00     0.274 C 
BRANCH  12  13
HETATM   13  N   UNL     1      43.861 -29.091   1.187  1.00  0.00    -0.067 N 
HETATM   14  H   UNL     1      44.217 -28.148   0.993  1.00  0.00     0.280 HD
HETATM   15  C   UNL     1      44.161 -29.449   2.618  1.00  0.00     0.235 C 
HETATM   16  C   UNL     1      43.101 -30.471   2.973  1.00  0.00     0.029 C 
HETATM   17  C   UNL     1      41.906 -30.155   2.084  1.00  0.00     0.029 C 
HETATM   18  C   UNL     1      42.355 -29.057   1.134  1.00  0.00     0.235 C 
ENDBRANCH  12  13
ENDBRANCH   7  12
ENDBRANCH   5   6
ENDBRANCH   2   5
BRANCH   1  19
HETATM   19  C   UNL     1      49.381 -30.112   0.197  1.00  0.00     0.150 A 
HETATM   20  O   UNL     1      49.822 -29.910  -1.081  1.00  0.00    -0.304 OA
HETATM   21  C   UNL     1      50.888 -30.722  -1.283  1.00  0.00     0.087 A 
HETATM   22  C   UNL     1      51.130 -31.488  -0.153  1.00  0.00     0.009 A 
HETATM   23  C   UNL     1      51.647 -30.783  -2.449  1.00  0.00     0.041 A 
HETATM   24  C   UNL     1      52.198 -32.406  -0.194  1.00  0.00     0.051 A 
HETATM   25  C   UNL     1      50.147 -31.096   0.812  1.00  0.00    -0.009 A 
HETATM   26  C   UNL     1      52.974 -32.514  -1.360  1.00  0.00     0.069 A 
HETATM   27  C   UNL     1      52.708 -31.698  -2.464  1.00  0.00     0.039 A 
HETATM   28  C   UNL     1      49.994 -31.663   2.176  1.00  0.00     0.052 C 
BRANCH  26  29
HETATM   29  O   UNL     1      53.972 -33.451  -1.288  1.00  0.00    -0.351 OA
BRANCH  29  30
HETATM   30  C   UNL     1      55.226 -33.107  -1.877  1.00  0.00     0.171 C 
HETATM   31  C   UNL     1      55.520 -34.111  -2.978  1.00  0.00     0.034 C 
ENDBRANCH  29  30
ENDBRANCH  26  29
ENDBRANCH   1  19
TORSDOF 7
ENDMDL
