MODEL 1
REMARK VINA RESULT:      -8.8      0.000      0.000
REMARK  6 active torsions:
REMARK  status: ('A' for Active; 'I' for Inactive)
REMARK    1  A    between atoms: C_3  and  N_4 
REMARK    2  A    between atoms: N_4  and  C_5 
REMARK    3  A    between atoms: C_5  and  C_6 
REMARK    4  A    between atoms: N_8  and  C_10 
REMARK    5  A    between atoms: C_10  and  C_11 
REMARK    6  A    between atoms: C_12  and  C_13 
ROOT
HETATM    1  C   UNL     1      40.239 -14.132   1.332  1.00  0.00     0.031 C 
HETATM    2  C   UNL     1      40.011 -14.418   2.823  1.00  0.00     0.241 C 
HETATM    3  N   UNL     1      41.395 -14.621   3.413  1.00  0.00    -0.067 N 
HETATM    4  H   UNL     1      41.533 -13.903   4.138  1.00  0.00     0.280 HD
HETATM    5  C   UNL     1      42.410 -14.332   2.328  1.00  0.00     0.235 C 
HETATM    6  C   UNL     1      41.631 -13.505   1.327  1.00  0.00     0.035 C 
ENDROOT
BRANCH   3   7
HETATM    7  C   UNL     1      41.582 -15.939   4.134  1.00  0.00     0.277 C 
BRANCH   7   8
HETATM    8  C   UNL     1      42.783 -15.979   5.004  1.00  0.00     0.016 A 
HETATM    9  C   UNL     1      43.735 -17.042   5.134  1.00  0.00     0.102 A 
HETATM   10  N   UNL     1      44.718 -16.689   5.969  1.00  0.00    -0.174 NA
HETATM   11  N   UNL     1      44.360 -15.502   6.465  1.00  0.00    -0.288 N 
HETATM   12  H   UNL     1      44.950 -15.082   7.180  1.00  0.00     0.188 HD
HETATM   13  C   UNL     1      43.218 -15.015   5.898  1.00  0.00     0.120 A 
BRANCH   9  14
HETATM   14  C   UNL     1      43.761 -18.354   4.502  1.00  0.00     0.072 A 
HETATM   15  C   UNL     1      43.835 -18.502   3.114  1.00  0.00     0.132 A 
HETATM   16  F   UNL     1      43.819 -17.423   2.311  1.00  0.00    -0.205 F 
HETATM   17  C   UNL     1      43.893 -19.762   2.519  1.00  0.00     0.043 A 
HETATM   18  C   UNL     1      43.873 -20.907   3.315  1.00  0.00     0.006 A 
HETATM   19  C   UNL     1      43.787 -20.781   4.701  1.00  0.00     0.043 A 
HETATM   20  C   UNL     1      43.733 -19.513   5.282  1.00  0.00     0.132 A 
HETATM   21  F   UNL     1      43.609 -19.435   6.615  1.00  0.00    -0.205 F 
ENDBRANCH   9  14
ENDBRANCH   7   8
ENDBRANCH   3   7
BRANCH   1  22
HETATM   22  C   UNL     1      40.118 -15.414   0.485  1.00  0.00     0.127 C 
BRANCH  22  23
HETATM   23  N   UNL     1      39.143 -15.249  -0.592  1.00  0.00    -0.376 N 
HETATM   24  H   UNL     1      38.672 -16.091  -0.910  1.00  0.00     0.161 HD
BRANCH  23  25
HETATM   25  C   UNL     1      39.145 -14.144  -1.420  1.00  0.00     0.100 A 
HETATM   26  C   UNL     1      40.248 -13.713  -2.171  1.00  0.00     0.048 A 
HETATM   27  C   UNL     1      40.162 -12.564  -2.957  1.00  0.00     0.005 A 
HETATM   28  C   UNL     1      38.982 -11.834  -2.976  1.00  0.00     0.017 A 
HETATM   29  C   UNL     1      37.916 -12.274  -2.210  1.00  0.00     0.089 A 
HETATM   30  N   UNL     1      38.030 -13.392  -1.475  1.00  0.00    -0.353 N 
HETATM   31  H   UNL     1      37.234 -13.675  -0.911  1.00  0.00     0.166 HD
ENDBRANCH  23  25
ENDBRANCH  22  23
ENDBRANCH   1  22
TORSDOF 6
ENDMDL
MODEL 2
REMARK VINA RESULT:      -8.5      3.408      7.126
REMARK  6 active torsions:
REMARK  status: ('A' for Active; 'I' for Inactive)
REMARK    1  A    between atoms: C_3  and  N_4 
REMARK    2  A    between atoms: N_4  and  C_5 
REMARK    3  A    between atoms: C_5  and  C_6 
REMARK    4  A    between atoms: N_8  and  C_10 
REMARK    5  A    between atoms: C_10  and  C_11 
REMARK    6  A    between atoms: C_12  and  C_13 
ROOT
HETATM    1  C   UNL     1      42.688 -16.008   6.694  1.00  0.00     0.031 C 
HETATM    2  C   UNL     1      42.988 -14.562   7.114  1.00  0.00     0.241 C 
HETATM    3  N   UNL     1      41.758 -13.763   6.724  1.00  0.00    -0.067 N 
HETATM    4  H   UNL     1      41.371 -13.348   7.584  1.00  0.00     0.280 HD
HETATM    5  C   UNL     1      40.716 -14.733   6.212  1.00  0.00     0.235 C 
HETATM    6  C   UNL     1      41.164 -16.064   6.778  1.00  0.00     0.035 C 
ENDROOT
BRANCH   3   7
HETATM    7  C   UNL     1      42.038 -12.582   5.818  1.00  0.00     0.277 C 
BRANCH   7   8
HETATM    8  C   UNL     1      40.954 -12.307   4.843  1.00  0.00     0.016 A 
HETATM    9  C   UNL     1      40.737 -12.936   3.575  1.00  0.00     0.102 A 
HETATM   10  N   UNL     1      39.621 -12.468   3.005  1.00  0.00    -0.174 NA
HETATM   11  N   UNL     1      39.197 -11.485   3.802  1.00  0.00    -0.288 N 
HETATM   12  H   UNL     1      38.384 -10.945   3.510  1.00  0.00     0.188 HD
HETATM   13  C   UNL     1      39.946 -11.362   4.937  1.00  0.00     0.120 A 
BRANCH   9  14
HETATM   14  C   UNL     1      41.522 -13.956   2.893  1.00  0.00     0.072 A 
HETATM   15  C   UNL     1      41.005 -15.226   2.624  1.00  0.00     0.132 A 
HETATM   16  F   UNL     1      39.776 -15.568   3.050  1.00  0.00    -0.205 F 
HETATM   17  C   UNL     1      41.753 -16.186   1.941  1.00  0.00     0.043 A 
HETATM   18  C   UNL     1      43.046 -15.885   1.516  1.00  0.00     0.006 A 
HETATM   19  C   UNL     1      43.584 -14.627   1.785  1.00  0.00     0.043 A 
HETATM   20  C   UNL     1      42.823 -13.676   2.466  1.00  0.00     0.132 A 
HETATM   21  F   UNL     1      43.391 -12.494   2.743  1.00  0.00    -0.205 F 
ENDBRANCH   9  14
ENDBRANCH   7   8
ENDBRANCH   3   7
BRANCH   1  22
HETATM   22  C   UNL     1      43.257 -16.320   5.296  1.00  0.00     0.127 C 
BRANCH  22  23
HETATM   23  N   UNL     1      44.279 -17.363   5.361  1.00  0.00    -0.376 N 
HETATM   24  H   UNL     1      45.208 -17.071   5.652  1.00  0.00     0.161 HD
BRANCH  23  25
HETATM   25  C   UNL     1      44.148 -18.561   4.686  1.00  0.00     0.100 A 
HETATM   26  C   UNL     1      44.004 -18.682   3.297  1.00  0.00     0.048 A 
HETATM   27  C   UNL     1      43.848 -19.937   2.709  1.00  0.00     0.005 A 
HETATM   28  C   UNL     1      43.814 -21.069   3.511  1.00  0.00     0.017 A 
HETATM   29  C   UNL     1      43.941 -20.917   4.881  1.00  0.00     0.089 A 
HETATM   30  N   UNL     1      44.103 -19.695   5.411  1.00  0.00    -0.353 N 
HETATM   31  H   UNL     1      44.174 -19.619   6.422  1.00  0.00     0.166 HD
ENDBRANCH  23  25
ENDBRANCH  22  23
ENDBRANCH   1  22
TORSDOF 6
ENDMDL
MODEL 3
REMARK VINA RESULT:      -8.5      3.680      6.388
REMARK  6 active torsions:
REMARK  status: ('A' for Active; 'I' for Inactive)
REMARK    1  A    between atoms: C_3  and  N_4 
REMARK    2  A    between atoms: N_4  and  C_5 
REMARK    3  A    between atoms: C_5  and  C_6 
REMARK    4  A    between atoms: N_8  and  C_10 
REMARK    5  A    between atoms: C_10  and  C_11 
REMARK    6  A    between atoms: C_12  and  C_13 
ROOT
HETATM    1  C   UNL     1      42.621 -13.028   4.606  1.00  0.00     0.031 C 
HETATM    2  C   UNL     1      42.838 -14.538   4.440  1.00  0.00     0.241 C 
HETATM    3  N   UNL     1      41.447 -15.137   4.328  1.00  0.00    -0.067 N 
HETATM    4  H   UNL     1      41.383 -15.605   3.413  1.00  0.00     0.280 HD
HETATM    5  C   UNL     1      40.451 -13.999   4.297  1.00  0.00     0.235 C 
HETATM    6  C   UNL     1      41.291 -12.806   3.891  1.00  0.00     0.035 C 
ENDROOT
BRANCH   3   7
HETATM    7  C   UNL     1      41.150 -16.225   5.339  1.00  0.00     0.277 C 
BRANCH   7   8
HETATM    8  C   UNL     1      42.182 -16.357   6.396  1.00  0.00     0.016 A 
HETATM    9  C   UNL     1      43.222 -17.339   6.486  1.00  0.00     0.102 A 
HETATM   10  N   UNL     1      44.000 -17.100   7.548  1.00  0.00    -0.174 NA
HETATM   11  N   UNL     1      43.421 -16.088   8.197  1.00  0.00    -0.288 N 
HETATM   12  H   UNL     1      43.825 -15.789   9.083  1.00  0.00     0.188 HD
HETATM   13  C   UNL     1      42.339 -15.583   7.534  1.00  0.00     0.120 A 
BRANCH   9  14
HETATM   14  C   UNL     1      43.516 -18.469   5.616  1.00  0.00     0.072 A 
HETATM   15  C   UNL     1      43.876 -18.295   4.278  1.00  0.00     0.132 A 
HETATM   16  F   UNL     1      43.900 -17.067   3.731  1.00  0.00    -0.205 F 
HETATM   17  C   UNL     1      44.187 -19.383   3.461  1.00  0.00     0.043 A 
HETATM   18  C   UNL     1      44.138 -20.676   3.979  1.00  0.00     0.006 A 
HETATM   19  C   UNL     1      43.769 -20.872   5.309  1.00  0.00     0.043 A 
HETATM   20  C   UNL     1      43.463 -19.774   6.114  1.00  0.00     0.132 A 
HETATM   21  F   UNL     1      43.072 -20.007   7.376  1.00  0.00    -0.205 F 
ENDBRANCH   9  14
ENDBRANCH   7   8
ENDBRANCH   3   7
BRANCH   1  22
HETATM   22  C   UNL     1      42.616 -12.617   6.093  1.00  0.00     0.127 C 
BRANCH  22  23
HETATM   23  N   UNL     1      43.966 -12.643   6.654  1.00  0.00    -0.376 N 
HETATM   24  H   UNL     1      44.401 -13.557   6.747  1.00  0.00     0.161 HD
BRANCH  23  25
HETATM   25  C   UNL     1      44.470 -11.596   7.400  1.00  0.00     0.100 A 
HETATM   26  C   UNL     1      45.678 -10.936   7.132  1.00  0.00     0.048 A 
HETATM   27  C   UNL     1      46.119  -9.906   7.962  1.00  0.00     0.005 A 
HETATM   28  C   UNL     1      45.366  -9.550   9.072  1.00  0.00     0.017 A 
HETATM   29  C   UNL     1      44.187 -10.233   9.321  1.00  0.00     0.089 A 
HETATM   30  N   UNL     1      43.786 -11.210   8.493  1.00  0.00    -0.353 N 
HETATM   31  H   UNL     1      42.926 -11.702   8.716  1.00  0.00     0.166 HD
ENDBRANCH  23  25
ENDBRANCH  22  23
ENDBRANCH   1  22
TORSDOF 6
ENDMDL
MODEL 4
REMARK VINA RESULT:      -8.4      2.868      6.461
REMARK  6 active torsions:
REMARK  status: ('A' for Active; 'I' for Inactive)
REMARK    1  A    between atoms: C_3  and  N_4 
REMARK    2  A    between atoms: N_4  and  C_5 
REMARK    3  A    between atoms: C_5  and  C_6 
REMARK    4  A    between atoms: N_8  and  C_10 
REMARK    5  A    between atoms: C_10  and  C_11 
REMARK    6  A    between atoms: C_12  and  C_13 
ROOT
HETATM    1  C   UNL     1      40.823 -15.948   1.822  1.00  0.00     0.031 C 
HETATM    2  C   UNL     1      40.281 -15.116   2.992  1.00  0.00     0.241 C 
HETATM    3  N   UNL     1      40.090 -13.715   2.441  1.00  0.00    -0.067 N 
HETATM    4  H   UNL     1      39.092 -13.478   2.532  1.00  0.00     0.280 HD
HETATM    5  C   UNL     1      40.385 -13.755   0.957  1.00  0.00     0.235 C 
HETATM    6  C   UNL     1      40.245 -15.222   0.609  1.00  0.00     0.035 C 
ENDROOT
BRANCH   3   7
HETATM    7  C   UNL     1      40.815 -12.633   3.212  1.00  0.00     0.277 C 
BRANCH   7   8
HETATM    8  C   UNL     1      40.168 -12.278   4.499  1.00  0.00     0.016 A 
HETATM    9  C   UNL     1      40.461 -12.803   5.799  1.00  0.00     0.102 A 
HETATM   10  N   UNL     1      39.712 -12.196   6.727  1.00  0.00    -0.174 NA
HETATM   11  N   UNL     1      38.875 -11.405   6.053  1.00  0.00    -0.288 N 
HETATM   12  H   UNL     1      38.166 -10.895   6.577  1.00  0.00     0.188 HD
HETATM   13  C   UNL     1      39.124 -11.394   4.710  1.00  0.00     0.120 A 
BRANCH   9  14
HETATM   14  C   UNL     1      41.414 -13.829   6.198  1.00  0.00     0.072 A 
HETATM   15  C   UNL     1      41.002 -15.108   6.583  1.00  0.00     0.132 A 
HETATM   16  F   UNL     1      39.693 -15.409   6.659  1.00  0.00    -0.205 F 
HETATM   17  C   UNL     1      41.924 -16.095   6.932  1.00  0.00     0.043 A 
HETATM   18  C   UNL     1      43.289 -15.811   6.903  1.00  0.00     0.006 A 
HETATM   19  C   UNL     1      43.719 -14.537   6.533  1.00  0.00     0.043 A 
HETATM   20  C   UNL     1      42.785 -13.561   6.184  1.00  0.00     0.132 A 
HETATM   21  F   UNL     1      43.237 -12.337   5.875  1.00  0.00    -0.205 F 
ENDBRANCH   9  14
ENDBRANCH   7   8
ENDBRANCH   3   7
BRANCH   1  22
HETATM   22  C   UNL     1      42.363 -16.018   1.843  1.00  0.00     0.127 C 
BRANCH  22  23
HETATM   23  N   UNL     1      42.850 -16.602   3.091  1.00  0.00    -0.376 N 
HETATM   24  H   UNL     1      43.191 -15.952   3.794  1.00  0.00     0.161 HD
BRANCH  23  25
HETATM   25  C   UNL     1      43.230 -17.927   3.182  1.00  0.00     0.100 A 
HETATM   26  C   UNL     1      43.034 -18.883   2.175  1.00  0.00     0.048 A 
HETATM   27  C   UNL     1      43.426 -20.207   2.372  1.00  0.00     0.005 A 
HETATM   28  C   UNL     1      43.993 -20.581   3.581  1.00  0.00     0.017 A 
HETATM   29  C   UNL     1      44.156 -19.619   4.564  1.00  0.00     0.089 A 
HETATM   30  N   UNL     1      43.780 -18.351   4.335  1.00  0.00    -0.353 N 
HETATM   31  H   UNL     1      43.898 -17.675   5.085  1.00  0.00     0.166 HD
ENDBRANCH  23  25
ENDBRANCH  22  23
ENDBRANCH   1  22
TORSDOF 6
ENDMDL
MODEL 5
REMARK VINA RESULT:      -8.4      2.846      7.537
REMARK  6 active torsions:
REMARK  status: ('A' for Active; 'I' for Inactive)
REMARK    1  A    between atoms: C_3  and  N_4 
REMARK    2  A    between atoms: N_4  and  C_5 
REMARK    3  A    between atoms: C_5  and  C_6 
REMARK    4  A    between atoms: N_8  and  C_10 
REMARK    5  A    between atoms: C_10  and  C_11 
REMARK    6  A    between atoms: C_12  and  C_13 
ROOT
HETATM    1  C   UNL     1      42.954 -16.010   6.608  1.00  0.00     0.031 C 
HETATM    2  C   UNL     1      42.949 -15.353   5.221  1.00  0.00     0.241 C 
HETATM    3  N   UNL     1      41.543 -15.551   4.683  1.00  0.00    -0.067 N 
HETATM    4  H   UNL     1      41.139 -14.619   4.517  1.00  0.00     0.280 HD
HETATM    5  C   UNL     1      40.713 -16.187   5.776  1.00  0.00     0.235 C 
HETATM    6  C   UNL     1      41.494 -15.881   7.037  1.00  0.00     0.035 C 
ENDROOT
BRANCH   3   7
HETATM    7  C   UNL     1      41.477 -16.245   3.339  1.00  0.00     0.277 C 
BRANCH   7   8
HETATM    8  C   UNL     1      40.826 -15.436   2.280  1.00  0.00     0.016 A 
HETATM    9  C   UNL     1      40.942 -14.025   2.061  1.00  0.00     0.102 A 
HETATM   10  N   UNL     1      40.259 -13.663   0.969  1.00  0.00    -0.174 NA
HETATM   11  N   UNL     1      39.619 -14.763   0.565  1.00  0.00    -0.288 N 
HETATM   12  H   UNL     1      38.982 -14.687  -0.226  1.00  0.00     0.188 HD
HETATM   13  C   UNL     1      39.946 -15.866   1.301  1.00  0.00     0.120 A 
BRANCH   9  14
HETATM   14  C   UNL     1      41.671 -13.019   2.822  1.00  0.00     0.072 A 
HETATM   15  C   UNL     1      43.064 -12.925   2.773  1.00  0.00     0.132 A 
HETATM   16  F   UNL     1      43.784 -13.813   2.065  1.00  0.00    -0.205 F 
HETATM   17  C   UNL     1      43.752 -11.938   3.480  1.00  0.00     0.043 A 
HETATM   18  C   UNL     1      43.044 -11.022   4.257  1.00  0.00     0.006 A 
HETATM   19  C   UNL     1      41.655 -11.106   4.328  1.00  0.00     0.043 A 
HETATM   20  C   UNL     1      40.981 -12.097   3.614  1.00  0.00     0.132 A 
HETATM   21  F   UNL     1      39.648 -12.172   3.741  1.00  0.00    -0.205 F 
ENDBRANCH   9  14
ENDBRANCH   7   8
ENDBRANCH   3   7
BRANCH   1  22
HETATM   22  C   UNL     1      43.471 -17.461   6.545  1.00  0.00     0.127 C 
BRANCH  22  23
HETATM   23  N   UNL     1      44.373 -17.654   5.411  1.00  0.00    -0.376 N 
HETATM   24  H   UNL     1      44.973 -16.870   5.170  1.00  0.00     0.161 HD
BRANCH  23  25
HETATM   25  C   UNL     1      44.158 -18.634   4.462  1.00  0.00     0.100 A 
HETATM   26  C   UNL     1      43.880 -18.387   3.110  1.00  0.00     0.048 A 
HETATM   27  C   UNL     1      43.648 -19.445   2.232  1.00  0.00     0.005 A 
HETATM   28  C   UNL     1      43.672 -20.748   2.707  1.00  0.00     0.017 A 
HETATM   29  C   UNL     1      43.931 -20.960   4.051  1.00  0.00     0.089 A 
HETATM   30  N   UNL     1      44.163 -19.918   4.865  1.00  0.00    -0.353 N 
HETATM   31  H   UNL     1      44.332 -20.110   5.849  1.00  0.00     0.166 HD
ENDBRANCH  23  25
ENDBRANCH  22  23
ENDBRANCH   1  22
TORSDOF 6
ENDMDL
MODEL 6
REMARK VINA RESULT:      -8.3      3.390      7.264
REMARK  6 active torsions:
REMARK  status: ('A' for Active; 'I' for Inactive)
REMARK    1  A    between atoms: C_3  and  N_4 
REMARK    2  A    between atoms: N_4  and  C_5 
REMARK    3  A    between atoms: C_5  and  C_6 
REMARK    4  A    between atoms: N_8  and  C_10 
REMARK    5  A    between atoms: C_10  and  C_11 
REMARK    6  A    between atoms: C_12  and  C_13 
ROOT
HETATM    1  C   UNL     1      43.054 -11.476   4.960  1.00  0.00     0.031 C 
HETATM    2  C   UNL     1      43.491 -11.575   3.492  1.00  0.00     0.241 C 
HETATM    3  N   UNL     1      42.335 -12.244   2.770  1.00  0.00    -0.067 N 
HETATM    4  H   UNL     1      41.998 -11.589   2.050  1.00  0.00     0.280 HD
HETATM    5  C   UNL     1      41.202 -12.410   3.758  1.00  0.00     0.235 C 
HETATM    6  C   UNL     1      41.533 -11.410   4.846  1.00  0.00     0.035 C 
ENDROOT
BRANCH   3   7
HETATM    7  C   UNL     1      42.712 -13.496   2.007  1.00  0.00     0.277 C 
BRANCH   7   8
HETATM    8  C   UNL     1      41.561 -14.383   1.706  1.00  0.00     0.016 A 
HETATM    9  C   UNL     1      41.223 -15.623   2.338  1.00  0.00     0.102 A 
HETATM   10  N   UNL     1      40.079 -16.105   1.842  1.00  0.00    -0.174 NA
HETATM   11  N   UNL     1      39.749 -15.286   0.841  1.00  0.00    -0.288 N 
HETATM   12  H   UNL     1      38.930 -15.515   0.280  1.00  0.00     0.188 HD
HETATM   13  C   UNL     1      40.591 -14.216   0.732  1.00  0.00     0.120 A 
BRANCH   9  14
HETATM   14  C   UNL     1      41.921 -16.357   3.385  1.00  0.00     0.072 A 
HETATM   15  C   UNL     1      42.975 -17.228   3.098  1.00  0.00     0.132 A 
HETATM   16  F   UNL     1      43.336 -17.467   1.825  1.00  0.00    -0.205 F 
HETATM   17  C   UNL     1      43.659 -17.901   4.111  1.00  0.00     0.043 A 
HETATM   18  C   UNL     1      43.290 -17.711   5.442  1.00  0.00     0.006 A 
HETATM   19  C   UNL     1      42.234 -16.854   5.749  1.00  0.00     0.043 A 
HETATM   20  C   UNL     1      41.561 -16.186   4.725  1.00  0.00     0.132 A 
HETATM   21  F   UNL     1      40.523 -15.404   5.057  1.00  0.00    -0.205 F 
ENDBRANCH   9  14
ENDBRANCH   7   8
ENDBRANCH   3   7
BRANCH   1  22
HETATM   22  C   UNL     1      43.576 -12.667   5.788  1.00  0.00     0.127 C 
BRANCH  22  23
HETATM   23  N   UNL     1      43.445 -12.414   7.222  1.00  0.00    -0.376 N 
HETATM   24  H   UNL     1      42.606 -12.771   7.671  1.00  0.00     0.161 HD
BRANCH  23  25
HETATM   25  C   UNL     1      44.158 -11.418   7.859  1.00  0.00     0.100 A 
HETATM   26  C   UNL     1      45.433 -10.979   7.473  1.00  0.00     0.048 A 
HETATM   27  C   UNL     1      46.087  -9.984   8.200  1.00  0.00     0.005 A 
HETATM   28  C   UNL     1      45.478  -9.444   9.323  1.00  0.00     0.017 A 
HETATM   29  C   UNL     1      44.227  -9.911   9.691  1.00  0.00     0.089 A 
HETATM   30  N   UNL     1      43.621 -10.860   8.960  1.00  0.00    -0.353 N 
HETATM   31  H   UNL     1      42.712 -11.191   9.269  1.00  0.00     0.166 HD
ENDBRANCH  23  25
ENDBRANCH  22  23
ENDBRANCH   1  22
TORSDOF 6
ENDMDL
MODEL 7
REMARK VINA RESULT:      -8.3      2.411      3.843
REMARK  6 active torsions:
REMARK  status: ('A' for Active; 'I' for Inactive)
REMARK    1  A    between atoms: C_3  and  N_4 
REMARK    2  A    between atoms: N_4  and  C_5 
REMARK    3  A    between atoms: C_5  and  C_6 
REMARK    4  A    between atoms: N_8  and  C_10 
REMARK    5  A    between atoms: C_10  and  C_11 
REMARK    6  A    between atoms: C_12  and  C_13 
ROOT
HETATM    1  C   UNL     1      39.751 -11.462   5.443  1.00  0.00     0.031 C 
HETATM    2  C   UNL     1      39.415 -12.708   6.274  1.00  0.00     0.241 C 
HETATM    3  N   UNL     1      40.753 -13.324   6.641  1.00  0.00    -0.067 N 
HETATM    4  H   UNL     1      40.820 -13.334   7.668  1.00  0.00     0.280 HD
HETATM    5  C   UNL     1      41.842 -12.395   6.151  1.00  0.00     0.235 C 
HETATM    6  C   UNL     1      41.127 -11.072   5.978  1.00  0.00     0.035 C 
ENDROOT
BRANCH   3   7
HETATM    7  C   UNL     1      40.910 -14.773   6.229  1.00  0.00     0.277 C 
BRANCH   7   8
HETATM    8  C   UNL     1      42.247 -15.339   6.534  1.00  0.00     0.016 A 
HETATM    9  C   UNL     1      43.237 -15.795   5.604  1.00  0.00     0.102 A 
HETATM   10  N   UNL     1      44.343 -16.181   6.249  1.00  0.00    -0.174 NA
HETATM   11  N   UNL     1      44.045 -16.105   7.548  1.00  0.00    -0.288 N 
HETATM   12  H   UNL     1      44.740 -16.423   8.221  1.00  0.00     0.188 HD
HETATM   13  C   UNL     1      42.806 -15.578   7.778  1.00  0.00     0.120 A 
BRANCH   9  14
HETATM   14  C   UNL     1      43.187 -15.867   4.150  1.00  0.00     0.072 A 
HETATM   15  C   UNL     1      43.261 -14.723   3.352  1.00  0.00     0.132 A 
HETATM   16  F   UNL     1      43.314 -13.502   3.913  1.00  0.00    -0.205 F 
HETATM   17  C   UNL     1      43.246 -14.805   1.959  1.00  0.00     0.043 A 
HETATM   18  C   UNL     1      43.153 -16.050   1.338  1.00  0.00     0.006 A 
HETATM   19  C   UNL     1      43.068 -17.203   2.117  1.00  0.00     0.043 A 
HETATM   20  C   UNL     1      43.086 -17.105   3.509  1.00  0.00     0.132 A 
HETATM   21  F   UNL     1      42.959 -18.233   4.223  1.00  0.00    -0.205 F 
ENDBRANCH   9  14
ENDBRANCH   7   8
ENDBRANCH   3   7
BRANCH   1  22
HETATM   22  C   UNL     1      39.721 -11.766   3.932  1.00  0.00     0.127 C 
BRANCH  22  23
HETATM   23  N   UNL     1      39.454 -13.181   3.681  1.00  0.00    -0.376 N 
HETATM   24  H   UNL     1      39.413 -13.787   4.496  1.00  0.00     0.161 HD
BRANCH  23  25
HETATM   25  C   UNL     1      39.660 -13.758   2.443  1.00  0.00     0.100 A 
HETATM   26  C   UNL     1      39.943 -13.046   1.268  1.00  0.00     0.048 A 
HETATM   27  C   UNL     1      40.106 -13.717   0.057  1.00  0.00     0.005 A 
HETATM   28  C   UNL     1      39.964 -15.096   0.013  1.00  0.00     0.017 A 
HETATM   29  C   UNL     1      39.667 -15.771   1.185  1.00  0.00     0.089 A 
HETATM   30  N   UNL     1      39.530 -15.094   2.337  1.00  0.00    -0.353 N 
HETATM   31  H   UNL     1      39.294 -15.619   3.174  1.00  0.00     0.166 HD
ENDBRANCH  23  25
ENDBRANCH  22  23
ENDBRANCH   1  22
TORSDOF 6
ENDMDL
MODEL 8
REMARK VINA RESULT:      -8.2      2.011      2.601
REMARK  6 active torsions:
REMARK  status: ('A' for Active; 'I' for Inactive)
REMARK    1  A    between atoms: C_3  and  N_4 
REMARK    2  A    between atoms: N_4  and  C_5 
REMARK    3  A    between atoms: C_5  and  C_6 
REMARK    4  A    between atoms: N_8  and  C_10 
REMARK    5  A    between atoms: C_10  and  C_11 
REMARK    6  A    between atoms: C_12  and  C_13 
ROOT
HETATM    1  C   UNL     1      40.726 -12.007   1.941  1.00  0.00     0.031 C 
HETATM    2  C   UNL     1      40.603 -12.407   3.417  1.00  0.00     0.241 C 
HETATM    3  N   UNL     1      41.983 -12.195   4.012  1.00  0.00    -0.067 N 
HETATM    4  H   UNL     1      41.894 -11.498   4.765  1.00  0.00     0.280 HD
HETATM    5  C   UNL     1      42.855 -11.563   2.949  1.00  0.00     0.235 C 
HETATM    6  C   UNL     1      41.855 -10.980   1.972  1.00  0.00     0.035 C 
ENDROOT
BRANCH   3   7
HETATM    7  C   UNL     1      42.572 -13.417   4.684  1.00  0.00     0.277 C 
BRANCH   7   8
HETATM    8  C   UNL     1      41.558 -14.311   5.295  1.00  0.00     0.016 A 
HETATM    9  C   UNL     1      41.442 -15.731   5.149  1.00  0.00     0.102 A 
HETATM   10  N   UNL     1      40.440 -16.198   5.902  1.00  0.00    -0.174 NA
HETATM   11  N   UNL     1      39.844 -15.120   6.415  1.00  0.00    -0.288 N 
HETATM   12  H   UNL     1      39.004 -15.254   6.976  1.00  0.00     0.188 HD
HETATM   13  C   UNL     1      40.492 -13.958   6.105  1.00  0.00     0.120 A 
BRANCH   9  14
HETATM   14  C   UNL     1      42.235 -16.655   4.350  1.00  0.00     0.072 A 
HETATM   15  C   UNL     1      41.971 -16.871   2.995  1.00  0.00     0.132 A 
HETATM   16  F   UNL     1      40.924 -16.273   2.400  1.00  0.00    -0.205 F 
HETATM   17  C   UNL     1      42.757 -17.732   2.229  1.00  0.00     0.043 A 
HETATM   18  C   UNL     1      43.830 -18.401   2.818  1.00  0.00     0.006 A 
HETATM   19  C   UNL     1      44.102 -18.208   4.171  1.00  0.00     0.043 A 
HETATM   20  C   UNL     1      43.309 -17.341   4.924  1.00  0.00     0.132 A 
HETATM   21  F   UNL     1      43.577 -17.215   6.232  1.00  0.00    -0.205 F 
ENDBRANCH   9  14
ENDBRANCH   7   8
ENDBRANCH   3   7
BRANCH   1  22
HETATM   22  C   UNL     1      41.006 -13.230   1.044  1.00  0.00     0.127 C 
BRANCH  22  23
HETATM   23  N   UNL     1      39.763 -13.865   0.609  1.00  0.00    -0.376 N 
HETATM   24  H   UNL     1      39.338 -14.522   1.258  1.00  0.00     0.161 HD
BRANCH  23  25
HETATM   25  C   UNL     1      39.396 -13.922  -0.721  1.00  0.00     0.100 A 
HETATM   26  C   UNL     1      39.281 -12.809  -1.565  1.00  0.00     0.048 A 
HETATM   27  C   UNL     1      38.874 -12.966  -2.889  1.00  0.00     0.005 A 
HETATM   28  C   UNL     1      38.560 -14.231  -3.364  1.00  0.00     0.017 A 
HETATM   29  C   UNL     1      38.665 -15.309  -2.502  1.00  0.00     0.089 A 
HETATM   30  N   UNL     1      39.073 -15.123  -1.237  1.00  0.00    -0.353 N 
HETATM   31  H   UNL     1      39.122 -15.934  -0.627  1.00  0.00     0.166 HD
ENDBRANCH  23  25
ENDBRANCH  22  23
ENDBRANCH   1  22
TORSDOF 6
ENDMDL
MODEL 9
REMARK VINA RESULT:      -8.2      2.427      5.018
REMARK  6 active torsions:
REMARK  status: ('A' for Active; 'I' for Inactive)
REMARK    1  A    between atoms: C_3  and  N_4 
REMARK    2  A    between atoms: N_4  and  C_5 
REMARK    3  A    between atoms: C_5  and  C_6 
REMARK    4  A    between atoms: N_8  and  C_10 
REMARK    5  A    between atoms: C_10  and  C_11 
REMARK    6  A    between atoms: C_12  and  C_13 
ROOT
HETATM    1  C   UNL     1      42.034 -13.188   2.225  1.00  0.00     0.031 C 
HETATM    2  C   UNL     1      42.702 -14.449   2.790  1.00  0.00     0.241 C 
HETATM    3  N   UNL     1      41.589 -15.473   2.921  1.00  0.00    -0.067 N 
HETATM    4  H   UNL     1      41.836 -16.278   2.328  1.00  0.00     0.280 HD
HETATM    5  C   UNL     1      40.334 -14.875   2.326  1.00  0.00     0.235 C 
HETATM    6  C   UNL     1      40.857 -13.763   1.440  1.00  0.00     0.035 C 
ENDROOT
BRANCH   3   7
HETATM    7  C   UNL     1      41.429 -16.053   4.310  1.00  0.00     0.277 C 
BRANCH   7   8
HETATM    8  C   UNL     1      42.666 -15.996   5.128  1.00  0.00     0.016 A 
HETATM    9  C   UNL     1      43.671 -17.008   5.265  1.00  0.00     0.102 A 
HETATM   10  N   UNL     1      44.672 -16.571   6.038  1.00  0.00    -0.174 NA
HETATM   11  N   UNL     1      44.280 -15.379   6.492  1.00  0.00    -0.288 N 
HETATM   12  H   UNL     1      44.879 -14.898   7.161  1.00  0.00     0.188 HD
HETATM   13  C   UNL     1      43.093 -14.971   5.955  1.00  0.00     0.120 A 
BRANCH   9  14
HETATM   14  C   UNL     1      43.732 -18.346   4.694  1.00  0.00     0.072 A 
HETATM   15  C   UNL     1      43.870 -18.556   3.319  1.00  0.00     0.132 A 
HETATM   16  F   UNL     1      43.886 -17.515   2.468  1.00  0.00    -0.205 F 
HETATM   17  C   UNL     1      43.960 -19.841   2.785  1.00  0.00     0.043 A 
HETATM   18  C   UNL     1      43.909 -20.949   3.630  1.00  0.00     0.006 A 
HETATM   19  C   UNL     1      43.760 -20.762   5.003  1.00  0.00     0.043 A 
HETATM   20  C   UNL     1      43.674 -19.470   5.523  1.00  0.00     0.132 A 
HETATM   21  F   UNL     1      43.488 -19.333   6.844  1.00  0.00    -0.205 F 
ENDBRANCH   9  14
ENDBRANCH   7   8
ENDBRANCH   3   7
BRANCH   1  22
HETATM   22  C   UNL     1      41.629 -12.210   3.347  1.00  0.00     0.127 C 
BRANCH  22  23
HETATM   23  N   UNL     1      42.698 -11.253   3.626  1.00  0.00    -0.376 N 
HETATM   24  H   UNL     1      43.178 -10.861   2.821  1.00  0.00     0.161 HD
BRANCH  23  25
HETATM   25  C   UNL     1      43.318 -11.185   4.859  1.00  0.00     0.100 A 
HETATM   26  C   UNL     1      44.620 -11.634   5.122  1.00  0.00     0.048 A 
HETATM   27  C   UNL     1      45.149 -11.550   6.409  1.00  0.00     0.005 A 
HETATM   28  C   UNL     1      44.372 -11.037   7.438  1.00  0.00     0.017 A 
HETATM   29  C   UNL     1      43.084 -10.618   7.151  1.00  0.00     0.089 A 
HETATM   30  N   UNL     1      42.611 -10.702   5.897  1.00  0.00    -0.353 N 
HETATM   31  H   UNL     1      41.655 -10.402   5.727  1.00  0.00     0.166 HD
ENDBRANCH  23  25
ENDBRANCH  22  23
ENDBRANCH   1  22
TORSDOF 6
ENDMDL
MODEL 10
REMARK VINA RESULT:      -8.2      4.309      7.926
REMARK  6 active torsions:
REMARK  status: ('A' for Active; 'I' for Inactive)
REMARK    1  A    between atoms: C_3  and  N_4 
REMARK    2  A    between atoms: N_4  and  C_5 
REMARK    3  A    between atoms: C_5  and  C_6 
REMARK    4  A    between atoms: N_8  and  C_10 
REMARK    5  A    between atoms: C_10  and  C_11 
REMARK    6  A    between atoms: C_12  and  C_13 
ROOT
HETATM    1  C   UNL     1      42.589 -15.970   5.650  1.00  0.00     0.031 C 
HETATM    2  C   UNL     1      42.828 -14.535   6.139  1.00  0.00     0.241 C 
HETATM    3  N   UNL     1      41.461 -14.010   6.541  1.00  0.00    -0.067 N 
HETATM    4  H   UNL     1      41.502 -13.770   7.541  1.00  0.00     0.280 HD
HETATM    5  C   UNL     1      40.472 -15.148   6.416  1.00  0.00     0.235 C 
HETATM    6  C   UNL     1      41.348 -16.383   6.438  1.00  0.00     0.035 C 
ENDROOT
BRANCH   3   7
HETATM    7  C   UNL     1      41.054 -12.726   5.851  1.00  0.00     0.277 C 
BRANCH   7   8
HETATM    8  C   UNL     1      42.075 -12.203   4.910  1.00  0.00     0.016 A 
HETATM    9  C   UNL     1      43.222 -11.401   5.219  1.00  0.00     0.102 A 
HETATM   10  N   UNL     1      43.946 -11.176   4.118  1.00  0.00    -0.174 NA
HETATM   11  N   UNL     1      43.240 -11.696   3.111  1.00  0.00    -0.288 N 
HETATM   12  H   UNL     1      43.590 -11.572   2.163  1.00  0.00     0.188 HD
HETATM   13  C   UNL     1      42.118 -12.351   3.534  1.00  0.00     0.120 A 
BRANCH   9  14
HETATM   14  C   UNL     1      43.662 -10.857   6.496  1.00  0.00     0.072 A 
HETATM   15  C   UNL     1      44.814 -11.320   7.137  1.00  0.00     0.132 A 
HETATM   16  F   UNL     1      45.520 -12.340   6.619  1.00  0.00    -0.205 F 
HETATM   17  C   UNL     1      45.246 -10.770   8.344  1.00  0.00     0.043 A 
HETATM   18  C   UNL     1      44.520  -9.736   8.935  1.00  0.00     0.006 A 
HETATM   19  C   UNL     1      43.362  -9.267   8.316  1.00  0.00     0.043 A 
HETATM   20  C   UNL     1      42.943  -9.826   7.108  1.00  0.00     0.132 A 
HETATM   21  F   UNL     1      41.802  -9.376   6.567  1.00  0.00    -0.205 F 
ENDBRANCH   9  14
ENDBRANCH   7   8
ENDBRANCH   3   7
BRANCH   1  22
HETATM   22  C   UNL     1      42.415 -16.024   4.119  1.00  0.00     0.127 C 
BRANCH  22  23
HETATM   23  N   UNL     1      43.550 -16.687   3.480  1.00  0.00    -0.376 N 
HETATM   24  H   UNL     1      44.127 -16.112   2.872  1.00  0.00     0.161 HD
BRANCH  23  25
HETATM   25  C   UNL     1      43.618 -18.059   3.345  1.00  0.00     0.100 A 
HETATM   26  C   UNL     1      43.144 -18.776   2.236  1.00  0.00     0.048 A 
HETATM   27  C   UNL     1      43.230 -20.167   2.205  1.00  0.00     0.005 A 
HETATM   28  C   UNL     1      43.769 -20.845   3.290  1.00  0.00     0.017 A 
HETATM   29  C   UNL     1      44.211 -20.112   4.378  1.00  0.00     0.089 A 
HETATM   30  N   UNL     1      44.125 -18.772   4.368  1.00  0.00    -0.353 N 
HETATM   31  H   UNL     1      44.443 -18.267   5.190  1.00  0.00     0.166 HD
ENDBRANCH  23  25
ENDBRANCH  22  23
ENDBRANCH   1  22
TORSDOF 6
ENDMDL
