MODEL 1
REMARK VINA RESULT:     -10.4      0.000      0.000
REMARK  7 active torsions:
REMARK  status: ('A' for Active; 'I' for Inactive)
REMARK    1  A    between atoms: C_5  and  O_6 
REMARK    2  A    between atoms: O_6  and  C_7 
REMARK    3  A    between atoms: C_7  and  C_8 
REMARK    4  A    between atoms: C_9  and  C_10 
REMARK    5  A    between atoms: C_10  and  N_11 
REMARK       I    between atoms: N_11  and  C_12 
REMARK    6  A    between atoms: C_12  and  C_13 
REMARK    7  A    between atoms: C_17  and  C_18 
ROOT
HETATM    1  N   UNL     1      43.500 -11.300   8.178  1.00  0.00    -0.345 N 
HETATM    2  C   UNL     1      44.247 -10.751   9.190  1.00  0.00     0.270 C 
HETATM    3  O   UNL     1      45.473 -10.789   9.210  1.00  0.00    -0.266 OA
HETATM    4  H   UNL     1      42.500 -11.370   8.278  1.00  0.00     0.163 HD
ENDROOT
BRANCH   1   5
HETATM    5  C   UNL     1      44.112 -11.964   7.055  1.00  0.00     0.217 C 
BRANCH   5   6
HETATM    6  C   UNL     1      43.671 -13.359   6.975  1.00  0.00    -0.085 C 
HETATM    7  C   UNL     1      43.343 -14.511   6.867  1.00  0.00    -0.078 C 
BRANCH   7   8
HETATM    8  C   UNL     1      42.982 -15.926   6.703  1.00  0.00     0.269 C 
BRANCH   8   9
HETATM    9  O   UNL     1      43.981 -16.562   5.910  1.00  0.00    -0.339 OA
BRANCH   9  10
HETATM   10  C   UNL     1      43.674 -16.867   4.604  1.00  0.00     0.081 A 
HETATM   11  C   UNL     1      43.738 -18.242   4.256  1.00  0.00     0.007 A 
HETATM   12  C   UNL     1      43.436 -18.633   2.929  1.00  0.00    -0.023 A 
HETATM   13  C   UNL     1      44.091 -19.252   5.178  1.00  0.00     0.015 A 
HETATM   14  C   UNL     1      43.496 -19.990   2.568  1.00  0.00     0.012 A 
HETATM   15  C   UNL     1      43.081 -17.661   1.984  1.00  0.00     0.012 A 
HETATM   16  C   UNL     1      43.848 -20.965   3.500  1.00  0.00     0.001 A 
HETATM   17  C   UNL     1      44.146 -20.597   4.806  1.00  0.00     0.001 A 
HETATM   18  C   UNL     1      43.023 -16.314   2.337  1.00  0.00     0.004 A 
HETATM   19  C   UNL     1      43.319 -15.918   3.640  1.00  0.00     0.038 A 
ENDBRANCH   9  10
ENDBRANCH   8   9
ENDBRANCH   7   8
ENDBRANCH   5   6
ENDBRANCH   1   5
BRANCH   2  20
HETATM   20  C   UNL     1      43.494 -10.114  10.236  1.00  0.00     0.120 A 
HETATM   21  N   UNL     1      42.130 -10.048  10.189  1.00  0.00    -0.272 N 
HETATM   22  H   UNL     1      41.530 -10.409   9.453  1.00  0.00     0.189 HD
HETATM   23  N   UNL     1      41.570  -9.437  11.243  1.00  0.00    -0.174 NA
HETATM   24  C   UNL     1      42.602  -9.117  12.039  1.00  0.00     0.089 A 
HETATM   25  C   UNL     1      43.831  -9.507  11.430  1.00  0.00     0.071 A 
BRANCH  24  26
HETATM   26  C   UNL     1      42.395  -8.467  13.339  1.00  0.00    -0.005 A 
HETATM   27  C   UNL     1      43.207  -7.401  13.757  1.00  0.00     0.017 A 
HETATM   28  C   UNL     1      43.005  -6.800  15.005  1.00  0.00     0.043 A 
HETATM   29  C   UNL     1      41.993  -7.262  15.834  1.00  0.00     0.116 A 
HETATM   30  F   UNL     1      41.804  -6.686  17.029  1.00  0.00    -0.206 F 
HETATM   31  C   UNL     1      41.176  -8.315  15.445  1.00  0.00     0.043 A 
HETATM   32  C   UNL     1      41.379  -8.917  14.200  1.00  0.00     0.017 A 
ENDBRANCH  24  26
ENDBRANCH   2  20
TORSDOF 7
ENDMDL
MODEL 2
REMARK VINA RESULT:     -10.0      1.169      2.479
REMARK  7 active torsions:
REMARK  status: ('A' for Active; 'I' for Inactive)
REMARK    1  A    between atoms: C_5  and  O_6 
REMARK    2  A    between atoms: O_6  and  C_7 
REMARK    3  A    between atoms: C_7  and  C_8 
REMARK    4  A    between atoms: C_9  and  C_10 
REMARK    5  A    between atoms: C_10  and  N_11 
REMARK       I    between atoms: N_11  and  C_12 
REMARK    6  A    between atoms: C_12  and  C_13 
REMARK    7  A    between atoms: C_17  and  C_18 
ROOT
HETATM    1  N   UNL     1      43.600 -11.283   7.797  1.00  0.00    -0.345 N 
HETATM    2  C   UNL     1      44.576 -10.760   8.610  1.00  0.00     0.270 C 
HETATM    3  O   UNL     1      45.770 -10.995   8.455  1.00  0.00    -0.266 OA
HETATM    4  H   UNL     1      42.631 -11.178   8.050  1.00  0.00     0.163 HD
ENDROOT
BRANCH   1   5
HETATM    5  C   UNL     1      43.918 -12.151   6.691  1.00  0.00     0.217 C 
BRANCH   5   6
HETATM    6  C   UNL     1      43.516 -13.529   6.983  1.00  0.00    -0.085 C 
HETATM    7  C   UNL     1      43.206 -14.653   7.274  1.00  0.00    -0.078 C 
BRANCH   7   8
HETATM    8  C   UNL     1      42.837 -16.018   7.679  1.00  0.00     0.269 C 
BRANCH   8   9
HETATM    9  O   UNL     1      42.097 -16.621   6.621  1.00  0.00    -0.339 OA
BRANCH   9  10
HETATM   10  C   UNL     1      42.789 -17.331   5.668  1.00  0.00     0.081 A 
HETATM   11  C   UNL     1      42.707 -16.832   4.341  1.00  0.00     0.007 A 
HETATM   12  C   UNL     1      43.394 -17.510   3.304  1.00  0.00    -0.023 A 
HETATM   13  C   UNL     1      41.969 -15.677   3.999  1.00  0.00     0.015 A 
HETATM   14  C   UNL     1      43.323 -17.029   1.986  1.00  0.00     0.012 A 
HETATM   15  C   UNL     1      44.139 -18.659   3.604  1.00  0.00     0.012 A 
HETATM   16  C   UNL     1      42.585 -15.887   1.678  1.00  0.00     0.001 A 
HETATM   17  C   UNL     1      41.907 -15.210   2.684  1.00  0.00     0.001 A 
HETATM   18  C   UNL     1      44.210 -19.141   4.909  1.00  0.00     0.004 A 
HETATM   19  C   UNL     1      43.537 -18.481   5.937  1.00  0.00     0.038 A 
ENDBRANCH   9  10
ENDBRANCH   8   9
ENDBRANCH   7   8
ENDBRANCH   5   6
ENDBRANCH   1   5
BRANCH   2  20
HETATM   20  C   UNL     1      44.104  -9.904   9.665  1.00  0.00     0.120 A 
HETATM   21  N   UNL     1      43.902  -8.568   9.457  1.00  0.00    -0.272 N 
HETATM   22  H   UNL     1      44.060  -8.058   8.594  1.00  0.00     0.189 HD
HETATM   23  N   UNL     1      43.447  -7.906  10.531  1.00  0.00    -0.174 NA
HETATM   24  C   UNL     1      43.308  -8.847  11.478  1.00  0.00     0.089 A 
HETATM   25  C   UNL     1      43.732 -10.113  10.978  1.00  0.00     0.071 A 
BRANCH  24  26
HETATM   26  C   UNL     1      42.777  -8.523  12.808  1.00  0.00    -0.005 A 
HETATM   27  C   UNL     1      41.727  -9.264  13.373  1.00  0.00     0.017 A 
HETATM   28  C   UNL     1      41.223  -8.935  14.636  1.00  0.00     0.043 A 
HETATM   29  C   UNL     1      41.767  -7.866  15.335  1.00  0.00     0.116 A 
HETATM   30  F   UNL     1      41.280  -7.552  16.543  1.00  0.00    -0.206 F 
HETATM   31  C   UNL     1      42.805  -7.116  14.799  1.00  0.00     0.043 A 
HETATM   32  C   UNL     1      43.307  -7.443  13.537  1.00  0.00     0.017 A 
ENDBRANCH  24  26
ENDBRANCH   2  20
TORSDOF 7
ENDMDL
MODEL 3
REMARK VINA RESULT:      -9.9      6.581     10.007
REMARK  7 active torsions:
REMARK  status: ('A' for Active; 'I' for Inactive)
REMARK    1  A    between atoms: C_5  and  O_6 
REMARK    2  A    between atoms: O_6  and  C_7 
REMARK    3  A    between atoms: C_7  and  C_8 
REMARK    4  A    between atoms: C_9  and  C_10 
REMARK    5  A    between atoms: C_10  and  N_11 
REMARK       I    between atoms: N_11  and  C_12 
REMARK    6  A    between atoms: C_12  and  C_13 
REMARK    7  A    between atoms: C_17  and  C_18 
ROOT
HETATM    1  N   UNL     1      42.438 -12.015   4.947  1.00  0.00    -0.345 N 
HETATM    2  C   UNL     1      43.127 -11.595   3.836  1.00  0.00     0.270 C 
HETATM    3  O   UNL     1      44.291 -11.210   3.879  1.00  0.00    -0.266 OA
HETATM    4  H   UNL     1      41.447 -12.183   4.886  1.00  0.00     0.163 HD
ENDROOT
BRANCH   1   5
HETATM    5  C   UNL     1      43.044 -12.035   6.255  1.00  0.00     0.217 C 
BRANCH   5   6
HETATM    6  C   UNL     1      43.128 -13.406   6.765  1.00  0.00    -0.085 C 
HETATM    7  C   UNL     1      43.142 -14.530   7.191  1.00  0.00    -0.078 C 
BRANCH   7   8
HETATM    8  C   UNL     1      43.108 -15.905   7.710  1.00  0.00     0.269 C 
BRANCH   8   9
HETATM    9  O   UNL     1      42.273 -16.690   6.863  1.00  0.00    -0.339 OA
BRANCH   9  10
HETATM   10  C   UNL     1      42.820 -17.206   5.712  1.00  0.00     0.081 A 
HETATM   11  C   UNL     1      42.168 -16.851   4.501  1.00  0.00     0.007 A 
HETATM   12  C   UNL     1      42.674 -17.345   3.274  1.00  0.00    -0.023 A 
HETATM   13  C   UNL     1      41.028 -16.018   4.458  1.00  0.00     0.015 A 
HETATM   14  C   UNL     1      42.041 -17.003   2.067  1.00  0.00     0.012 A 
HETATM   15  C   UNL     1      43.805 -18.173   3.274  1.00  0.00     0.012 A 
HETATM   16  C   UNL     1      40.915 -16.180   2.056  1.00  0.00     0.001 A 
HETATM   17  C   UNL     1      40.408 -15.686   3.252  1.00  0.00     0.001 A 
HETATM   18  C   UNL     1      44.435 -18.516   4.468  1.00  0.00     0.004 A 
HETATM   19  C   UNL     1      43.945 -18.036   5.682  1.00  0.00     0.038 A 
ENDBRANCH   9  10
ENDBRANCH   8   9
ENDBRANCH   7   8
ENDBRANCH   5   6
ENDBRANCH   1   5
BRANCH   2  20
HETATM   20  C   UNL     1      42.391 -11.641   2.601  1.00  0.00     0.120 A 
HETATM   21  N   UNL     1      42.053 -10.499   1.933  1.00  0.00    -0.272 N 
HETATM   22  H   UNL     1      42.261  -9.546   2.217  1.00  0.00     0.189 HD
HETATM   23  N   UNL     1      41.382 -10.706   0.791  1.00  0.00    -0.174 NA
HETATM   24  C   UNL     1      41.303 -12.040   0.679  1.00  0.00     0.089 A 
HETATM   25  C   UNL     1      41.907 -12.664   1.810  1.00  0.00     0.071 A 
BRANCH  24  26
HETATM   26  C   UNL     1      40.672 -12.676  -0.484  1.00  0.00    -0.005 A 
HETATM   27  C   UNL     1      40.889 -12.192  -1.784  1.00  0.00     0.017 A 
HETATM   28  C   UNL     1      40.270 -12.799  -2.882  1.00  0.00     0.043 A 
HETATM   29  C   UNL     1      39.436 -13.891  -2.683  1.00  0.00     0.116 A 
HETATM   30  F   UNL     1      38.843 -14.469  -3.736  1.00  0.00    -0.206 F 
HETATM   31  C   UNL     1      39.204 -14.389  -1.408  1.00  0.00     0.043 A 
HETATM   32  C   UNL     1      39.819 -13.780  -0.311  1.00  0.00     0.017 A 
ENDBRANCH  24  26
ENDBRANCH   2  20
TORSDOF 7
ENDMDL
MODEL 4
REMARK VINA RESULT:      -9.2      2.395      3.745
REMARK  7 active torsions:
REMARK  status: ('A' for Active; 'I' for Inactive)
REMARK    1  A    between atoms: C_5  and  O_6 
REMARK    2  A    between atoms: O_6  and  C_7 
REMARK    3  A    between atoms: C_7  and  C_8 
REMARK    4  A    between atoms: C_9  and  C_10 
REMARK    5  A    between atoms: C_10  and  N_11 
REMARK       I    between atoms: N_11  and  C_12 
REMARK    6  A    between atoms: C_12  and  C_13 
REMARK    7  A    between atoms: C_17  and  C_18 
ROOT
HETATM    1  N   UNL     1      43.422 -11.425   4.990  1.00  0.00    -0.345 N 
HETATM    2  C   UNL     1      44.646 -11.197   5.569  1.00  0.00     0.270 C 
HETATM    3  O   UNL     1      45.697 -11.215   4.937  1.00  0.00    -0.266 OA
HETATM    4  H   UNL     1      42.608 -11.541   5.572  1.00  0.00     0.163 HD
ENDROOT
BRANCH   1   5
HETATM    5  C   UNL     1      43.288 -11.703   3.582  1.00  0.00     0.217 C 
BRANCH   5   6
HETATM    6  C   UNL     1      42.191 -12.646   3.344  1.00  0.00    -0.085 C 
HETATM    7  C   UNL     1      41.258 -13.376   3.145  1.00  0.00    -0.078 C 
BRANCH   7   8
HETATM    8  C   UNL     1      40.087 -14.228   2.893  1.00  0.00     0.269 C 
BRANCH   8   9
HETATM    9  O   UNL     1      40.471 -15.591   3.062  1.00  0.00    -0.339 OA
BRANCH   9  10
HETATM   10  C   UNL     1      41.087 -15.949   4.238  1.00  0.00     0.081 A 
HETATM   11  C   UNL     1      42.195 -16.828   4.116  1.00  0.00     0.007 A 
HETATM   12  C   UNL     1      42.880 -17.242   5.284  1.00  0.00    -0.023 A 
HETATM   13  C   UNL     1      42.657 -17.314   2.872  1.00  0.00     0.015 A 
HETATM   14  C   UNL     1      43.979 -18.111   5.181  1.00  0.00     0.012 A 
HETATM   15  C   UNL     1      42.454 -16.781   6.537  1.00  0.00     0.012 A 
HETATM   16  C   UNL     1      44.412 -18.576   3.939  1.00  0.00     0.001 A 
HETATM   17  C   UNL     1      43.751 -18.177   2.784  1.00  0.00     0.001 A 
HETATM   18  C   UNL     1      41.363 -15.921   6.645  1.00  0.00     0.004 A 
HETATM   19  C   UNL     1      40.681 -15.507   5.501  1.00  0.00     0.038 A 
ENDBRANCH   9  10
ENDBRANCH   8   9
ENDBRANCH   7   8
ENDBRANCH   5   6
ENDBRANCH   1   5
BRANCH   2  20
HETATM   20  C   UNL     1      44.618 -10.923   6.981  1.00  0.00     0.120 A 
HETATM   21  N   UNL     1      45.700 -11.178   7.775  1.00  0.00    -0.272 N 
HETATM   22  H   UNL     1      46.588 -11.574   7.481  1.00  0.00     0.189 HD
HETATM   23  N   UNL     1      45.526 -10.856   9.064  1.00  0.00    -0.174 NA
HETATM   24  C   UNL     1      44.291 -10.334   9.122  1.00  0.00     0.089 A 
HETATM   25  C   UNL     1      43.679 -10.378   7.835  1.00  0.00     0.071 A 
BRANCH  24  26
HETATM   26  C   UNL     1      43.739  -9.808  10.376  1.00  0.00    -0.005 A 
HETATM   27  C   UNL     1      43.478  -8.438  10.539  1.00  0.00     0.017 A 
HETATM   28  C   UNL     1      42.965  -7.949  11.745  1.00  0.00     0.043 A 
HETATM   29  C   UNL     1      42.710  -8.828  12.789  1.00  0.00     0.116 A 
HETATM   30  F   UNL     1      42.221  -8.357  13.944  1.00  0.00    -0.206 F 
HETATM   31  C   UNL     1      42.960 -10.187  12.655  1.00  0.00     0.043 A 
HETATM   32  C   UNL     1      43.476 -10.675  11.452  1.00  0.00     0.017 A 
ENDBRANCH  24  26
ENDBRANCH   2  20
TORSDOF 7
ENDMDL
MODEL 5
REMARK VINA RESULT:      -8.9      2.025      2.943
REMARK  7 active torsions:
REMARK  status: ('A' for Active; 'I' for Inactive)
REMARK    1  A    between atoms: C_5  and  O_6 
REMARK    2  A    between atoms: O_6  and  C_7 
REMARK    3  A    between atoms: C_7  and  C_8 
REMARK    4  A    between atoms: C_9  and  C_10 
REMARK    5  A    between atoms: C_10  and  N_11 
REMARK       I    between atoms: N_11  and  C_12 
REMARK    6  A    between atoms: C_12  and  C_13 
REMARK    7  A    between atoms: C_17  and  C_18 
ROOT
HETATM    1  N   UNL     1      45.260 -10.601   7.415  1.00  0.00    -0.345 N 
HETATM    2  C   UNL     1      44.331 -11.253   8.188  1.00  0.00     0.270 C 
HETATM    3  O   UNL     1      43.922 -12.381   7.930  1.00  0.00    -0.266 OA
HETATM    4  H   UNL     1      45.456  -9.627   7.585  1.00  0.00     0.163 HD
ENDROOT
BRANCH   1   5
HETATM    5  C   UNL     1      45.826 -11.206   6.235  1.00  0.00     0.217 C 
BRANCH   5   6
HETATM    6  C   UNL     1      44.791 -11.437   5.225  1.00  0.00    -0.085 C 
HETATM    7  C   UNL     1      43.964 -11.675   4.385  1.00  0.00    -0.078 C 
BRANCH   7   8
HETATM    8  C   UNL     1      42.971 -12.015   3.356  1.00  0.00     0.269 C 
BRANCH   8   9
HETATM    9  O   UNL     1      42.258 -13.175   3.778  1.00  0.00    -0.339 OA
BRANCH   9  10
HETATM   10  C   UNL     1      42.640 -14.392   3.265  1.00  0.00     0.081 A 
HETATM   11  C   UNL     1      42.969 -15.392   4.219  1.00  0.00     0.007 A 
HETATM   12  C   UNL     1      43.373 -16.672   3.766  1.00  0.00    -0.023 A 
HETATM   13  C   UNL     1      42.910 -15.173   5.613  1.00  0.00     0.015 A 
HETATM   14  C   UNL     1      43.701 -17.672   4.697  1.00  0.00     0.012 A 
HETATM   15  C   UNL     1      43.442 -16.930   2.391  1.00  0.00     0.012 A 
HETATM   16  C   UNL     1      43.635 -17.426   6.068  1.00  0.00     0.001 A 
HETATM   17  C   UNL     1      43.239 -16.176   6.527  1.00  0.00     0.001 A 
HETATM   18  C   UNL     1      43.119 -15.941   1.464  1.00  0.00     0.004 A 
HETATM   19  C   UNL     1      42.721 -14.677   1.898  1.00  0.00     0.038 A 
ENDBRANCH   9  10
ENDBRANCH   8   9
ENDBRANCH   7   8
ENDBRANCH   5   6
ENDBRANCH   1   5
BRANCH   2  20
HETATM   20  C   UNL     1      43.867 -10.525   9.338  1.00  0.00     0.120 A 
HETATM   21  N   UNL     1      43.530 -11.167  10.496  1.00  0.00    -0.272 N 
HETATM   22  H   UNL     1      43.558 -12.168  10.664  1.00  0.00     0.189 HD
HETATM   23  N   UNL     1      43.130 -10.352  11.482  1.00  0.00    -0.174 NA
HETATM   24  C   UNL     1      43.240  -9.117  10.969  1.00  0.00     0.089 A 
HETATM   25  C   UNL     1      43.680  -9.185   9.615  1.00  0.00     0.071 A 
BRANCH  24  26
HETATM   26  C   UNL     1      42.936  -7.924  11.771  1.00  0.00    -0.005 A 
HETATM   27  C   UNL     1      43.159  -7.903  13.157  1.00  0.00     0.017 A 
HETATM   28  C   UNL     1      42.852  -6.764  13.909  1.00  0.00     0.043 A 
HETATM   29  C   UNL     1      42.324  -5.646  13.278  1.00  0.00     0.116 A 
HETATM   30  F   UNL     1      42.029  -4.557  14.002  1.00  0.00    -0.206 F 
HETATM   31  C   UNL     1      42.094  -5.641  11.909  1.00  0.00     0.043 A 
HETATM   32  C   UNL     1      42.398  -6.779  11.158  1.00  0.00     0.017 A 
ENDBRANCH  24  26
ENDBRANCH   2  20
TORSDOF 7
ENDMDL
MODEL 6
REMARK VINA RESULT:      -8.9      7.059     10.355
REMARK  7 active torsions:
REMARK  status: ('A' for Active; 'I' for Inactive)
REMARK    1  A    between atoms: C_5  and  O_6 
REMARK    2  A    between atoms: O_6  and  C_7 
REMARK    3  A    between atoms: C_7  and  C_8 
REMARK    4  A    between atoms: C_9  and  C_10 
REMARK    5  A    between atoms: C_10  and  N_11 
REMARK       I    between atoms: N_11  and  C_12 
REMARK    6  A    between atoms: C_12  and  C_13 
REMARK    7  A    between atoms: C_17  and  C_18 
ROOT
HETATM    1  N   UNL     1      41.972 -11.395   4.502  1.00  0.00    -0.345 N 
HETATM    2  C   UNL     1      42.824 -12.094   3.684  1.00  0.00     0.270 C 
HETATM    3  O   UNL     1      43.485 -11.562   2.798  1.00  0.00    -0.266 OA
HETATM    4  H   UNL     1      41.347 -11.893   5.115  1.00  0.00     0.163 HD
ENDROOT
BRANCH   1   5
HETATM    5  C   UNL     1      41.795  -9.970   4.375  1.00  0.00     0.217 C 
BRANCH   5   6
HETATM    6  C   UNL     1      40.999  -9.651   3.186  1.00  0.00    -0.085 C 
HETATM    7  C   UNL     1      40.352  -9.442   2.195  1.00  0.00    -0.078 C 
BRANCH   7   8
HETATM    8  C   UNL     1      39.561  -9.237   0.973  1.00  0.00     0.269 C 
BRANCH   8   9
HETATM    9  O   UNL     1      38.726 -10.375   0.775  1.00  0.00    -0.339 OA
BRANCH   9  10
HETATM   10  C   UNL     1      39.177 -11.373  -0.056  1.00  0.00     0.081 A 
HETATM   11  C   UNL     1      39.470 -12.615   0.567  1.00  0.00     0.007 A 
HETATM   12  C   UNL     1      39.941 -13.692  -0.225  1.00  0.00    -0.023 A 
HETATM   13  C   UNL     1      39.311 -12.836   1.954  1.00  0.00     0.015 A 
HETATM   14  C   UNL     1      40.234 -14.927   0.376  1.00  0.00     0.012 A 
HETATM   15  C   UNL     1      40.110 -13.513  -1.604  1.00  0.00     0.012 A 
HETATM   16  C   UNL     1      40.069 -15.115   1.748  1.00  0.00     0.001 A 
HETATM   17  C   UNL     1      39.606 -14.070   2.538  1.00  0.00     0.001 A 
HETATM   18  C   UNL     1      39.822 -12.289  -2.204  1.00  0.00     0.004 A 
HETATM   19  C   UNL     1      39.359 -11.223  -1.434  1.00  0.00     0.038 A 
ENDBRANCH   9  10
ENDBRANCH   8   9
ENDBRANCH   7   8
ENDBRANCH   5   6
ENDBRANCH   1   5
BRANCH   2  20
HETATM   20  C   UNL     1      42.901 -13.507   3.939  1.00  0.00     0.120 A 
HETATM   21  N   UNL     1      42.460 -14.040   5.118  1.00  0.00    -0.272 N 
HETATM   22  H   UNL     1      42.062 -13.533   5.902  1.00  0.00     0.189 HD
HETATM   23  N   UNL     1      42.584 -15.373   5.200  1.00  0.00    -0.174 NA
HETATM   24  C   UNL     1      43.095 -15.742   4.016  1.00  0.00     0.089 A 
HETATM   25  C   UNL     1      43.329 -14.594   3.203  1.00  0.00     0.071 A 
BRANCH  24  26
HETATM   26  C   UNL     1      43.336 -17.154   3.692  1.00  0.00    -0.005 A 
HETATM   27  C   UNL     1      44.080 -17.981   4.548  1.00  0.00     0.017 A 
HETATM   28  C   UNL     1      44.312 -19.320   4.219  1.00  0.00     0.043 A 
HETATM   29  C   UNL     1      43.801 -19.836   3.036  1.00  0.00     0.116 A 
HETATM   30  F   UNL     1      44.027 -21.119   2.722  1.00  0.00    -0.206 F 
HETATM   31  C   UNL     1      43.062 -19.040   2.171  1.00  0.00     0.043 A 
HETATM   32  C   UNL     1      42.833 -17.701   2.498  1.00  0.00     0.017 A 
ENDBRANCH  24  26
ENDBRANCH   2  20
TORSDOF 7
ENDMDL
MODEL 7
REMARK VINA RESULT:      -8.9      1.576      2.639
REMARK  7 active torsions:
REMARK  status: ('A' for Active; 'I' for Inactive)
REMARK    1  A    between atoms: C_5  and  O_6 
REMARK    2  A    between atoms: O_6  and  C_7 
REMARK    3  A    between atoms: C_7  and  C_8 
REMARK    4  A    between atoms: C_9  and  C_10 
REMARK    5  A    between atoms: C_10  and  N_11 
REMARK       I    between atoms: N_11  and  C_12 
REMARK    6  A    between atoms: C_12  and  C_13 
REMARK    7  A    between atoms: C_17  and  C_18 
ROOT
HETATM    1  N   UNL     1      44.004 -10.304   8.889  1.00  0.00    -0.345 N 
HETATM    2  C   UNL     1      44.275 -10.370  10.233  1.00  0.00     0.270 C 
HETATM    3  O   UNL     1      45.330 -10.808  10.680  1.00  0.00    -0.266 OA
HETATM    4  H   UNL     1      43.074 -10.073   8.578  1.00  0.00     0.163 HD
ENDROOT
BRANCH   1   5
HETATM    5  C   UNL     1      44.954 -10.748   7.899  1.00  0.00     0.217 C 
BRANCH   5   6
HETATM    6  C   UNL     1      44.267 -11.393   6.777  1.00  0.00    -0.085 C 
HETATM    7  C   UNL     1      43.659 -11.922   5.886  1.00  0.00    -0.078 C 
BRANCH   7   8
HETATM    8  C   UNL     1      42.870 -12.561   4.822  1.00  0.00     0.269 C 
BRANCH   8   9
HETATM    9  O   UNL     1      42.265 -13.739   5.349  1.00  0.00    -0.339 OA
BRANCH   9  10
HETATM   10  C   UNL     1      43.031 -14.877   5.437  1.00  0.00     0.081 A 
HETATM   11  C   UNL     1      42.888 -15.807   4.373  1.00  0.00     0.007 A 
HETATM   12  C   UNL     1      43.644 -17.004   4.395  1.00  0.00    -0.023 A 
HETATM   13  C   UNL     1      42.020 -15.594   3.279  1.00  0.00     0.015 A 
HETATM   14  C   UNL     1      43.514 -17.934   3.350  1.00  0.00     0.012 A 
HETATM   15  C   UNL     1      44.518 -17.251   5.462  1.00  0.00     0.012 A 
HETATM   16  C   UNL     1      42.648 -17.698   2.283  1.00  0.00     0.001 A 
HETATM   17  C   UNL     1      41.900 -16.527   2.247  1.00  0.00     0.001 A 
HETATM   18  C   UNL     1      44.649 -16.333   6.502  1.00  0.00     0.004 A 
HETATM   19  C   UNL     1      43.909 -15.152   6.491  1.00  0.00     0.038 A 
ENDBRANCH   9  10
ENDBRANCH   8   9
ENDBRANCH   7   8
ENDBRANCH   5   6
ENDBRANCH   1   5
BRANCH   2  20
HETATM   20  C   UNL     1      43.234  -9.881  11.096  1.00  0.00     0.120 A 
HETATM   21  N   UNL     1      41.956 -10.357  11.007  1.00  0.00    -0.272 N 
HETATM   22  H   UNL     1      41.614 -11.060  10.358  1.00  0.00     0.189 HD
HETATM   23  N   UNL     1      41.103  -9.815  11.888  1.00  0.00    -0.174 NA
HETATM   24  C   UNL     1      41.852  -8.971  12.613  1.00  0.00     0.089 A 
HETATM   25  C   UNL     1      43.194  -8.968  12.131  1.00  0.00     0.071 A 
BRANCH  24  26
HETATM   26  C   UNL     1      41.283  -8.209  13.732  1.00  0.00    -0.005 A 
HETATM   27  C   UNL     1      40.319  -7.211  13.517  1.00  0.00     0.017 A 
HETATM   28  C   UNL     1      39.796  -6.484  14.591  1.00  0.00     0.043 A 
HETATM   29  C   UNL     1      40.234  -6.754  15.881  1.00  0.00     0.116 A 
HETATM   30  F   UNL     1      39.732  -6.054  16.908  1.00  0.00    -0.206 F 
HETATM   31  C   UNL     1      41.186  -7.734  16.121  1.00  0.00     0.043 A 
HETATM   32  C   UNL     1      41.711  -8.459  15.048  1.00  0.00     0.017 A 
ENDBRANCH  24  26
ENDBRANCH   2  20
TORSDOF 7
ENDMDL
MODEL 8
REMARK VINA RESULT:      -8.9      4.673     11.581
REMARK  7 active torsions:
REMARK  status: ('A' for Active; 'I' for Inactive)
REMARK    1  A    between atoms: C_5  and  O_6 
REMARK    2  A    between atoms: O_6  and  C_7 
REMARK    3  A    between atoms: C_7  and  C_8 
REMARK    4  A    between atoms: C_9  and  C_10 
REMARK    5  A    between atoms: C_10  and  N_11 
REMARK       I    between atoms: N_11  and  C_12 
REMARK    6  A    between atoms: C_12  and  C_13 
REMARK    7  A    between atoms: C_17  and  C_18 
ROOT
HETATM    1  N   UNL     1      40.757 -11.365   6.530  1.00  0.00    -0.345 N 
HETATM    2  C   UNL     1      40.220 -12.558   6.112  1.00  0.00     0.270 C 
HETATM    3  O   UNL     1      39.011 -12.758   6.043  1.00  0.00    -0.266 OA
HETATM    4  H   UNL     1      41.746 -11.297   6.706  1.00  0.00     0.163 HD
ENDROOT
BRANCH   1   5
HETATM    5  C   UNL     1      39.926 -10.252   6.917  1.00  0.00     0.217 C 
BRANCH   5   6
HETATM    6  C   UNL     1      40.702  -9.010   6.937  1.00  0.00    -0.085 C 
HETATM    7  C   UNL     1      41.345  -7.997   7.007  1.00  0.00    -0.078 C 
BRANCH   7   8
HETATM    8  C   UNL     1      42.142  -6.769   7.141  1.00  0.00     0.269 C 
BRANCH   8   9
HETATM    9  O   UNL     1      43.219  -7.022   8.040  1.00  0.00    -0.339 OA
BRANCH   9  10
HETATM   10  C   UNL     1      42.970  -6.940   9.390  1.00  0.00     0.081 A 
HETATM   11  C   UNL     1      43.171  -8.134  10.132  1.00  0.00     0.007 A 
HETATM   12  C   UNL     1      42.933  -8.127  11.528  1.00  0.00    -0.023 A 
HETATM   13  C   UNL     1      43.603  -9.342   9.542  1.00  0.00     0.015 A 
HETATM   14  C   UNL     1      43.127  -9.300  12.277  1.00  0.00     0.012 A 
HETATM   15  C   UNL     1      42.505  -6.947  12.152  1.00  0.00     0.012 A 
HETATM   16  C   UNL     1      43.553 -10.478  11.667  1.00  0.00     0.001 A 
HETATM   17  C   UNL     1      43.792 -10.501  10.298  1.00  0.00     0.001 A 
HETATM   18  C   UNL     1      42.309  -5.782  11.413  1.00  0.00     0.004 A 
HETATM   19  C   UNL     1      42.539  -5.778  10.038  1.00  0.00     0.038 A 
ENDBRANCH   9  10
ENDBRANCH   8   9
ENDBRANCH   7   8
ENDBRANCH   5   6
ENDBRANCH   1   5
BRANCH   2  20
HETATM   20  C   UNL     1      41.176 -13.570   5.750  1.00  0.00     0.120 A 
HETATM   21  N   UNL     1      42.377 -13.674   6.392  1.00  0.00    -0.272 N 
HETATM   22  H   UNL     1      42.716 -13.081   7.145  1.00  0.00     0.189 HD
HETATM   23  N   UNL     1      43.153 -14.674   5.952  1.00  0.00    -0.174 NA
HETATM   24  C   UNL     1      42.422 -15.280   5.004  1.00  0.00     0.089 A 
HETATM   25  C   UNL     1      41.181 -14.601   4.832  1.00  0.00     0.071 A 
BRANCH  24  26
HETATM   26  C   UNL     1      42.913 -16.474   4.304  1.00  0.00    -0.005 A 
HETATM   27  C   UNL     1      43.793 -17.374   4.928  1.00  0.00     0.017 A 
HETATM   28  C   UNL     1      44.263 -18.500   4.244  1.00  0.00     0.043 A 
HETATM   29  C   UNL     1      43.854 -18.729   2.937  1.00  0.00     0.116 A 
HETATM   30  F   UNL     1      44.309 -19.807   2.283  1.00  0.00    -0.206 F 
HETATM   31  C   UNL     1      42.987 -17.855   2.296  1.00  0.00     0.043 A 
HETATM   32  C   UNL     1      42.519 -16.729   2.978  1.00  0.00     0.017 A 
ENDBRANCH  24  26
ENDBRANCH   2  20
TORSDOF 7
ENDMDL
MODEL 9
REMARK VINA RESULT:      -8.8      7.209     10.421
REMARK  7 active torsions:
REMARK  status: ('A' for Active; 'I' for Inactive)
REMARK    1  A    between atoms: C_5  and  O_6 
REMARK    2  A    between atoms: O_6  and  C_7 
REMARK    3  A    between atoms: C_7  and  C_8 
REMARK    4  A    between atoms: C_9  and  C_10 
REMARK    5  A    between atoms: C_10  and  N_11 
REMARK       I    between atoms: N_11  and  C_12 
REMARK    6  A    between atoms: C_12  and  C_13 
REMARK    7  A    between atoms: C_17  and  C_18 
ROOT
HETATM    1  N   UNL     1      39.407 -11.705   4.328  1.00  0.00    -0.345 N 
HETATM    2  C   UNL     1      39.492 -12.429   5.491  1.00  0.00     0.270 C 
HETATM    3  O   UNL     1      39.020 -12.040   6.555  1.00  0.00    -0.266 OA
HETATM    4  H   UNL     1      39.932 -11.997   3.519  1.00  0.00     0.163 HD
ENDROOT
BRANCH   1   5
HETATM    5  C   UNL     1      38.747 -10.424   4.276  1.00  0.00     0.217 C 
BRANCH   5   6
HETATM    6  C   UNL     1      38.617  -9.965   2.891  1.00  0.00    -0.085 C 
HETATM    7  C   UNL     1      38.558  -9.561   1.761  1.00  0.00    -0.078 C 
BRANCH   7   8
HETATM    8  C   UNL     1      38.532  -9.047   0.383  1.00  0.00     0.269 C 
BRANCH   8   9
HETATM    9  O   UNL     1      39.412  -9.837  -0.413  1.00  0.00    -0.339 OA
BRANCH   9  10
HETATM   10  C   UNL     1      38.910 -10.976  -0.998  1.00  0.00     0.081 A 
HETATM   11  C   UNL     1      39.503 -12.198  -0.587  1.00  0.00     0.007 A 
HETATM   12  C   UNL     1      39.038 -13.414  -1.147  1.00  0.00    -0.023 A 
HETATM   13  C   UNL     1      40.544 -12.266   0.366  1.00  0.00     0.015 A 
HETATM   14  C   UNL     1      39.614 -14.633  -0.751  1.00  0.00     0.012 A 
HETATM   15  C   UNL     1      38.006 -13.390  -2.094  1.00  0.00     0.012 A 
HETATM   16  C   UNL     1      40.642 -14.668   0.191  1.00  0.00     0.001 A 
HETATM   17  C   UNL     1      41.107 -13.484   0.751  1.00  0.00     0.001 A 
HETATM   18  C   UNL     1      37.433 -12.184  -2.492  1.00  0.00     0.004 A 
HETATM   19  C   UNL     1      37.883 -10.981  -1.948  1.00  0.00     0.038 A 
ENDBRANCH   9  10
ENDBRANCH   8   9
ENDBRANCH   7   8
ENDBRANCH   5   6
ENDBRANCH   1   5
BRANCH   2  20
HETATM   20  C   UNL     1      40.172 -13.692   5.383  1.00  0.00     0.120 A 
HETATM   21  N   UNL     1      39.992 -14.677   6.312  1.00  0.00    -0.272 N 
HETATM   22  H   UNL     1      39.403 -14.631   7.138  1.00  0.00     0.189 HD
HETATM   23  N   UNL     1      40.681 -15.800   6.065  1.00  0.00    -0.174 NA
HETATM   24  C   UNL     1      41.316 -15.563   4.907  1.00  0.00     0.089 A 
HETATM   25  C   UNL     1      41.038 -14.239   4.457  1.00  0.00     0.071 A 
BRANCH  24  26
HETATM   26  C   UNL     1      42.150 -16.588   4.267  1.00  0.00    -0.005 A 
HETATM   27  C   UNL     1      43.131 -17.285   4.990  1.00  0.00     0.017 A 
HETATM   28  C   UNL     1      43.927 -18.249   4.363  1.00  0.00     0.043 A 
HETATM   29  C   UNL     1      43.742 -18.520   3.014  1.00  0.00     0.116 A 
HETATM   30  F   UNL     1      44.508 -19.443   2.415  1.00  0.00    -0.206 F 
HETATM   31  C   UNL     1      42.780 -17.845   2.275  1.00  0.00     0.043 A 
HETATM   32  C   UNL     1      41.987 -16.880   2.901  1.00  0.00     0.017 A 
ENDBRANCH  24  26
ENDBRANCH   2  20
TORSDOF 7
ENDMDL
MODEL 10
REMARK VINA RESULT:      -8.7      4.736     12.297
REMARK  7 active torsions:
REMARK  status: ('A' for Active; 'I' for Inactive)
REMARK    1  A    between atoms: C_5  and  O_6 
REMARK    2  A    between atoms: O_6  and  C_7 
REMARK    3  A    between atoms: C_7  and  C_8 
REMARK    4  A    between atoms: C_9  and  C_10 
REMARK    5  A    between atoms: C_10  and  N_11 
REMARK       I    between atoms: N_11  and  C_12 
REMARK    6  A    between atoms: C_12  and  C_13 
REMARK    7  A    between atoms: C_17  and  C_18 
ROOT
HETATM    1  N   UNL     1      42.991 -12.263   4.443  1.00  0.00    -0.345 N 
HETATM    2  C   UNL     1      42.774 -12.640   3.141  1.00  0.00     0.270 C 
HETATM    3  O   UNL     1      42.465 -11.845   2.259  1.00  0.00    -0.266 OA
HETATM    4  H   UNL     1      43.100 -12.966   5.156  1.00  0.00     0.163 HD
ENDROOT
BRANCH   1   5
HETATM    5  C   UNL     1      42.871 -10.889   4.866  1.00  0.00     0.217 C 
BRANCH   5   6
HETATM    6  C   UNL     1      43.207 -10.755   6.286  1.00  0.00    -0.085 C 
HETATM    7  C   UNL     1      43.447 -10.686   7.462  1.00  0.00    -0.078 C 
BRANCH   7   8
HETATM    8  C   UNL     1      43.714 -10.644   8.907  1.00  0.00     0.269 C 
BRANCH   8   9
HETATM    9  O   UNL     1      44.374  -9.418   9.212  1.00  0.00    -0.339 OA
BRANCH   9  10
HETATM   10  C   UNL     1      43.608  -8.284   9.340  1.00  0.00     0.081 A 
HETATM   11  C   UNL     1      43.267  -7.910  10.667  1.00  0.00     0.007 A 
HETATM   12  C   UNL     1      42.478  -6.752  10.877  1.00  0.00    -0.023 A 
HETATM   13  C   UNL     1      43.682  -8.642  11.802  1.00  0.00     0.015 A 
HETATM   14  C   UNL     1      42.132  -6.369  12.184  1.00  0.00     0.012 A 
HETATM   15  C   UNL     1      42.048  -5.998   9.777  1.00  0.00     0.012 A 
HETATM   16  C   UNL     1      42.556  -7.112  13.285  1.00  0.00     0.001 A 
HETATM   17  C   UNL     1      43.331  -8.249  13.095  1.00  0.00     0.001 A 
HETATM   18  C   UNL     1      42.387  -6.375   8.479  1.00  0.00     0.004 A 
HETATM   19  C   UNL     1      43.162  -7.514   8.261  1.00  0.00     0.038 A 
ENDBRANCH   9  10
ENDBRANCH   8   9
ENDBRANCH   7   8
ENDBRANCH   5   6
ENDBRANCH   1   5
BRANCH   2  20
HETATM   20  C   UNL     1      42.941 -14.043   2.871  1.00  0.00     0.120 A 
HETATM   21  N   UNL     1      43.091 -14.506   1.595  1.00  0.00    -0.272 N 
HETATM   22  H   UNL     1      43.093 -13.951   0.744  1.00  0.00     0.189 HD
HETATM   23  N   UNL     1      43.251 -15.834   1.506  1.00  0.00    -0.174 NA
HETATM   24  C   UNL     1      43.242 -16.265   2.777  1.00  0.00     0.089 A 
HETATM   25  C   UNL     1      43.027 -15.170   3.664  1.00  0.00     0.071 A 
BRANCH  24  26
HETATM   26  C   UNL     1      43.443 -17.681   3.107  1.00  0.00    -0.005 A 
HETATM   27  C   UNL     1      43.959 -18.071   4.354  1.00  0.00     0.017 A 
HETATM   28  C   UNL     1      44.157 -19.424   4.650  1.00  0.00     0.043 A 
HETATM   29  C   UNL     1      43.839 -20.388   3.702  1.00  0.00     0.116 A 
HETATM   30  F   UNL     1      44.032 -21.683   3.988  1.00  0.00    -0.206 F 
HETATM   31  C   UNL     1      43.329 -20.029   2.462  1.00  0.00     0.043 A 
HETATM   32  C   UNL     1      43.133 -18.678   2.165  1.00  0.00     0.017 A 
ENDBRANCH  24  26
ENDBRANCH   2  20
TORSDOF 7
ENDMDL
