MODEL 1
REMARK VINA RESULT:      -8.8      0.000      0.000
REMARK  7 active torsions:
REMARK  status: ('A' for Active; 'I' for Inactive)
REMARK    1  A    between atoms: C_7  and  C_8 
REMARK    2  A    between atoms: C_8  and  N_9 
REMARK    3  A    between atoms: C_13  and  C_14 
REMARK    4  A    between atoms: C_14  and  C_15 
REMARK    5  A    between atoms: C_15  and  C_16 
REMARK    6  A    between atoms: N_26  and  C_27 
REMARK    7  A    between atoms: C_27  and  C_28 
ROOT
HETATM    1  C   UNL     1      42.102 -15.332   4.051  1.00  0.00     0.123 C 
HETATM    2  N   UNL     1      40.929 -16.121   3.710  1.00  0.00    -0.324 N 
HETATM    3  C   UNL     1      40.206 -15.600   2.661  1.00  0.00     0.326 C 
HETATM    4  O   UNL     1      39.248 -16.158   2.161  1.00  0.00    -0.247 OA
HETATM    5  N   UNL     1      40.723 -14.382   2.359  1.00  0.00    -0.268 N 
HETATM    6  C   UNL     1      41.775 -14.099   3.179  1.00  0.00     0.257 C 
HETATM    7  O   UNL     1      42.379 -13.036   3.229  1.00  0.00    -0.270 OA
HETATM    8  H   UNL     1      40.734 -17.065   4.031  1.00  0.00     0.165 HD
ENDROOT
BRANCH   1   9
HETATM    9  C   UNL     1      42.127 -15.057   5.592  1.00  0.00     0.027 C 
HETATM   10  C   UNL     1      40.882 -14.337   6.150  1.00  0.00     0.035 C 
HETATM   11  C   UNL     1      40.877 -12.830   5.946  1.00  0.00     0.235 C 
HETATM   12  N   UNL     1      42.117 -12.206   6.531  1.00  0.00    -0.067 N 
HETATM   13  H   UNL     1      42.034 -12.282   7.551  1.00  0.00     0.280 HD
HETATM   14  C   UNL     1      43.414 -12.846   6.119  1.00  0.00     0.235 C 
HETATM   15  C   UNL     1      43.368 -14.365   6.180  1.00  0.00     0.035 C 
BRANCH  12  16
HETATM   16  C   UNL     1      42.194 -10.712   6.232  1.00  0.00     0.277 C 
BRANCH  16  17
HETATM   17  C   UNL     1      42.186  -9.850   7.436  1.00  0.00     0.011 A 
HETATM   18  C   UNL     1      43.191  -9.612   8.364  1.00  0.00     0.035 A 
HETATM   19  C   UNL     1      44.593 -10.096   8.449  1.00  0.00     0.070 C 
HETATM   20  N   UNL     1      42.649  -8.739   9.281  1.00  0.00    -0.278 N 
HETATM   21  C   UNL     1      43.286  -8.145  10.435  1.00  0.00     0.179 C 
HETATM   22  N   UNL     1      41.374  -8.417   9.009  1.00  0.00    -0.185 NA
HETATM   23  C   UNL     1      41.104  -9.058   7.878  1.00  0.00     0.149 A 
ENDBRANCH  16  17
ENDBRANCH  12  16
ENDBRANCH   1   9
BRANCH   1  24
HETATM   24  C   UNL     1      43.394 -15.956   3.437  1.00  0.00     0.082 C 
BRANCH  24  25
HETATM   25  C   UNL     1      43.483 -17.472   3.407  1.00  0.00    -0.034 A 
HETATM   26  C   UNL     1      43.906 -18.256   4.496  1.00  0.00     0.040 A 
HETATM   27 CL   UNL     1      44.405 -17.573   6.000  1.00  0.00    -0.084 Cl
HETATM   28  C   UNL     1      43.981 -19.650   4.389  1.00  0.00     0.024 A 
HETATM   29  C   UNL     1      43.650 -20.287   3.196  1.00  0.00     0.002 A 
HETATM   30  C   UNL     1      43.261 -19.529   2.098  1.00  0.00     0.001 A 
HETATM   31  C   UNL     1      43.191 -18.138   2.200  1.00  0.00     0.009 A 
ENDBRANCH  24  25
ENDBRANCH   1  24
BRANCH   5  32
HETATM   32  C   UNL     1      40.182 -13.487   1.359  1.00  0.00     0.141 C 
BRANCH  32  33
HETATM   33  C   UNL     1      40.592 -13.939  -0.009  1.00  0.00     0.004 A 
HETATM   34  C   UNL     1      39.569 -14.463  -0.985  1.00  0.00     0.007 A 
HETATM   35  C   UNL     1      40.219 -13.126  -1.223  1.00  0.00     0.007 A 
ENDBRANCH  32  33
ENDBRANCH   5  32
TORSDOF 7
ENDMDL
MODEL 2
REMARK VINA RESULT:      -8.7      0.935      1.217
REMARK  7 active torsions:
REMARK  status: ('A' for Active; 'I' for Inactive)
REMARK    1  A    between atoms: C_7  and  C_8 
REMARK    2  A    between atoms: C_8  and  N_9 
REMARK    3  A    between atoms: C_13  and  C_14 
REMARK    4  A    between atoms: C_14  and  C_15 
REMARK    5  A    between atoms: C_15  and  C_16 
REMARK    6  A    between atoms: N_26  and  C_27 
REMARK    7  A    between atoms: C_27  and  C_28 
ROOT
HETATM    1  C   UNL     1      41.964 -15.022   4.090  1.00  0.00     0.123 C 
HETATM    2  N   UNL     1      40.846 -15.877   3.724  1.00  0.00    -0.324 N 
HETATM    3  C   UNL     1      40.128 -15.407   2.648  1.00  0.00     0.326 C 
HETATM    4  O   UNL     1      39.217 -16.022   2.127  1.00  0.00    -0.247 OA
HETATM    5  N   UNL     1      40.589 -14.167   2.345  1.00  0.00    -0.268 N 
HETATM    6  C   UNL     1      41.598 -13.819   3.192  1.00  0.00     0.257 C 
HETATM    7  O   UNL     1      42.144 -12.724   3.246  1.00  0.00    -0.270 OA
HETATM    8  H   UNL     1      40.692 -16.826   4.052  1.00  0.00     0.165 HD
ENDROOT
BRANCH   1   9
HETATM    9  C   UNL     1      41.928 -14.729   5.627  1.00  0.00     0.027 C 
HETATM   10  C   UNL     1      40.597 -14.154   6.154  1.00  0.00     0.035 C 
HETATM   11  C   UNL     1      40.420 -12.660   5.929  1.00  0.00     0.235 C 
HETATM   12  N   UNL     1      41.567 -11.888   6.527  1.00  0.00    -0.067 N 
HETATM   13  H   UNL     1      41.474 -11.962   7.546  1.00  0.00     0.280 HD
HETATM   14  C   UNL     1      42.937 -12.377   6.146  1.00  0.00     0.235 C 
HETATM   15  C   UNL     1      43.069 -13.889   6.227  1.00  0.00     0.035 C 
BRANCH  12  16
HETATM   16  C   UNL     1      41.474 -10.399   6.209  1.00  0.00     0.277 C 
BRANCH  16  17
HETATM   17  C   UNL     1      40.686  -9.616   7.189  1.00  0.00     0.011 A 
HETATM   18  C   UNL     1      41.041  -9.159   8.451  1.00  0.00     0.035 A 
HETATM   19  C   UNL     1      42.308  -9.263   9.220  1.00  0.00     0.070 C 
HETATM   20  N   UNL     1      39.932  -8.496   8.929  1.00  0.00    -0.278 N 
HETATM   21  C   UNL     1      39.781  -7.800  10.188  1.00  0.00     0.179 C 
HETATM   22  N   UNL     1      38.901  -8.508   8.070  1.00  0.00    -0.185 NA
HETATM   23  C   UNL     1      39.364  -9.153   7.005  1.00  0.00     0.149 A 
ENDBRANCH  16  17
ENDBRANCH  12  16
ENDBRANCH   1   9
BRANCH   1  24
HETATM   24  C   UNL     1      43.306 -15.583   3.523  1.00  0.00     0.082 C 
BRANCH  24  25
HETATM   25  C   UNL     1      43.469 -17.093   3.497  1.00  0.00    -0.034 A 
HETATM   26  C   UNL     1      43.982 -17.846   4.569  1.00  0.00     0.040 A 
HETATM   27 CL   UNL     1      44.517 -17.127   6.044  1.00  0.00    -0.084 Cl
HETATM   28  C   UNL     1      44.121 -19.236   4.467  1.00  0.00     0.024 A 
HETATM   29  C   UNL     1      43.765 -19.898   3.295  1.00  0.00     0.002 A 
HETATM   30  C   UNL     1      43.287 -19.169   2.213  1.00  0.00     0.001 A 
HETATM   31  C   UNL     1      43.152 -17.783   2.310  1.00  0.00     0.009 A 
ENDBRANCH  24  25
ENDBRANCH   1  24
BRANCH   5  32
HETATM   32  C   UNL     1      40.031 -13.314   1.318  1.00  0.00     0.141 C 
BRANCH  32  33
HETATM   33  C   UNL     1      40.528 -13.741  -0.029  1.00  0.00     0.004 A 
HETATM   34  C   UNL     1      39.604 -14.415  -1.012  1.00  0.00     0.007 A 
HETATM   35  C   UNL     1      40.084 -13.012  -1.271  1.00  0.00     0.007 A 
ENDBRANCH  32  33
ENDBRANCH   5  32
TORSDOF 7
ENDMDL
MODEL 3
REMARK VINA RESULT:      -8.6      2.506      7.092
REMARK  7 active torsions:
REMARK  status: ('A' for Active; 'I' for Inactive)
REMARK    1  A    between atoms: C_7  and  C_8 
REMARK    2  A    between atoms: C_8  and  N_9 
REMARK    3  A    between atoms: C_13  and  C_14 
REMARK    4  A    between atoms: C_14  and  C_15 
REMARK    5  A    between atoms: C_15  and  C_16 
REMARK    6  A    between atoms: N_26  and  C_27 
REMARK    7  A    between atoms: C_27  and  C_28 
ROOT
HETATM    1  C   UNL     1      41.155 -14.560   4.018  1.00  0.00     0.123 C 
HETATM    2  N   UNL     1      42.202 -14.256   3.055  1.00  0.00    -0.324 N 
HETATM    3  C   UNL     1      43.064 -13.270   3.478  1.00  0.00     0.326 C 
HETATM    4  O   UNL     1      44.060 -12.939   2.863  1.00  0.00    -0.247 OA
HETATM    5  N   UNL     1      42.569 -12.744   4.628  1.00  0.00    -0.268 N 
HETATM    6  C   UNL     1      41.408 -13.370   4.971  1.00  0.00     0.257 C 
HETATM    7  O   UNL     1      40.667 -13.051   5.892  1.00  0.00    -0.270 OA
HETATM    8  H   UNL     1      42.444 -14.818   2.245  1.00  0.00     0.165 HD
ENDROOT
BRANCH   1   9
HETATM    9  C   UNL     1      39.760 -14.547   3.308  1.00  0.00     0.027 C 
HETATM   10  C   UNL     1      39.613 -15.538   2.135  1.00  0.00     0.035 C 
HETATM   11  C   UNL     1      40.214 -15.059   0.823  1.00  0.00     0.235 C 
HETATM   12  N   UNL     1      39.637 -13.726   0.424  1.00  0.00    -0.067 N 
HETATM   13  H   UNL     1      38.659 -13.893   0.161  1.00  0.00     0.280 HD
HETATM   14  C   UNL     1      39.660 -12.671   1.495  1.00  0.00     0.235 C 
HETATM   15  C   UNL     1      39.199 -13.192   2.848  1.00  0.00     0.035 C 
BRANCH  12  16
HETATM   16  C   UNL     1      40.312 -13.168  -0.825  1.00  0.00     0.277 C 
BRANCH  16  17
HETATM   17  C   UNL     1      39.429 -12.334  -1.672  1.00  0.00     0.011 A 
HETATM   18  C   UNL     1      39.711 -11.165  -2.367  1.00  0.00     0.035 A 
HETATM   19  C   UNL     1      40.968 -10.388  -2.528  1.00  0.00     0.070 C 
HETATM   20  N   UNL     1      38.531 -10.806  -2.980  1.00  0.00    -0.278 N 
HETATM   21  C   UNL     1      38.284  -9.681  -3.855  1.00  0.00     0.179 C 
HETATM   22  N   UNL     1      37.523 -11.652  -2.716  1.00  0.00    -0.185 NA
HETATM   23  C   UNL     1      38.070 -12.593  -1.956  1.00  0.00     0.149 A 
ENDBRANCH  16  17
ENDBRANCH  12  16
ENDBRANCH   1   9
BRANCH   1  24
HETATM   24  C   UNL     1      41.504 -15.842   4.838  1.00  0.00     0.082 C 
BRANCH  24  25
HETATM   25  C   UNL     1      42.485 -16.818   4.211  1.00  0.00    -0.034 A 
HETATM   26  C   UNL     1      43.742 -17.130   4.761  1.00  0.00     0.040 A 
HETATM   27 CL   UNL     1      44.331 -16.409   6.214  1.00  0.00    -0.084 Cl
HETATM   28  C   UNL     1      44.604 -18.026   4.116  1.00  0.00     0.024 A 
HETATM   29  C   UNL     1      44.237 -18.616   2.910  1.00  0.00     0.002 A 
HETATM   30  C   UNL     1      43.013 -18.297   2.334  1.00  0.00     0.001 A 
HETATM   31  C   UNL     1      42.155 -17.400   2.971  1.00  0.00     0.009 A 
ENDBRANCH  24  25
ENDBRANCH   1  24
BRANCH   5  32
HETATM   32  C   UNL     1      43.156 -11.628   5.337  1.00  0.00     0.141 C 
BRANCH  32  33
HETATM   33  C   UNL     1      44.171 -12.124   6.322  1.00  0.00     0.004 A 
HETATM   34  C   UNL     1      45.537 -11.490   6.404  1.00  0.00     0.007 A 
HETATM   35  C   UNL     1      44.545 -11.285   7.517  1.00  0.00     0.007 A 
ENDBRANCH  32  33
ENDBRANCH   5  32
TORSDOF 7
ENDMDL
MODEL 4
REMARK VINA RESULT:      -8.6      4.215      8.064
REMARK  7 active torsions:
REMARK  status: ('A' for Active; 'I' for Inactive)
REMARK    1  A    between atoms: C_7  and  C_8 
REMARK    2  A    between atoms: C_8  and  N_9 
REMARK    3  A    between atoms: C_13  and  C_14 
REMARK    4  A    between atoms: C_14  and  C_15 
REMARK    5  A    between atoms: C_15  and  C_16 
REMARK    6  A    between atoms: N_26  and  C_27 
REMARK    7  A    between atoms: C_27  and  C_28 
ROOT
HETATM    1  C   UNL     1      40.377 -13.241   2.116  1.00  0.00     0.123 C 
HETATM    2  N   UNL     1      40.949 -12.148   1.345  1.00  0.00    -0.324 N 
HETATM    3  C   UNL     1      40.853 -12.330  -0.016  1.00  0.00     0.326 C 
HETATM    4  O   UNL     1      41.184 -11.490  -0.831  1.00  0.00    -0.247 OA
HETATM    5  N   UNL     1      40.391 -13.587  -0.240  1.00  0.00    -0.268 N 
HETATM    6  C   UNL     1      40.173 -14.227   0.943  1.00  0.00     0.257 C 
HETATM    7  O   UNL     1      39.861 -15.404   1.075  1.00  0.00    -0.270 OA
HETATM    8  H   UNL     1      41.210 -11.237   1.711  1.00  0.00     0.165 HD
ENDROOT
BRANCH   1   9
HETATM    9  C   UNL     1      41.398 -13.717   3.203  1.00  0.00     0.027 C 
HETATM   10  C   UNL     1      42.874 -13.727   2.755  1.00  0.00     0.035 C 
HETATM   11  C   UNL     1      43.279 -14.942   1.935  1.00  0.00     0.235 C 
HETATM   12  N   UNL     1      42.976 -16.216   2.678  1.00  0.00    -0.067 N 
HETATM   13  H   UNL     1      43.632 -16.264   3.465  1.00  0.00     0.280 HD
HETATM   14  C   UNL     1      41.579 -16.322   3.227  1.00  0.00     0.235 C 
HETATM   15  C   UNL     1      41.119 -15.049   3.919  1.00  0.00     0.035 C 
BRANCH  12  16
HETATM   16  C   UNL     1      43.260 -17.450   1.826  1.00  0.00     0.277 C 
BRANCH  16  17
HETATM   17  C   UNL     1      43.509 -18.683   2.607  1.00  0.00     0.011 A 
HETATM   18  C   UNL     1      43.984 -18.833   3.904  1.00  0.00     0.035 A 
HETATM   19  C   UNL     1      44.363 -17.837   4.939  1.00  0.00     0.070 C 
HETATM   20  N   UNL     1      44.030 -20.192   4.126  1.00  0.00    -0.278 N 
HETATM   21  C   UNL     1      44.421 -20.887   5.332  1.00  0.00     0.179 C 
HETATM   22  N   UNL     1      43.631 -20.911   3.065  1.00  0.00    -0.185 NA
HETATM   23  C   UNL     1      43.283 -20.004   2.161  1.00  0.00     0.149 A 
ENDBRANCH  16  17
ENDBRANCH  12  16
ENDBRANCH   1   9
BRANCH   1  24
HETATM   24  C   UNL     1      38.944 -12.880   2.621  1.00  0.00     0.082 C 
BRANCH  24  25
HETATM   25  C   UNL     1      38.632 -11.407   2.819  1.00  0.00    -0.034 A 
HETATM   26  C   UNL     1      37.964 -10.611   1.870  1.00  0.00     0.040 A 
HETATM   27 CL   UNL     1      37.441 -11.220   0.343  1.00  0.00    -0.084 Cl
HETATM   28  C   UNL     1      37.727  -9.252   2.114  1.00  0.00     0.024 A 
HETATM   29  C   UNL     1      38.161  -8.660   3.297  1.00  0.00     0.002 A 
HETATM   30  C   UNL     1      38.852  -9.420   4.233  1.00  0.00     0.001 A 
HETATM   31  C   UNL     1      39.094 -10.774   3.990  1.00  0.00     0.009 A 
ENDBRANCH  24  25
ENDBRANCH   1  24
BRANCH   5  32
HETATM   32  C   UNL     1      40.230 -14.178  -1.550  1.00  0.00     0.141 C 
BRANCH  32  33
HETATM   33  C   UNL     1      38.776 -14.234  -1.911  1.00  0.00     0.004 A 
HETATM   34  C   UNL     1      38.137 -13.121  -2.702  1.00  0.00     0.007 A 
HETATM   35  C   UNL     1      38.355 -14.466  -3.341  1.00  0.00     0.007 A 
ENDBRANCH  32  33
ENDBRANCH   5  32
TORSDOF 7
ENDMDL
MODEL 5
REMARK VINA RESULT:      -8.4      2.185      2.948
REMARK  7 active torsions:
REMARK  status: ('A' for Active; 'I' for Inactive)
REMARK    1  A    between atoms: C_7  and  C_8 
REMARK    2  A    between atoms: C_8  and  N_9 
REMARK    3  A    between atoms: C_13  and  C_14 
REMARK    4  A    between atoms: C_14  and  C_15 
REMARK    5  A    between atoms: C_15  and  C_16 
REMARK    6  A    between atoms: N_26  and  C_27 
REMARK    7  A    between atoms: C_27  and  C_28 
ROOT
HETATM    1  C   UNL     1      41.558 -14.235   5.017  1.00  0.00     0.123 C 
HETATM    2  N   UNL     1      40.888 -13.511   6.087  1.00  0.00    -0.324 N 
HETATM    3  C   UNL     1      39.765 -12.835   5.669  1.00  0.00     0.326 C 
HETATM    4  O   UNL     1      39.013 -12.249   6.424  1.00  0.00    -0.247 OA
HETATM    5  N   UNL     1      39.709 -12.910   4.314  1.00  0.00    -0.268 N 
HETATM    6  C   UNL     1      40.764 -13.629   3.838  1.00  0.00     0.257 C 
HETATM    7  O   UNL     1      41.054 -13.781   2.658  1.00  0.00    -0.270 OA
HETATM    8  H   UNL     1      41.061 -13.627   7.081  1.00  0.00     0.165 HD
ENDROOT
BRANCH   1   9
HETATM    9  C   UNL     1      43.086 -13.897   5.023  1.00  0.00     0.027 C 
HETATM   10  C   UNL     1      43.743 -13.855   6.418  1.00  0.00     0.035 C 
HETATM   11  C   UNL     1      43.519 -12.560   7.184  1.00  0.00     0.235 C 
HETATM   12  N   UNL     1      43.983 -11.374   6.379  1.00  0.00    -0.067 N 
HETATM   13  H   UNL     1      45.007 -11.424   6.341  1.00  0.00     0.280 HD
HETATM   14  C   UNL     1      43.465 -11.314   4.968  1.00  0.00     0.235 C 
HETATM   15  C   UNL     1      43.552 -12.652   4.250  1.00  0.00     0.035 C 
BRANCH  12  16
HETATM   16  C   UNL     1      43.657 -10.056   7.074  1.00  0.00     0.277 C 
BRANCH  16  17
HETATM   17  C   UNL     1      43.860 -10.076   8.541  1.00  0.00     0.011 A 
HETATM   18  C   UNL     1      42.987  -9.728   9.563  1.00  0.00     0.035 A 
HETATM   19  C   UNL     1      41.576  -9.262   9.543  1.00  0.00     0.070 C 
HETATM   20  N   UNL     1      43.688  -9.929  10.732  1.00  0.00    -0.278 N 
HETATM   21  C   UNL     1      43.228  -9.749  12.092  1.00  0.00     0.179 C 
HETATM   22  N   UNL     1      44.940 -10.366  10.526  1.00  0.00    -0.185 NA
HETATM   23  C   UNL     1      45.035 -10.489   9.207  1.00  0.00     0.149 A 
ENDBRANCH  16  17
ENDBRANCH  12  16
ENDBRANCH   1   9
BRANCH   1  24
HETATM   24  C   UNL     1      41.183 -15.750   5.047  1.00  0.00     0.082 C 
BRANCH  24  25
HETATM   25  C   UNL     1      42.206 -16.726   4.492  1.00  0.00    -0.034 A 
HETATM   26  C   UNL     1      43.110 -17.454   5.288  1.00  0.00     0.040 A 
HETATM   27 CL   UNL     1      43.177 -17.297   7.005  1.00  0.00    -0.084 Cl
HETATM   28  C   UNL     1      44.040 -18.324   4.705  1.00  0.00     0.024 A 
HETATM   29  C   UNL     1      44.096 -18.475   3.322  1.00  0.00     0.002 A 
HETATM   30  C   UNL     1      43.235 -17.741   2.516  1.00  0.00     0.001 A 
HETATM   31  C   UNL     1      42.310 -16.869   3.094  1.00  0.00     0.009 A 
ENDBRANCH  24  25
ENDBRANCH   1  24
BRANCH   5  32
HETATM   32  C   UNL     1      38.711 -12.253   3.498  1.00  0.00     0.141 C 
BRANCH  32  33
HETATM   33  C   UNL     1      39.102 -10.826   3.262  1.00  0.00     0.004 A 
HETATM   34  C   UNL     1      39.846 -10.429   2.013  1.00  0.00     0.007 A 
HETATM   35  C   UNL     1      38.411 -10.014   2.196  1.00  0.00     0.007 A 
ENDBRANCH  32  33
ENDBRANCH   5  32
TORSDOF 7
ENDMDL
MODEL 6
REMARK VINA RESULT:      -8.4      3.084      7.256
REMARK  7 active torsions:
REMARK  status: ('A' for Active; 'I' for Inactive)
REMARK    1  A    between atoms: C_7  and  C_8 
REMARK    2  A    between atoms: C_8  and  N_9 
REMARK    3  A    between atoms: C_13  and  C_14 
REMARK    4  A    between atoms: C_14  and  C_15 
REMARK    5  A    between atoms: C_15  and  C_16 
REMARK    6  A    between atoms: N_26  and  C_27 
REMARK    7  A    between atoms: C_27  and  C_28 
ROOT
HETATM    1  C   UNL     1      40.546 -13.268   3.559  1.00  0.00     0.123 C 
HETATM    2  N   UNL     1      41.957 -13.015   3.311  1.00  0.00    -0.324 N 
HETATM    3  C   UNL     1      42.240 -11.689   3.071  1.00  0.00     0.326 C 
HETATM    4  O   UNL     1      43.369 -11.257   2.937  1.00  0.00    -0.247 OA
HETATM    5  N   UNL     1      41.063 -11.020   2.970  1.00  0.00    -0.268 N 
HETATM    6  C   UNL     1      40.017 -11.876   3.147  1.00  0.00     0.257 C 
HETATM    7  O   UNL     1      38.833 -11.599   3.007  1.00  0.00    -0.270 OA
HETATM    8  H   UNL     1      42.716 -13.664   3.490  1.00  0.00     0.165 HD
ENDROOT
BRANCH   1   9
HETATM    9  C   UNL     1      40.052 -14.450   2.659  1.00  0.00     0.027 C 
HETATM   10  C   UNL     1      40.085 -15.840   3.327  1.00  0.00     0.035 C 
HETATM   11  C   UNL     1      41.453 -16.505   3.339  1.00  0.00     0.235 C 
HETATM   12  N   UNL     1      42.009 -16.609   1.943  1.00  0.00    -0.067 N 
HETATM   13  H   UNL     1      41.440 -17.305   1.448  1.00  0.00     0.280 HD
HETATM   14  C   UNL     1      41.987 -15.335   1.145  1.00  0.00     0.235 C 
HETATM   15  C   UNL     1      40.664 -14.592   1.256  1.00  0.00     0.035 C 
BRANCH  12  16
HETATM   16  C   UNL     1      43.432 -17.161   1.941  1.00  0.00     0.277 C 
BRANCH  16  17
HETATM   17  C   UNL     1      43.583 -18.453   2.649  1.00  0.00     0.011 A 
HETATM   18  C   UNL     1      44.015 -18.712   3.943  1.00  0.00     0.035 A 
HETATM   19  C   UNL     1      44.428 -17.807   5.047  1.00  0.00     0.070 C 
HETATM   20  N   UNL     1      43.970 -20.082   4.081  1.00  0.00    -0.278 N 
HETATM   21  C   UNL     1      44.287 -20.873   5.250  1.00  0.00     0.179 C 
HETATM   22  N   UNL     1      43.555 -20.709   2.969  1.00  0.00    -0.185 NA
HETATM   23  C   UNL     1      43.287 -19.727   2.115  1.00  0.00     0.149 A 
ENDBRANCH  16  17
ENDBRANCH  12  16
ENDBRANCH   1   9
BRANCH   1  24
HETATM   24  C   UNL     1      40.260 -13.395   5.089  1.00  0.00     0.082 C 
BRANCH  24  25
HETATM   25  C   UNL     1      41.360 -13.991   5.949  1.00  0.00    -0.034 A 
HETATM   26  C   UNL     1      41.240 -15.207   6.649  1.00  0.00     0.040 A 
HETATM   27 CL   UNL     1      39.799 -16.156   6.628  1.00  0.00    -0.084 Cl
HETATM   28  C   UNL     1      42.291 -15.687   7.440  1.00  0.00     0.024 A 
HETATM   29  C   UNL     1      43.473 -14.961   7.560  1.00  0.00     0.002 A 
HETATM   30  C   UNL     1      43.601 -13.743   6.904  1.00  0.00     0.001 A 
HETATM   31  C   UNL     1      42.553 -13.259   6.119  1.00  0.00     0.009 A 
ENDBRANCH  24  25
ENDBRANCH   1  24
BRANCH   5  32
HETATM   32  C   UNL     1      40.945  -9.616   2.643  1.00  0.00     0.141 C 
BRANCH  32  33
HETATM   33  C   UNL     1      40.671  -8.822   3.884  1.00  0.00     0.004 A 
HETATM   34  C   UNL     1      40.858  -7.326   3.898  1.00  0.00     0.007 A 
HETATM   35  C   UNL     1      39.472  -7.910   3.955  1.00  0.00     0.007 A 
ENDBRANCH  32  33
ENDBRANCH   5  32
TORSDOF 7
ENDMDL
MODEL 7
REMARK VINA RESULT:      -8.4      2.469      6.625
REMARK  7 active torsions:
REMARK  status: ('A' for Active; 'I' for Inactive)
REMARK    1  A    between atoms: C_7  and  C_8 
REMARK    2  A    between atoms: C_8  and  N_9 
REMARK    3  A    between atoms: C_13  and  C_14 
REMARK    4  A    between atoms: C_14  and  C_15 
REMARK    5  A    between atoms: C_15  and  C_16 
REMARK    6  A    between atoms: N_26  and  C_27 
REMARK    7  A    between atoms: C_27  and  C_28 
ROOT
HETATM    1  C   UNL     1      42.883 -15.606   4.084  1.00  0.00     0.123 C 
HETATM    2  N   UNL     1      43.265 -14.472   3.258  1.00  0.00    -0.324 N 
HETATM    3  C   UNL     1      43.366 -13.293   3.961  1.00  0.00     0.326 C 
HETATM    4  O   UNL     1      43.765 -12.252   3.474  1.00  0.00    -0.247 OA
HETATM    5  N   UNL     1      42.904 -13.513   5.218  1.00  0.00    -0.268 N 
HETATM    6  C   UNL     1      42.513 -14.811   5.356  1.00  0.00     0.257 C 
HETATM    7  O   UNL     1      41.952 -15.291   6.333  1.00  0.00    -0.270 OA
HETATM    8  H   UNL     1      43.633 -14.523   2.312  1.00  0.00     0.165 HD
ENDROOT
BRANCH   1   9
HETATM    9  C   UNL     1      41.691 -16.372   3.418  1.00  0.00     0.027 C 
HETATM   10  C   UNL     1      41.671 -16.338   1.876  1.00  0.00     0.035 C 
HETATM   11  C   UNL     1      41.102 -15.061   1.278  1.00  0.00     0.235 C 
HETATM   12  N   UNL     1      39.714 -14.796   1.799  1.00  0.00    -0.067 N 
HETATM   13  H   UNL     1      39.103 -15.512   1.391  1.00  0.00     0.280 HD
HETATM   14  C   UNL     1      39.569 -14.855   3.295  1.00  0.00     0.235 C 
HETATM   15  C   UNL     1      40.269 -16.057   3.910  1.00  0.00     0.035 C 
BRANCH  12  16
HETATM   16  C   UNL     1      39.170 -13.458   1.308  1.00  0.00     0.277 C 
BRANCH  16  17
HETATM   17  C   UNL     1      39.908 -12.887   0.158  1.00  0.00     0.011 A 
HETATM   18  C   UNL     1      39.939 -13.297  -1.168  1.00  0.00     0.035 A 
HETATM   19  C   UNL     1      39.236 -14.395  -1.881  1.00  0.00     0.070 C 
HETATM   20  N   UNL     1      40.789 -12.420  -1.806  1.00  0.00    -0.278 N 
HETATM   21  C   UNL     1      41.145 -12.380  -3.208  1.00  0.00     0.179 C 
HETATM   22  N   UNL     1      41.306 -11.495  -0.982  1.00  0.00    -0.185 NA
HETATM   23  C   UNL     1      40.749 -11.753   0.196  1.00  0.00     0.149 A 
ENDBRANCH  16  17
ENDBRANCH  12  16
ENDBRANCH   1   9
BRANCH   1  24
HETATM   24  C   UNL     1      44.130 -16.464   4.467  1.00  0.00     0.082 C 
BRANCH  24  25
HETATM   25  C   UNL     1      43.959 -17.974   4.459  1.00  0.00    -0.034 A 
HETATM   26  C   UNL     1      43.697 -18.742   5.609  1.00  0.00     0.040 A 
HETATM   27 CL   UNL     1      43.566 -18.049   7.184  1.00  0.00    -0.084 Cl
HETATM   28  C   UNL     1      43.570 -20.134   5.528  1.00  0.00     0.024 A 
HETATM   29  C   UNL     1      43.714 -20.787   4.306  1.00  0.00     0.002 A 
HETATM   30  C   UNL     1      44.005 -20.051   3.164  1.00  0.00     0.001 A 
HETATM   31  C   UNL     1      44.138 -18.664   3.243  1.00  0.00     0.009 A 
ENDBRANCH  24  25
ENDBRANCH   1  24
BRANCH   5  32
HETATM   32  C   UNL     1      42.778 -12.492   6.235  1.00  0.00     0.141 C 
BRANCH  32  33
HETATM   33  C   UNL     1      44.002 -12.475   7.099  1.00  0.00     0.004 A 
HETATM   34  C   UNL     1      45.197 -11.636   6.723  1.00  0.00     0.007 A 
HETATM   35  C   UNL     1      44.349 -11.248   7.904  1.00  0.00     0.007 A 
ENDBRANCH  32  33
ENDBRANCH   5  32
TORSDOF 7
ENDMDL
MODEL 8
REMARK VINA RESULT:      -8.3      1.583      2.021
REMARK  7 active torsions:
REMARK  status: ('A' for Active; 'I' for Inactive)
REMARK    1  A    between atoms: C_7  and  C_8 
REMARK    2  A    between atoms: C_8  and  N_9 
REMARK    3  A    between atoms: C_13  and  C_14 
REMARK    4  A    between atoms: C_14  and  C_15 
REMARK    5  A    between atoms: C_15  and  C_16 
REMARK    6  A    between atoms: N_26  and  C_27 
REMARK    7  A    between atoms: C_27  and  C_28 
ROOT
HETATM    1  C   UNL     1      41.619 -14.411   3.298  1.00  0.00     0.123 C 
HETATM    2  N   UNL     1      40.605 -13.400   3.557  1.00  0.00    -0.324 N 
HETATM    3  C   UNL     1      39.814 -13.127   2.464  1.00  0.00     0.326 C 
HETATM    4  O   UNL     1      38.851 -12.385   2.500  1.00  0.00    -0.247 OA
HETATM    5  N   UNL     1      40.336 -13.778   1.394  1.00  0.00    -0.268 N 
HETATM    6  C   UNL     1      41.445 -14.479   1.764  1.00  0.00     0.257 C 
HETATM    7  O   UNL     1      42.200 -15.078   1.008  1.00  0.00    -0.270 OA
HETATM    8  H   UNL     1      40.330 -13.057   4.472  1.00  0.00     0.165 HD
ENDROOT
BRANCH   1   9
HETATM    9  C   UNL     1      43.017 -13.897   3.778  1.00  0.00     0.027 C 
HETATM   10  C   UNL     1      43.200 -13.829   5.308  1.00  0.00     0.035 C 
HETATM   11  C   UNL     1      42.593 -12.599   5.965  1.00  0.00     0.235 C 
HETATM   12  N   UNL     1      43.133 -11.338   5.343  1.00  0.00    -0.067 N 
HETATM   13  H   UNL     1      44.117 -11.266   5.626  1.00  0.00     0.280 HD
HETATM   14  C   UNL     1      43.074 -11.287   3.841  1.00  0.00     0.235 C 
HETATM   15  C   UNL     1      43.541 -12.578   3.187  1.00  0.00     0.035 C 
BRANCH  12  16
HETATM   16  C   UNL     1      42.450 -10.094   5.901  1.00  0.00     0.277 C 
BRANCH  16  17
HETATM   17  C   UNL     1      42.725  -9.840   7.333  1.00  0.00     0.011 A 
HETATM   18  C   UNL     1      43.898 -10.014   8.057  1.00  0.00     0.035 A 
HETATM   19  C   UNL     1      45.253 -10.468   7.650  1.00  0.00     0.070 C 
HETATM   20  N   UNL     1      43.597  -9.633   9.346  1.00  0.00    -0.278 N 
HETATM   21  C   UNL     1      44.476  -9.590  10.494  1.00  0.00     0.179 C 
HETATM   22  N   UNL     1      42.321  -9.243   9.495  1.00  0.00    -0.185 NA
HETATM   23  C   UNL     1      41.803  -9.333   8.275  1.00  0.00     0.149 A 
ENDBRANCH  16  17
ENDBRANCH  12  16
ENDBRANCH   1   9
BRANCH   1  24
HETATM   24  C   UNL     1      41.170 -15.805   3.838  1.00  0.00     0.082 C 
BRANCH  24  25
HETATM   25  C   UNL     1      42.260 -16.831   4.093  1.00  0.00    -0.034 A 
HETATM   26  C   UNL     1      42.704 -17.205   5.375  1.00  0.00     0.040 A 
HETATM   27 CL   UNL     1      42.070 -16.509   6.821  1.00  0.00    -0.084 Cl
HETATM   28  C   UNL     1      43.729 -18.146   5.533  1.00  0.00     0.024 A 
HETATM   29  C   UNL     1      44.338 -18.721   4.421  1.00  0.00     0.002 A 
HETATM   30  C   UNL     1      43.937 -18.343   3.146  1.00  0.00     0.001 A 
HETATM   31  C   UNL     1      42.920 -17.400   2.985  1.00  0.00     0.009 A 
ENDBRANCH  24  25
ENDBRANCH   1  24
BRANCH   5  32
HETATM   32  C   UNL     1      39.827 -13.675   0.044  1.00  0.00     0.141 C 
BRANCH  32  33
HETATM   33  C   UNL     1      40.562 -12.602  -0.700  1.00  0.00     0.004 A 
HETATM   34  C   UNL     1      40.504 -12.532  -2.205  1.00  0.00     0.007 A 
HETATM   35  C   UNL     1      39.803 -11.489  -1.378  1.00  0.00     0.007 A 
ENDBRANCH  32  33
ENDBRANCH   5  32
TORSDOF 7
ENDMDL
MODEL 9
REMARK VINA RESULT:      -8.1      1.878      2.424
REMARK  7 active torsions:
REMARK  status: ('A' for Active; 'I' for Inactive)
REMARK    1  A    between atoms: C_7  and  C_8 
REMARK    2  A    between atoms: C_8  and  N_9 
REMARK    3  A    between atoms: C_13  and  C_14 
REMARK    4  A    between atoms: C_14  and  C_15 
REMARK    5  A    between atoms: C_15  and  C_16 
REMARK    6  A    between atoms: N_26  and  C_27 
REMARK    7  A    between atoms: C_27  and  C_28 
ROOT
HETATM    1  C   UNL     1      41.194 -14.145   3.572  1.00  0.00     0.123 C 
HETATM    2  N   UNL     1      39.935 -13.422   3.665  1.00  0.00    -0.324 N 
HETATM    3  C   UNL     1      39.462 -12.991   2.447  1.00  0.00     0.326 C 
HETATM    4  O   UNL     1      38.381 -12.453   2.298  1.00  0.00    -0.247 OA
HETATM    5  N   UNL     1      40.420 -13.231   1.515  1.00  0.00    -0.268 N 
HETATM    6  C   UNL     1      41.505 -13.817   2.095  1.00  0.00     0.257 C 
HETATM    7  O   UNL     1      42.572 -14.056   1.542  1.00  0.00    -0.270 OA
HETATM    8  H   UNL     1      39.327 -13.392   4.477  1.00  0.00     0.165 HD
ENDROOT
BRANCH   1   9
HETATM    9  C   UNL     1      42.219 -13.564   4.603  1.00  0.00     0.027 C 
HETATM   10  C   UNL     1      41.622 -13.174   5.971  1.00  0.00     0.035 C 
HETATM   11  C   UNL     1      40.927 -11.821   5.995  1.00  0.00     0.235 C 
HETATM   12  N   UNL     1      41.857 -10.732   5.529  1.00  0.00    -0.067 N 
HETATM   13  H   UNL     1      42.569 -10.617   6.259  1.00  0.00     0.280 HD
HETATM   14  C   UNL     1      42.560 -11.003   4.227  1.00  0.00     0.235 C 
HETATM   15  C   UNL     1      43.127 -12.411   4.144  1.00  0.00     0.035 C 
BRANCH  12  16
HETATM   16  C   UNL     1      41.146  -9.385   5.429  1.00  0.00     0.277 C 
BRANCH  16  17
HETATM   17  C   UNL     1      41.698  -8.339   6.320  1.00  0.00     0.011 A 
HETATM   18  C   UNL     1      42.339  -8.464   7.546  1.00  0.00     0.035 A 
HETATM   19  C   UNL     1      42.715  -9.657   8.348  1.00  0.00     0.070 C 
HETATM   20  N   UNL     1      42.637  -7.179   7.940  1.00  0.00    -0.278 N 
HETATM   21  C   UNL     1      43.336  -6.748   9.130  1.00  0.00     0.179 C 
HETATM   22  N   UNL     1      42.223  -6.251   7.062  1.00  0.00    -0.185 NA
HETATM   23  C   UNL     1      41.688  -6.950   6.068  1.00  0.00     0.149 A 
ENDBRANCH  16  17
ENDBRANCH  12  16
ENDBRANCH   1   9
BRANCH   1  24
HETATM   24  C   UNL     1      40.958 -15.688   3.624  1.00  0.00     0.082 C 
BRANCH  24  25
HETATM   25  C   UNL     1      42.028 -16.528   4.300  1.00  0.00    -0.034 A 
HETATM   26  C   UNL     1      43.059 -17.192   3.609  1.00  0.00     0.040 A 
HETATM   27 CL   UNL     1      43.210 -17.147   1.890  1.00  0.00    -0.084 Cl
HETATM   28  C   UNL     1      44.001 -17.966   4.297  1.00  0.00     0.024 A 
HETATM   29  C   UNL     1      43.927 -18.104   5.681  1.00  0.00     0.002 A 
HETATM   30  C   UNL     1      42.898 -17.484   6.379  1.00  0.00     0.001 A 
HETATM   31  C   UNL     1      41.954 -16.716   5.694  1.00  0.00     0.009 A 
ENDBRANCH  24  25
ENDBRANCH   1  24
BRANCH   5  32
HETATM   32  C   UNL     1      40.324 -12.845   0.124  1.00  0.00     0.141 C 
BRANCH  32  33
HETATM   33  C   UNL     1      39.802 -13.989  -0.690  1.00  0.00     0.004 A 
HETATM   34  C   UNL     1      38.682 -13.782  -1.678  1.00  0.00     0.007 A 
HETATM   35  C   UNL     1      40.077 -14.058  -2.171  1.00  0.00     0.007 A 
ENDBRANCH  32  33
ENDBRANCH   5  32
TORSDOF 7
ENDMDL
MODEL 10
REMARK VINA RESULT:      -7.9      2.084      4.864
REMARK  7 active torsions:
REMARK  status: ('A' for Active; 'I' for Inactive)
REMARK    1  A    between atoms: C_7  and  C_8 
REMARK    2  A    between atoms: C_8  and  N_9 
REMARK    3  A    between atoms: C_13  and  C_14 
REMARK    4  A    between atoms: C_14  and  C_15 
REMARK    5  A    between atoms: C_15  and  C_16 
REMARK    6  A    between atoms: N_26  and  C_27 
REMARK    7  A    between atoms: C_27  and  C_28 
ROOT
HETATM    1  C   UNL     1      40.740 -14.068   3.569  1.00  0.00     0.123 C 
HETATM    2  N   UNL     1      42.034 -13.519   3.194  1.00  0.00    -0.324 N 
HETATM    3  C   UNL     1      42.792 -14.378   2.432  1.00  0.00     0.326 C 
HETATM    4  O   UNL     1      43.861 -14.073   1.939  1.00  0.00    -0.247 OA
HETATM    5  N   UNL     1      42.159 -15.578   2.396  1.00  0.00    -0.268 N 
HETATM    6  C   UNL     1      40.999 -15.520   3.109  1.00  0.00     0.257 C 
HETATM    7  O   UNL     1      40.262 -16.466   3.357  1.00  0.00    -0.270 OA
HETATM    8  H   UNL     1      42.311 -12.545   3.276  1.00  0.00     0.165 HD
ENDROOT
BRANCH   1   9
HETATM    9  C   UNL     1      40.515 -13.897   5.108  1.00  0.00     0.027 C 
HETATM   10  C   UNL     1      39.925 -12.537   5.537  1.00  0.00     0.035 C 
HETATM   11  C   UNL     1      40.938 -11.406   5.624  1.00  0.00     0.235 C 
HETATM   12  N   UNL     1      42.071 -11.771   6.547  1.00  0.00    -0.067 N 
HETATM   13  H   UNL     1      41.686 -11.784   7.498  1.00  0.00     0.280 HD
HETATM   14  C   UNL     1      42.710 -13.107   6.283  1.00  0.00     0.235 C 
HETATM   15  C   UNL     1      41.692 -14.212   6.047  1.00  0.00     0.035 C 
BRANCH  12  16
HETATM   16  C   UNL     1      43.160 -10.703   6.555  1.00  0.00     0.277 C 
BRANCH  16  17
HETATM   17  C   UNL     1      43.732 -10.428   7.894  1.00  0.00     0.011 A 
HETATM   18  C   UNL     1      43.180  -9.751   8.973  1.00  0.00     0.035 A 
HETATM   19  C   UNL     1      41.850  -9.117   9.168  1.00  0.00     0.070 C 
HETATM   20  N   UNL     1      44.140  -9.783   9.960  1.00  0.00    -0.278 N 
HETATM   21  C   UNL     1      44.061  -9.250  11.303  1.00  0.00     0.179 C 
HETATM   22  N   UNL     1      45.261 -10.417   9.582  1.00  0.00    -0.185 NA
HETATM   23  C   UNL     1      45.004 -10.838   8.349  1.00  0.00     0.149 A 
ENDBRANCH  16  17
ENDBRANCH  12  16
ENDBRANCH   1   9
BRANCH   1  24
HETATM   24  C   UNL     1      39.610 -13.524   2.639  1.00  0.00     0.082 C 
BRANCH  24  25
HETATM   25  C   UNL     1      40.022 -13.053   1.254  1.00  0.00    -0.034 A 
HETATM   26  C   UNL     1      40.436 -11.740   0.961  1.00  0.00     0.040 A 
HETATM   27 CL   UNL     1      40.497 -10.493   2.153  1.00  0.00    -0.084 Cl
HETATM   28  C   UNL     1      40.783 -11.372  -0.344  1.00  0.00     0.024 A 
HETATM   29  C   UNL     1      40.713 -12.298  -1.382  1.00  0.00     0.002 A 
HETATM   30  C   UNL     1      40.276 -13.590  -1.121  1.00  0.00     0.001 A 
HETATM   31  C   UNL     1      39.924 -13.959   0.179  1.00  0.00     0.009 A 
ENDBRANCH  24  25
ENDBRANCH   1  24
BRANCH   5  32
HETATM   32  C   UNL     1      42.686 -16.763   1.756  1.00  0.00     0.141 C 
BRANCH  32  33
HETATM   33  C   UNL     1      42.858 -17.857   2.765  1.00  0.00     0.004 A 
HETATM   34  C   UNL     1      43.166 -19.267   2.326  1.00  0.00     0.007 A 
HETATM   35  C   UNL     1      44.221 -18.449   3.022  1.00  0.00     0.007 A 
ENDBRANCH  32  33
ENDBRANCH   5  32
TORSDOF 7
ENDMDL
