MODEL 1
REMARK VINA RESULT:      -8.8      0.000      0.000
REMARK  7 active torsions:
REMARK  status: ('A' for Active; 'I' for Inactive)
REMARK    1  A    between atoms: C_2  and  C_3 
REMARK    2  A    between atoms: C_3  and  N_4 
REMARK    3  A    between atoms: C_3  and  C_22 
REMARK       I    between atoms: N_4  and  C_5 
REMARK       I    between atoms: C_5  and  N_6 
REMARK    4  A    between atoms: N_6  and  C_7 
REMARK    5  A    between atoms: C_7  and  C_8 
REMARK    6  A    between atoms: C_11  and  N_12 
REMARK       I    between atoms: N_12  and  C_13 
REMARK       I    between atoms: C_13  and  N_14 
REMARK    7  A    between atoms: N_14  and  C_15 
ROOT
HETATM    1  N   UNL     1      43.570 -13.173   5.924  1.00  0.00    -0.331 N 
HETATM    2  C   UNL     1      44.076 -11.904   6.010  1.00  0.00     0.317 C 
HETATM    3  N   UNL     1      44.862 -11.754   7.117  1.00  0.00    -0.339 N 
HETATM    4  O   UNL     1      43.841 -11.015   5.201  1.00  0.00    -0.247 OA
HETATM    5  H   UNL     1      43.546 -13.669   6.801  1.00  0.00     0.165 HD
HETATM    6  H   UNL     1      45.312 -12.589   7.462  1.00  0.00     0.164 HD
ENDROOT
BRANCH   1   7
HETATM    7  C   UNL     1      42.549 -13.533   4.943  1.00  0.00     0.159 C 
BRANCH   7   8
HETATM    8  C   UNL     1      41.109 -13.339   5.492  1.00  0.00     0.008 C 
HETATM    9  C   UNL     1      40.647 -14.586   6.257  1.00  0.00     0.012 C 
HETATM   10  C   UNL     1      40.067 -12.987   4.420  1.00  0.00     0.012 C 
ENDBRANCH   7   8
BRANCH   7  11
HETATM   11  C   UNL     1      42.787 -14.936   4.440  1.00  0.00     0.128 A 
HETATM   12  N   UNL     1      42.435 -15.462   3.281  1.00  0.00    -0.231 NA
HETATM   13  C   UNL     1      42.939 -16.740   3.280  1.00  0.00     0.085 A 
HETATM   14  C   UNL     1      43.618 -17.008   4.462  1.00  0.00     0.062 A 
HETATM   15  C   UNL     1      42.859 -17.734   2.297  1.00  0.00     0.034 A 
HETATM   16  N   UNL     1      43.510 -15.847   5.180  1.00  0.00    -0.341 N 
HETATM   17  C   UNL     1      44.232 -18.231   4.734  1.00  0.00     0.032 A 
HETATM   18  H   UNL     1      43.871 -15.668   6.111  1.00  0.00     0.167 HD
HETATM   19  C   UNL     1      44.144 -19.212   3.740  1.00  0.00     0.002 A 
HETATM   20  C   UNL     1      43.470 -18.972   2.540  1.00  0.00     0.002 A 
ENDBRANCH   7  11
ENDBRANCH   1   7
BRANCH   3  21
HETATM   21  C   UNL     1      45.524 -10.501   7.401  1.00  0.00     0.162 C 
BRANCH  21  22
HETATM   22  C   UNL     1      44.960  -9.895   8.659  1.00  0.00    -0.040 A 
HETATM   23  C   UNL     1      44.204  -8.719   8.629  1.00  0.00     0.011 A 
HETATM   24  C   UNL     1      43.718  -8.152   9.815  1.00  0.00     0.030 A 
HETATM   25  C   UNL     1      43.999  -8.740  11.050  1.00  0.00     0.036 A 
HETATM   26  C   UNL     1      44.723  -9.936  11.076  1.00  0.00     0.030 A 
HETATM   27  C   UNL     1      45.209 -10.503   9.895  1.00  0.00     0.011 A 
BRANCH  25  28
HETATM   28  N   UNL     1      43.566  -8.238  12.290  1.00  0.00    -0.309 N 
HETATM   29  C   UNL     1      42.449  -8.449  13.043  1.00  0.00     0.321 C 
HETATM   30  N   UNL     1      41.392  -9.052  12.434  1.00  0.00    -0.339 N 
HETATM   31  O   UNL     1      42.429  -8.033  14.199  1.00  0.00    -0.247 OA
HETATM   32  H   UNL     1      41.358  -8.877  11.441  1.00  0.00     0.164 HD
HETATM   33  H   UNL     1      44.196  -7.603  12.764  1.00  0.00     0.170 HD
BRANCH  30  34
HETATM   34  C   UNL     1      40.095  -9.256  13.071  1.00  0.00     0.078 C 
HETATM   35  C   UNL     1      39.087  -8.155  12.745  1.00  0.00     0.032 C 
HETATM   36  C   UNL     1      39.529 -10.642  12.774  1.00  0.00     0.032 C 
ENDBRANCH  30  34
ENDBRANCH  25  28
ENDBRANCH  21  22
ENDBRANCH   3  21
TORSDOF 7
ENDMDL
MODEL 2
REMARK VINA RESULT:      -8.4      1.379      2.060
REMARK  7 active torsions:
REMARK  status: ('A' for Active; 'I' for Inactive)
REMARK    1  A    between atoms: C_2  and  C_3 
REMARK    2  A    between atoms: C_3  and  N_4 
REMARK    3  A    between atoms: C_3  and  C_22 
REMARK       I    between atoms: N_4  and  C_5 
REMARK       I    between atoms: C_5  and  N_6 
REMARK    4  A    between atoms: N_6  and  C_7 
REMARK    5  A    between atoms: C_7  and  C_8 
REMARK    6  A    between atoms: C_11  and  N_12 
REMARK       I    between atoms: N_12  and  C_13 
REMARK       I    between atoms: C_13  and  N_14 
REMARK    7  A    between atoms: N_14  and  C_15 
ROOT
HETATM    1  N   UNL     1      42.560 -12.692   6.568  1.00  0.00    -0.331 N 
HETATM    2  C   UNL     1      43.476 -11.721   6.869  1.00  0.00     0.317 C 
HETATM    3  N   UNL     1      43.478 -11.435   8.204  1.00  0.00    -0.339 N 
HETATM    4  O   UNL     1      44.192 -11.172   6.041  1.00  0.00    -0.247 OA
HETATM    5  H   UNL     1      41.822 -12.791   7.246  1.00  0.00     0.165 HD
HETATM    6  H   UNL     1      43.187 -12.178   8.822  1.00  0.00     0.164 HD
ENDROOT
BRANCH   1   7
HETATM    7  C   UNL     1      42.228 -13.039   5.187  1.00  0.00     0.159 C 
BRANCH   7   8
HETATM    8  C   UNL     1      40.706 -12.918   4.899  1.00  0.00     0.008 C 
HETATM    9  C   UNL     1      40.449 -11.953   3.734  1.00  0.00     0.012 C 
HETATM   10  C   UNL     1      39.867 -12.487   6.110  1.00  0.00     0.012 C 
ENDBRANCH   7   8
BRANCH   7  11
HETATM   11  C   UNL     1      42.767 -14.409   4.854  1.00  0.00     0.128 A 
HETATM   12  N   UNL     1      43.362 -15.272   5.657  1.00  0.00    -0.231 NA
HETATM   13  C   UNL     1      43.600 -16.390   4.896  1.00  0.00     0.085 A 
HETATM   14  C   UNL     1      43.141 -16.215   3.597  1.00  0.00     0.062 A 
HETATM   15  C   UNL     1      44.206 -17.603   5.250  1.00  0.00     0.034 A 
HETATM   16  N   UNL     1      42.614 -14.952   3.597  1.00  0.00    -0.341 N 
HETATM   17  C   UNL     1      43.252 -17.190   2.605  1.00  0.00     0.032 A 
HETATM   18  H   UNL     1      42.195 -14.464   2.811  1.00  0.00     0.167 HD
HETATM   19  C   UNL     1      43.858 -18.396   2.977  1.00  0.00     0.002 A 
HETATM   20  C   UNL     1      44.328 -18.603   4.276  1.00  0.00     0.002 A 
ENDBRANCH   7  11
ENDBRANCH   1   7
BRANCH   3  21
HETATM   21  C   UNL     1      44.383 -10.453   8.758  1.00  0.00     0.162 C 
BRANCH  21  22
HETATM   22  C   UNL     1      43.854  -9.951  10.076  1.00  0.00    -0.040 A 
HETATM   23  C   UNL     1      43.705  -8.584  10.330  1.00  0.00     0.011 A 
HETATM   24  C   UNL     1      43.245  -8.136  11.576  1.00  0.00     0.030 A 
HETATM   25  C   UNL     1      42.949  -9.046  12.593  1.00  0.00     0.036 A 
HETATM   26  C   UNL     1      43.063 -10.413  12.325  1.00  0.00     0.030 A 
HETATM   27  C   UNL     1      43.521 -10.863  11.084  1.00  0.00     0.011 A 
BRANCH  25  28
HETATM   28  N   UNL     1      42.494  -8.690  13.875  1.00  0.00    -0.309 N 
HETATM   29  C   UNL     1      41.314  -8.190  14.341  1.00  0.00     0.321 C 
HETATM   30  N   UNL     1      40.450  -7.676  13.423  1.00  0.00    -0.339 N 
HETATM   31  O   UNL     1      41.119  -8.171  15.553  1.00  0.00    -0.247 OA
HETATM   32  H   UNL     1      40.916  -7.309  12.607  1.00  0.00     0.164 HD
HETATM   33  H   UNL     1      43.139  -8.843  14.640  1.00  0.00     0.170 HD
BRANCH  30  34
HETATM   34  C   UNL     1      39.197  -7.013  13.770  1.00  0.00     0.078 C 
HETATM   35  C   UNL     1      39.383  -5.553  14.178  1.00  0.00     0.032 C 
HETATM   36  C   UNL     1      38.154  -7.160  12.665  1.00  0.00     0.032 C 
ENDBRANCH  30  34
ENDBRANCH  25  28
ENDBRANCH  21  22
ENDBRANCH   3  21
TORSDOF 7
ENDMDL
MODEL 3
REMARK VINA RESULT:      -8.2      2.155      3.043
REMARK  7 active torsions:
REMARK  status: ('A' for Active; 'I' for Inactive)
REMARK    1  A    between atoms: C_2  and  C_3 
REMARK    2  A    between atoms: C_3  and  N_4 
REMARK    3  A    between atoms: C_3  and  C_22 
REMARK       I    between atoms: N_4  and  C_5 
REMARK       I    between atoms: C_5  and  N_6 
REMARK    4  A    between atoms: N_6  and  C_7 
REMARK    5  A    between atoms: C_7  and  C_8 
REMARK    6  A    between atoms: C_11  and  N_12 
REMARK       I    between atoms: N_12  and  C_13 
REMARK       I    between atoms: C_13  and  N_14 
REMARK    7  A    between atoms: N_14  and  C_15 
ROOT
HETATM    1  N   UNL     1      42.666 -12.794   6.483  1.00  0.00    -0.331 N 
HETATM    2  C   UNL     1      43.605 -11.859   6.827  1.00  0.00     0.317 C 
HETATM    3  N   UNL     1      43.586 -11.604   8.168  1.00  0.00    -0.339 N 
HETATM    4  O   UNL     1      44.355 -11.313   6.028  1.00  0.00    -0.247 OA
HETATM    5  H   UNL     1      41.911 -12.885   7.143  1.00  0.00     0.165 HD
HETATM    6  H   UNL     1      43.259 -12.352   8.761  1.00  0.00     0.164 HD
ENDROOT
BRANCH   1   7
HETATM    7  C   UNL     1      42.354 -13.098   5.088  1.00  0.00     0.159 C 
BRANCH   7   8
HETATM    8  C   UNL     1      40.846 -12.905   4.766  1.00  0.00     0.008 C 
HETATM    9  C   UNL     1      40.573 -11.477   4.278  1.00  0.00     0.012 C 
HETATM   10  C   UNL     1      39.905 -13.231   5.934  1.00  0.00     0.012 C 
ENDBRANCH   7   8
BRANCH   7  11
HETATM   11  C   UNL     1      42.842 -14.483   4.739  1.00  0.00     0.128 A 
HETATM   12  N   UNL     1      43.418 -15.371   5.528  1.00  0.00    -0.231 NA
HETATM   13  C   UNL     1      43.608 -16.491   4.757  1.00  0.00     0.085 A 
HETATM   14  C   UNL     1      43.137 -16.292   3.465  1.00  0.00     0.062 A 
HETATM   15  C   UNL     1      44.178 -17.726   5.094  1.00  0.00     0.034 A 
HETATM   16  N   UNL     1      42.653 -15.012   3.480  1.00  0.00    -0.341 N 
HETATM   17  C   UNL     1      43.201 -17.264   2.466  1.00  0.00     0.032 A 
HETATM   18  H   UNL     1      42.240 -14.505   2.704  1.00  0.00     0.167 HD
HETATM   19  C   UNL     1      43.771 -18.492   2.822  1.00  0.00     0.002 A 
HETATM   20  C   UNL     1      44.252 -18.724   4.112  1.00  0.00     0.002 A 
ENDBRANCH   7  11
ENDBRANCH   1   7
BRANCH   3  21
HETATM   21  C   UNL     1      44.508 -10.664   8.764  1.00  0.00     0.162 C 
BRANCH  21  22
HETATM   22  C   UNL     1      43.775  -9.755   9.715  1.00  0.00    -0.040 A 
HETATM   23  C   UNL     1      44.332  -9.375  10.939  1.00  0.00     0.011 A 
HETATM   24  C   UNL     1      43.619  -8.557  11.826  1.00  0.00     0.030 A 
HETATM   25  C   UNL     1      42.329  -8.125  11.511  1.00  0.00     0.036 A 
HETATM   26  C   UNL     1      41.786  -8.475  10.271  1.00  0.00     0.030 A 
HETATM   27  C   UNL     1      42.496  -9.290   9.385  1.00  0.00     0.011 A 
BRANCH  25  28
HETATM   28  N   UNL     1      41.534  -7.314  12.340  1.00  0.00    -0.309 N 
HETATM   29  C   UNL     1      41.282  -5.975  12.371  1.00  0.00     0.321 C 
HETATM   30  N   UNL     1      42.112  -5.168  11.655  1.00  0.00    -0.339 N 
HETATM   31  O   UNL     1      40.370  -5.561  13.084  1.00  0.00    -0.247 OA
HETATM   32  H   UNL     1      43.042  -5.548  11.557  1.00  0.00     0.164 HD
HETATM   33  H   UNL     1      41.006  -7.789  13.063  1.00  0.00     0.170 HD
BRANCH  30  34
HETATM   34  C   UNL     1      42.038  -3.711  11.667  1.00  0.00     0.078 C 
HETATM   35  C   UNL     1      42.903  -3.075  12.754  1.00  0.00     0.032 C 
HETATM   36  C   UNL     1      42.336  -3.117  10.293  1.00  0.00     0.032 C 
ENDBRANCH  30  34
ENDBRANCH  25  28
ENDBRANCH  21  22
ENDBRANCH   3  21
TORSDOF 7
ENDMDL
MODEL 4
REMARK VINA RESULT:      -8.0      2.421      3.403
REMARK  7 active torsions:
REMARK  status: ('A' for Active; 'I' for Inactive)
REMARK    1  A    between atoms: C_2  and  C_3 
REMARK    2  A    between atoms: C_3  and  N_4 
REMARK    3  A    between atoms: C_3  and  C_22 
REMARK       I    between atoms: N_4  and  C_5 
REMARK       I    between atoms: C_5  and  N_6 
REMARK    4  A    between atoms: N_6  and  C_7 
REMARK    5  A    between atoms: C_7  and  C_8 
REMARK    6  A    between atoms: C_11  and  N_12 
REMARK       I    between atoms: N_12  and  C_13 
REMARK       I    between atoms: C_13  and  N_14 
REMARK    7  A    between atoms: N_14  and  C_15 
ROOT
HETATM    1  N   UNL     1      42.329 -14.344   3.568  1.00  0.00    -0.331 N 
HETATM    2  C   UNL     1      42.968 -13.142   3.706  1.00  0.00     0.317 C 
HETATM    3  N   UNL     1      42.515 -12.459   4.799  1.00  0.00    -0.339 N 
HETATM    4  O   UNL     1      43.829 -12.729   2.939  1.00  0.00    -0.247 OA
HETATM    5  H   UNL     1      41.436 -14.394   4.030  1.00  0.00     0.165 HD
HETATM    6  H   UNL     1      42.146 -13.018   5.554  1.00  0.00     0.164 HD
ENDROOT
BRANCH   1   7
HETATM    7  C   UNL     1      42.493 -15.174   2.375  1.00  0.00     0.159 C 
BRANCH   7   8
HETATM    8  C   UNL     1      41.254 -15.115   1.441  1.00  0.00     0.008 C 
HETATM    9  C   UNL     1      41.129 -13.732   0.789  1.00  0.00     0.012 C 
HETATM   10  C   UNL     1      39.929 -15.475   2.128  1.00  0.00     0.012 C 
ENDBRANCH   7   8
BRANCH   7  11
HETATM   11  C   UNL     1      42.845 -16.587   2.773  1.00  0.00     0.128 A 
HETATM   12  N   UNL     1      42.873 -17.668   2.016  1.00  0.00    -0.231 NA
HETATM   13  C   UNL     1      43.317 -18.683   2.828  1.00  0.00     0.085 A 
HETATM   14  C   UNL     1      43.571 -18.218   4.112  1.00  0.00     0.062 A 
HETATM   15  C   UNL     1      43.533 -20.036   2.534  1.00  0.00     0.034 A 
HETATM   16  N   UNL     1      43.267 -16.886   4.051  1.00  0.00    -0.341 N 
HETATM   17  C   UNL     1      44.033 -19.034   5.146  1.00  0.00     0.032 A 
HETATM   18  H   UNL     1      43.313 -16.212   4.809  1.00  0.00     0.167 HD
HETATM   19  C   UNL     1      44.245 -20.382   4.834  1.00  0.00     0.002 A 
HETATM   20  C   UNL     1      44.001 -20.879   3.552  1.00  0.00     0.002 A 
ENDBRANCH   7  11
ENDBRANCH   1   7
BRANCH   3  21
HETATM   21  C   UNL     1      43.064 -11.171   5.157  1.00  0.00     0.162 C 
BRANCH  21  22
HETATM   22  C   UNL     1      42.172 -10.494   6.165  1.00  0.00    -0.040 A 
HETATM   23  C   UNL     1      42.694  -9.659   7.157  1.00  0.00     0.011 A 
HETATM   24  C   UNL     1      41.851  -9.067   8.107  1.00  0.00     0.030 A 
HETATM   25  C   UNL     1      40.478  -9.317   8.093  1.00  0.00     0.036 A 
HETATM   26  C   UNL     1      39.952 -10.122   7.078  1.00  0.00     0.030 A 
HETATM   27  C   UNL     1      40.790 -10.715   6.129  1.00  0.00     0.011 A 
BRANCH  25  28
HETATM   28  N   UNL     1      39.558  -8.779   9.010  1.00  0.00    -0.309 N 
HETATM   29  C   UNL     1      39.530  -8.709  10.371  1.00  0.00     0.321 C 
HETATM   30  N   UNL     1      40.394  -9.509  11.054  1.00  0.00    -0.339 N 
HETATM   31  O   UNL     1      38.694  -7.987  10.908  1.00  0.00    -0.247 OA
HETATM   32  H   UNL     1      40.628 -10.353  10.553  1.00  0.00     0.164 HD
HETATM   33  H   UNL     1      38.746  -8.319   8.617  1.00  0.00     0.170 HD
BRANCH  30  34
HETATM   34  C   UNL     1      40.417  -9.626  12.508  1.00  0.00     0.078 C 
HETATM   35  C   UNL     1      39.577 -10.790  13.030  1.00  0.00     0.032 C 
HETATM   36  C   UNL     1      41.843  -9.674  13.051  1.00  0.00     0.032 C 
ENDBRANCH  30  34
ENDBRANCH  25  28
ENDBRANCH  21  22
ENDBRANCH   3  21
TORSDOF 7
ENDMDL
MODEL 5
REMARK VINA RESULT:      -8.0      2.584     10.496
REMARK  7 active torsions:
REMARK  status: ('A' for Active; 'I' for Inactive)
REMARK    1  A    between atoms: C_2  and  C_3 
REMARK    2  A    between atoms: C_3  and  N_4 
REMARK    3  A    between atoms: C_3  and  C_22 
REMARK       I    between atoms: N_4  and  C_5 
REMARK       I    between atoms: C_5  and  N_6 
REMARK    4  A    between atoms: N_6  and  C_7 
REMARK    5  A    between atoms: C_7  and  C_8 
REMARK    6  A    between atoms: C_11  and  N_12 
REMARK       I    between atoms: N_12  and  C_13 
REMARK       I    between atoms: C_13  and  N_14 
REMARK    7  A    between atoms: N_14  and  C_15 
ROOT
HETATM    1  N   UNL     1      42.029 -10.048   8.676  1.00  0.00    -0.331 N 
HETATM    2  C   UNL     1      41.264  -9.477   7.695  1.00  0.00     0.317 C 
HETATM    3  N   UNL     1      40.373 -10.371   7.175  1.00  0.00    -0.339 N 
HETATM    4  O   UNL     1      41.376  -8.315   7.326  1.00  0.00    -0.247 OA
HETATM    5  H   UNL     1      42.082 -11.053   8.629  1.00  0.00     0.165 HD
HETATM    6  H   UNL     1      40.080 -11.118   7.787  1.00  0.00     0.164 HD
ENDROOT
BRANCH   1   7
HETATM    7  C   UNL     1      43.184  -9.361   9.254  1.00  0.00     0.159 C 
BRANCH   7   8
HETATM    8  C   UNL     1      44.498 -10.172   9.084  1.00  0.00     0.008 C 
HETATM    9  C   UNL     1      45.692  -9.233   8.872  1.00  0.00     0.012 C 
HETATM   10  C   UNL     1      44.458 -11.207   7.950  1.00  0.00     0.012 C 
ENDBRANCH   7   8
BRANCH   7  11
HETATM   11  C   UNL     1      42.908  -9.012  10.696  1.00  0.00     0.128 A 
HETATM   12  N   UNL     1      43.478  -8.077  11.435  1.00  0.00    -0.231 NA
HETATM   13  C   UNL     1      42.835  -8.115  12.648  1.00  0.00     0.085 A 
HETATM   14  C   UNL     1      41.846  -9.091  12.657  1.00  0.00     0.062 A 
HETATM   15  C   UNL     1      43.040  -7.337  13.796  1.00  0.00     0.034 A 
HETATM   16  N   UNL     1      41.911  -9.643  11.407  1.00  0.00    -0.341 N 
HETATM   17  C   UNL     1      41.034  -9.350  13.762  1.00  0.00     0.032 A 
HETATM   18  H   UNL     1      41.347 -10.406  11.045  1.00  0.00     0.167 HD
HETATM   19  C   UNL     1      41.252  -8.563  14.899  1.00  0.00     0.002 A 
HETATM   20  C   UNL     1      42.236  -7.572  14.920  1.00  0.00     0.002 A 
ENDBRANCH   7  11
ENDBRANCH   1   7
BRANCH   3  21
HETATM   21  C   UNL     1      39.442  -9.983   6.139  1.00  0.00     0.162 C 
BRANCH  21  22
HETATM   22  C   UNL     1      39.437 -11.013   5.040  1.00  0.00    -0.040 A 
HETATM   23  C   UNL     1      39.021 -10.695   3.744  1.00  0.00     0.011 A 
HETATM   24  C   UNL     1      38.990 -11.677   2.744  1.00  0.00     0.030 A 
HETATM   25  C   UNL     1      39.352 -12.994   3.031  1.00  0.00     0.036 A 
HETATM   26  C   UNL     1      39.802 -13.303   4.317  1.00  0.00     0.030 A 
HETATM   27  C   UNL     1      39.835 -12.326   5.317  1.00  0.00     0.011 A 
BRANCH  25  28
HETATM   28  N   UNL     1      39.340 -14.047   2.098  1.00  0.00    -0.309 N 
HETATM   29  C   UNL     1      40.061 -15.198   1.981  1.00  0.00     0.321 C 
HETATM   30  N   UNL     1      41.195 -15.301   2.727  1.00  0.00    -0.339 N 
HETATM   31  O   UNL     1      39.692 -16.047   1.173  1.00  0.00    -0.247 OA
HETATM   32  H   UNL     1      41.619 -14.407   2.923  1.00  0.00     0.164 HD
HETATM   33  H   UNL     1      38.654 -13.984   1.356  1.00  0.00     0.170 HD
BRANCH  30  34
HETATM   34  C   UNL     1      42.126 -16.421   2.639  1.00  0.00     0.078 C 
HETATM   35  C   UNL     1      43.285 -16.165   1.677  1.00  0.00     0.032 C 
HETATM   36  C   UNL     1      42.624 -16.854   4.016  1.00  0.00     0.032 C 
ENDBRANCH  30  34
ENDBRANCH  25  28
ENDBRANCH  21  22
ENDBRANCH   3  21
TORSDOF 7
ENDMDL
MODEL 6
REMARK VINA RESULT:      -7.9     18.456     22.534
REMARK  7 active torsions:
REMARK  status: ('A' for Active; 'I' for Inactive)
REMARK    1  A    between atoms: C_2  and  C_3 
REMARK    2  A    between atoms: C_3  and  N_4 
REMARK    3  A    between atoms: C_3  and  C_22 
REMARK       I    between atoms: N_4  and  C_5 
REMARK       I    between atoms: C_5  and  N_6 
REMARK    4  A    between atoms: N_6  and  C_7 
REMARK    5  A    between atoms: C_7  and  C_8 
REMARK    6  A    between atoms: C_11  and  N_12 
REMARK       I    between atoms: N_12  and  C_13 
REMARK       I    between atoms: C_13  and  N_14 
REMARK    7  A    between atoms: N_14  and  C_15 
ROOT
HETATM    1  N   UNL     1      48.250 -29.220   1.079  1.00  0.00    -0.331 N 
HETATM    2  C   UNL     1      46.946 -29.512   0.783  1.00  0.00     0.317 C 
HETATM    3  N   UNL     1      46.285 -28.416   0.306  1.00  0.00    -0.339 N 
HETATM    4  O   UNL     1      46.437 -30.614   0.940  1.00  0.00    -0.247 OA
HETATM    5  H   UNL     1      48.429 -28.242   1.240  1.00  0.00     0.165 HD
HETATM    6  H   UNL     1      46.850 -27.721  -0.159  1.00  0.00     0.164 HD
ENDROOT
BRANCH   1   7
HETATM    7  C   UNL     1      49.113 -30.166   1.783  1.00  0.00     0.159 C 
BRANCH   7   8
HETATM    8  C   UNL     1      49.744 -29.550   3.062  1.00  0.00     0.008 C 
HETATM    9  C   UNL     1      50.001 -30.633   4.118  1.00  0.00     0.012 C 
HETATM   10  C   UNL     1      48.919 -28.416   3.688  1.00  0.00     0.012 C 
ENDBRANCH   7   8
BRANCH   7  11
HETATM   11  C   UNL     1      50.154 -30.717   0.839  1.00  0.00     0.128 A 
HETATM   12  N   UNL     1      50.964 -31.744   1.023  1.00  0.00    -0.231 NA
HETATM   13  C   UNL     1      51.667 -31.881  -0.149  1.00  0.00     0.085 A 
HETATM   14  C   UNL     1      51.281 -30.921  -1.076  1.00  0.00     0.062 A 
HETATM   15  C   UNL     1      52.655 -32.812  -0.498  1.00  0.00     0.034 A 
HETATM   16  N   UNL     1      50.319 -30.198  -0.426  1.00  0.00    -0.341 N 
HETATM   17  C   UNL     1      51.831 -30.825  -2.355  1.00  0.00     0.032 A 
HETATM   18  H   UNL     1      49.812 -29.394  -0.784  1.00  0.00     0.167 HD
HETATM   19  C   UNL     1      52.816 -31.763  -2.687  1.00  0.00     0.002 A 
HETATM   20  C   UNL     1      53.223 -32.741  -1.777  1.00  0.00     0.002 A 
ENDBRANCH   7  11
ENDBRANCH   1   7
BRANCH   3  21
HETATM   21  C   UNL     1      44.899 -28.494  -0.095  1.00  0.00     0.162 C 
BRANCH  21  22
HETATM   22  C   UNL     1      44.804 -28.867  -1.551  1.00  0.00    -0.040 A 
HETATM   23  C   UNL     1      45.317 -28.036  -2.552  1.00  0.00     0.011 A 
HETATM   24  C   UNL     1      45.187 -28.384  -3.904  1.00  0.00     0.030 A 
HETATM   25  C   UNL     1      44.524 -29.555  -4.275  1.00  0.00     0.036 A 
HETATM   26  C   UNL     1      44.045 -30.403  -3.272  1.00  0.00     0.030 A 
HETATM   27  C   UNL     1      44.173 -30.059  -1.924  1.00  0.00     0.011 A 
BRANCH  25  28
HETATM   28  N   UNL     1      44.336 -29.980  -5.603  1.00  0.00    -0.309 N 
HETATM   29  C   UNL     1      44.844 -31.012  -6.333  1.00  0.00     0.321 C 
HETATM   30  N   UNL     1      45.937 -31.651  -5.832  1.00  0.00    -0.339 N 
HETATM   31  O   UNL     1      44.338 -31.270  -7.422  1.00  0.00    -0.247 OA
HETATM   32  H   UNL     1      46.510 -31.055  -5.254  1.00  0.00     0.164 HD
HETATM   33  H   UNL     1      43.677 -29.447  -6.156  1.00  0.00     0.170 HD
BRANCH  30  34
HETATM   34  C   UNL     1      46.657 -32.704  -6.540  1.00  0.00     0.078 C 
HETATM   35  C   UNL     1      48.148 -32.740  -6.207  1.00  0.00     0.032 C 
HETATM   36  C   UNL     1      46.004 -34.070  -6.342  1.00  0.00     0.032 C 
ENDBRANCH  30  34
ENDBRANCH  25  28
ENDBRANCH  21  22
ENDBRANCH   3  21
TORSDOF 7
ENDMDL
MODEL 7
REMARK VINA RESULT:      -7.9      2.001      2.938
REMARK  7 active torsions:
REMARK  status: ('A' for Active; 'I' for Inactive)
REMARK    1  A    between atoms: C_2  and  C_3 
REMARK    2  A    between atoms: C_3  and  N_4 
REMARK    3  A    between atoms: C_3  and  C_22 
REMARK       I    between atoms: N_4  and  C_5 
REMARK       I    between atoms: C_5  and  N_6 
REMARK    4  A    between atoms: N_6  and  C_7 
REMARK    5  A    between atoms: C_7  and  C_8 
REMARK    6  A    between atoms: C_11  and  N_12 
REMARK       I    between atoms: N_12  and  C_13 
REMARK       I    between atoms: C_13  and  N_14 
REMARK    7  A    between atoms: N_14  and  C_15 
ROOT
HETATM    1  N   UNL     1      43.008 -11.862   7.414  1.00  0.00    -0.331 N 
HETATM    2  C   UNL     1      43.976 -11.159   8.078  1.00  0.00     0.317 C 
HETATM    3  N   UNL     1      43.641 -10.966   9.388  1.00  0.00    -0.339 N 
HETATM    4  O   UNL     1      45.004 -10.746   7.557  1.00  0.00    -0.247 OA
HETATM    5  H   UNL     1      42.098 -11.824   7.845  1.00  0.00     0.165 HD
HETATM    6  H   UNL     1      43.031 -11.656   9.800  1.00  0.00     0.164 HD
ENDROOT
BRANCH   1   7
HETATM    7  C   UNL     1      43.034 -12.032   5.962  1.00  0.00     0.159 C 
BRANCH   7   8
HETATM    8  C   UNL     1      41.828 -11.345   5.266  1.00  0.00     0.008 C 
HETATM    9  C   UNL     1      42.308 -10.358   4.194  1.00  0.00     0.012 C 
HETATM   10  C   UNL     1      40.871 -10.625   6.227  1.00  0.00     0.012 C 
ENDBRANCH   7   8
BRANCH   7  11
HETATM   11  C   UNL     1      43.139 -13.497   5.615  1.00  0.00     0.128 A 
HETATM   12  N   UNL     1      42.806 -14.096   4.486  1.00  0.00    -0.231 NA
HETATM   13  C   UNL     1      43.154 -15.416   4.646  1.00  0.00     0.085 A 
HETATM   14  C   UNL     1      43.716 -15.634   5.897  1.00  0.00     0.062 A 
HETATM   15  C   UNL     1      43.024 -16.491   3.757  1.00  0.00     0.034 A 
HETATM   16  N   UNL     1      43.698 -14.401   6.491  1.00  0.00    -0.341 N 
HETATM   17  C   UNL     1      44.162 -16.883   6.331  1.00  0.00     0.032 A 
HETATM   18  H   UNL     1      44.014 -14.168   7.427  1.00  0.00     0.167 HD
HETATM   19  C   UNL     1      44.025 -17.946   5.430  1.00  0.00     0.002 A 
HETATM   20  C   UNL     1      43.467 -17.757   4.164  1.00  0.00     0.002 A 
ENDBRANCH   7  11
ENDBRANCH   1   7
BRANCH   3  21
HETATM   21  C   UNL     1      44.527 -10.267  10.291  1.00  0.00     0.162 C 
BRANCH  21  22
HETATM   22  C   UNL     1      43.742  -9.696  11.443  1.00  0.00    -0.040 A 
HETATM   23  C   UNL     1      42.798 -10.462  12.134  1.00  0.00     0.011 A 
HETATM   24  C   UNL     1      42.052  -9.903  13.180  1.00  0.00     0.030 A 
HETATM   25  C   UNL     1      42.223  -8.564  13.537  1.00  0.00     0.036 A 
HETATM   26  C   UNL     1      43.193  -7.809  12.871  1.00  0.00     0.030 A 
HETATM   27  C   UNL     1      43.938  -8.364  11.827  1.00  0.00     0.011 A 
BRANCH  25  28
HETATM   28  N   UNL     1      41.513  -7.914  14.562  1.00  0.00    -0.309 N 
HETATM   29  C   UNL     1      40.383  -7.152  14.577  1.00  0.00     0.321 C 
HETATM   30  N   UNL     1      39.937  -6.676  13.382  1.00  0.00    -0.339 N 
HETATM   31  O   UNL     1      39.866  -6.883  15.658  1.00  0.00    -0.247 OA
HETATM   32  H   UNL     1      40.678  -6.544  12.710  1.00  0.00     0.164 HD
HETATM   33  H   UNL     1      41.872  -8.030  15.502  1.00  0.00     0.170 HD
BRANCH  30  34
HETATM   34  C   UNL     1      38.806  -5.766  13.241  1.00  0.00     0.078 C 
HETATM   35  C   UNL     1      39.068  -4.628  12.256  1.00  0.00     0.032 C 
HETATM   36  C   UNL     1      37.516  -6.512  12.907  1.00  0.00     0.032 C 
ENDBRANCH  30  34
ENDBRANCH  25  28
ENDBRANCH  21  22
ENDBRANCH   3  21
TORSDOF 7
ENDMDL
MODEL 8
REMARK VINA RESULT:      -7.9      6.490     10.429
REMARK  7 active torsions:
REMARK  status: ('A' for Active; 'I' for Inactive)
REMARK    1  A    between atoms: C_2  and  C_3 
REMARK    2  A    between atoms: C_3  and  N_4 
REMARK    3  A    between atoms: C_3  and  C_22 
REMARK       I    between atoms: N_4  and  C_5 
REMARK       I    between atoms: C_5  and  N_6 
REMARK    4  A    between atoms: N_6  and  C_7 
REMARK    5  A    between atoms: C_7  and  C_8 
REMARK    6  A    between atoms: C_11  and  N_12 
REMARK       I    between atoms: N_12  and  C_13 
REMARK       I    between atoms: C_13  and  N_14 
REMARK    7  A    between atoms: N_14  and  C_15 
ROOT
HETATM    1  N   UNL     1      41.975 -14.763   1.549  1.00  0.00    -0.331 N 
HETATM    2  C   UNL     1      40.782 -14.783   0.879  1.00  0.00     0.317 C 
HETATM    3  N   UNL     1      40.904 -14.247  -0.371  1.00  0.00    -0.339 N 
HETATM    4  O   UNL     1      39.738 -15.216   1.349  1.00  0.00    -0.247 OA
HETATM    5  H   UNL     1      42.634 -14.084   1.204  1.00  0.00     0.165 HD
HETATM    6  H   UNL     1      41.817 -14.309  -0.797  1.00  0.00     0.164 HD
ENDROOT
BRANCH   1   7
HETATM    7  C   UNL     1      42.070 -15.100   2.969  1.00  0.00     0.159 C 
BRANCH   7   8
HETATM    8  C   UNL     1      42.956 -14.095   3.755  1.00  0.00     0.008 C 
HETATM    9  C   UNL     1      42.259 -13.651   5.047  1.00  0.00     0.012 C 
HETATM   10  C   UNL     1      43.371 -12.856   2.950  1.00  0.00     0.012 C 
ENDBRANCH   7   8
BRANCH   7  11
HETATM   11  C   UNL     1      42.536 -16.526   3.132  1.00  0.00     0.128 A 
HETATM   12  N   UNL     1      42.564 -17.487   2.227  1.00  0.00    -0.231 NA
HETATM   13  C   UNL     1      43.133 -18.571   2.849  1.00  0.00     0.085 A 
HETATM   14  C   UNL     1      43.467 -18.272   4.164  1.00  0.00     0.062 A 
HETATM   15  C   UNL     1      43.403 -19.852   2.348  1.00  0.00     0.034 A 
HETATM   16  N   UNL     1      43.081 -16.969   4.318  1.00  0.00    -0.341 N 
HETATM   17  C   UNL     1      44.062 -19.189   5.032  1.00  0.00     0.032 A 
HETATM   18  H   UNL     1      43.151 -16.405   5.160  1.00  0.00     0.167 HD
HETATM   19  C   UNL     1      44.326 -20.463   4.514  1.00  0.00     0.002 A 
HETATM   20  C   UNL     1      44.004 -20.792   3.196  1.00  0.00     0.002 A 
ENDBRANCH   7  11
ENDBRANCH   1   7
BRANCH   3  21
HETATM   21  C   UNL     1      39.775 -14.185  -1.272  1.00  0.00     0.162 C 
BRANCH  21  22
HETATM   22  C   UNL     1      39.785 -12.876  -2.019  1.00  0.00    -0.040 A 
HETATM   23  C   UNL     1      40.908 -12.453  -2.735  1.00  0.00     0.011 A 
HETATM   24  C   UNL     1      40.910 -11.216  -3.394  1.00  0.00     0.030 A 
HETATM   25  C   UNL     1      39.797 -10.375  -3.328  1.00  0.00     0.036 A 
HETATM   26  C   UNL     1      38.661 -10.816  -2.643  1.00  0.00     0.030 A 
HETATM   27  C   UNL     1      38.656 -12.048  -1.985  1.00  0.00     0.011 A 
BRANCH  25  28
HETATM   28  N   UNL     1      39.712  -9.114  -3.946  1.00  0.00    -0.309 N 
HETATM   29  C   UNL     1      40.412  -7.954  -3.799  1.00  0.00     0.321 C 
HETATM   30  N   UNL     1      41.195  -7.835  -2.692  1.00  0.00    -0.339 N 
HETATM   31  O   UNL     1      40.257  -7.062  -4.629  1.00  0.00    -0.247 OA
HETATM   32  H   UNL     1      40.851  -8.370  -1.908  1.00  0.00     0.164 HD
HETATM   33  H   UNL     1      39.011  -9.014  -4.670  1.00  0.00     0.170 HD
BRANCH  30  34
HETATM   34  C   UNL     1      41.924  -6.621  -2.340  1.00  0.00     0.078 C 
HETATM   35  C   UNL     1      41.214  -5.780  -1.280  1.00  0.00     0.032 C 
HETATM   36  C   UNL     1      43.367  -6.922  -1.944  1.00  0.00     0.032 C 
ENDBRANCH  30  34
ENDBRANCH  25  28
ENDBRANCH  21  22
ENDBRANCH   3  21
TORSDOF 7
ENDMDL
MODEL 9
REMARK VINA RESULT:      -7.8      6.340     10.534
REMARK  7 active torsions:
REMARK  status: ('A' for Active; 'I' for Inactive)
REMARK    1  A    between atoms: C_2  and  C_3 
REMARK    2  A    between atoms: C_3  and  N_4 
REMARK    3  A    between atoms: C_3  and  C_22 
REMARK       I    between atoms: N_4  and  C_5 
REMARK       I    between atoms: C_5  and  N_6 
REMARK    4  A    between atoms: N_6  and  C_7 
REMARK    5  A    between atoms: C_7  and  C_8 
REMARK    6  A    between atoms: C_11  and  N_12 
REMARK       I    between atoms: N_12  and  C_13 
REMARK       I    between atoms: C_13  and  N_14 
REMARK    7  A    between atoms: N_14  and  C_15 
ROOT
HETATM    1  N   UNL     1      41.991 -14.575   1.725  1.00  0.00    -0.331 N 
HETATM    2  C   UNL     1      40.803 -14.812   1.087  1.00  0.00     0.317 C 
HETATM    3  N   UNL     1      40.797 -14.275  -0.169  1.00  0.00    -0.339 N 
HETATM    4  O   UNL     1      39.864 -15.417   1.587  1.00  0.00    -0.247 OA
HETATM    5  H   UNL     1      42.510 -13.794   1.359  1.00  0.00     0.165 HD
HETATM    6  H   UNL     1      41.695 -14.179  -0.619  1.00  0.00     0.164 HD
ENDROOT
BRANCH   1   7
HETATM    7  C   UNL     1      42.179 -14.875   3.144  1.00  0.00     0.159 C 
BRANCH   7   8
HETATM    8  C   UNL     1      43.069 -13.820   3.857  1.00  0.00     0.008 C 
HETATM    9  C   UNL     1      42.454 -13.410   5.201  1.00  0.00     0.012 C 
HETATM   10  C   UNL     1      43.348 -12.563   3.021  1.00  0.00     0.012 C 
ENDBRANCH   7   8
BRANCH   7  11
HETATM   11  C   UNL     1      42.710 -16.279   3.309  1.00  0.00     0.128 A 
HETATM   12  N   UNL     1      43.271 -16.822   4.373  1.00  0.00    -0.231 NA
HETATM   13  C   UNL     1      43.517 -18.131   4.041  1.00  0.00     0.085 A 
HETATM   14  C   UNL     1      43.097 -18.403   2.745  1.00  0.00     0.062 A 
HETATM   15  C   UNL     1      44.097 -19.156   4.801  1.00  0.00     0.034 A 
HETATM   16  N   UNL     1      42.586 -17.213   2.303  1.00  0.00    -0.341 N 
HETATM   17  C   UNL     1      43.224 -19.656   2.144  1.00  0.00     0.032 A 
HETATM   18  H   UNL     1      42.197 -17.017   1.387  1.00  0.00     0.167 HD
HETATM   19  C   UNL     1      43.804 -20.668   2.918  1.00  0.00     0.002 A 
HETATM   20  C   UNL     1      44.234 -20.426   4.225  1.00  0.00     0.002 A 
ENDBRANCH   7  11
ENDBRANCH   1   7
BRANCH   3  21
HETATM   21  C   UNL     1      39.652 -14.421  -1.039  1.00  0.00     0.162 C 
BRANCH  21  22
HETATM   22  C   UNL     1      39.067 -13.068  -1.351  1.00  0.00    -0.040 A 
HETATM   23  C   UNL     1      38.645 -12.203  -0.336  1.00  0.00     0.011 A 
HETATM   24  C   UNL     1      38.071 -10.964  -0.648  1.00  0.00     0.030 A 
HETATM   25  C   UNL     1      37.889 -10.580  -1.978  1.00  0.00     0.036 A 
HETATM   26  C   UNL     1      38.345 -11.429  -2.991  1.00  0.00     0.030 A 
HETATM   27  C   UNL     1      38.918 -12.666  -2.683  1.00  0.00     0.011 A 
BRANCH  25  28
HETATM   28  N   UNL     1      37.313  -9.364  -2.387  1.00  0.00    -0.309 N 
HETATM   29  C   UNL     1      36.025  -8.936  -2.507  1.00  0.00     0.321 C 
HETATM   30  N   UNL     1      35.049  -9.885  -2.486  1.00  0.00    -0.339 N 
HETATM   31  O   UNL     1      35.814  -7.740  -2.690  1.00  0.00    -0.247 OA
HETATM   32  H   UNL     1      35.363 -10.780  -2.830  1.00  0.00     0.164 HD
HETATM   33  H   UNL     1      37.956  -8.620  -2.629  1.00  0.00     0.170 HD
BRANCH  30  34
HETATM   34  C   UNL     1      33.635  -9.600  -2.705  1.00  0.00     0.078 C 
HETATM   35  C   UNL     1      32.869 -10.782  -3.299  1.00  0.00     0.032 C 
HETATM   36  C   UNL     1      32.960  -9.073  -1.441  1.00  0.00     0.032 C 
ENDBRANCH  30  34
ENDBRANCH  25  28
ENDBRANCH  21  22
ENDBRANCH   3  21
TORSDOF 7
ENDMDL
MODEL 10
REMARK VINA RESULT:      -7.8      6.385     11.119
REMARK  7 active torsions:
REMARK  status: ('A' for Active; 'I' for Inactive)
REMARK    1  A    between atoms: C_2  and  C_3 
REMARK    2  A    between atoms: C_3  and  N_4 
REMARK    3  A    between atoms: C_3  and  C_22 
REMARK       I    between atoms: N_4  and  C_5 
REMARK       I    between atoms: C_5  and  N_6 
REMARK    4  A    between atoms: N_6  and  C_7 
REMARK    5  A    between atoms: C_7  and  C_8 
REMARK    6  A    between atoms: C_11  and  N_12 
REMARK       I    between atoms: N_12  and  C_13 
REMARK       I    between atoms: C_13  and  N_14 
REMARK    7  A    between atoms: N_14  and  C_15 
ROOT
HETATM    1  N   UNL     1      41.863 -14.633   1.692  1.00  0.00    -0.331 N 
HETATM    2  C   UNL     1      40.689 -14.959   1.068  1.00  0.00     0.317 C 
HETATM    3  N   UNL     1      40.628 -14.428  -0.188  1.00  0.00    -0.339 N 
HETATM    4  O   UNL     1      39.803 -15.632   1.580  1.00  0.00    -0.247 OA
HETATM    5  H   UNL     1      42.318 -13.816   1.318  1.00  0.00     0.165 HD
HETATM    6  H   UNL     1      41.511 -14.266  -0.649  1.00  0.00     0.164 HD
ENDROOT
BRANCH   1   7
HETATM    7  C   UNL     1      42.090 -14.914   3.108  1.00  0.00     0.159 C 
BRANCH   7   8
HETATM    8  C   UNL     1      42.980 -13.838   3.788  1.00  0.00     0.008 C 
HETATM    9  C   UNL     1      42.403 -13.440   5.153  1.00  0.00     0.012 C 
HETATM   10  C   UNL     1      43.200 -12.576   2.942  1.00  0.00     0.012 C 
ENDBRANCH   7   8
BRANCH   7  11
HETATM   11  C   UNL     1      42.647 -16.308   3.275  1.00  0.00     0.128 A 
HETATM   12  N   UNL     1      43.209 -16.842   4.343  1.00  0.00    -0.231 NA
HETATM   13  C   UNL     1      43.483 -18.146   4.011  1.00  0.00     0.085 A 
HETATM   14  C   UNL     1      43.078 -18.423   2.711  1.00  0.00     0.062 A 
HETATM   15  C   UNL     1      44.076 -19.160   4.774  1.00  0.00     0.034 A 
HETATM   16  N   UNL     1      42.548 -17.242   2.267  1.00  0.00    -0.341 N 
HETATM   17  C   UNL     1      43.234 -19.672   2.109  1.00  0.00     0.032 A 
HETATM   18  H   UNL     1      42.162 -17.052   1.348  1.00  0.00     0.167 HD
HETATM   19  C   UNL     1      43.827 -20.674   2.887  1.00  0.00     0.002 A 
HETATM   20  C   UNL     1      44.242 -20.427   4.197  1.00  0.00     0.002 A 
ENDBRANCH   7  11
ENDBRANCH   1   7
BRANCH   3  21
HETATM   21  C   UNL     1      39.487 -14.661  -1.045  1.00  0.00     0.162 C 
BRANCH  21  22
HETATM   22  C   UNL     1      38.852 -13.349  -1.425  1.00  0.00    -0.040 A 
HETATM   23  C   UNL     1      37.743 -13.294  -2.275  1.00  0.00     0.011 A 
HETATM   24  C   UNL     1      37.188 -12.061  -2.645  1.00  0.00     0.030 A 
HETATM   25  C   UNL     1      37.747 -10.866  -2.189  1.00  0.00     0.036 A 
HETATM   26  C   UNL     1      38.832 -10.923  -1.309  1.00  0.00     0.030 A 
HETATM   27  C   UNL     1      39.387 -12.151  -0.938  1.00  0.00     0.011 A 
BRANCH  25  28
HETATM   28  N   UNL     1      37.268  -9.584  -2.515  1.00  0.00    -0.309 N 
HETATM   29  C   UNL     1      37.390  -8.797  -3.621  1.00  0.00     0.321 C 
HETATM   30  N   UNL     1      38.348  -9.137  -4.525  1.00  0.00    -0.339 N 
HETATM   31  O   UNL     1      36.683  -7.796  -3.715  1.00  0.00    -0.247 OA
HETATM   32  H   UNL     1      39.130  -9.619  -4.108  1.00  0.00     0.164 HD
HETATM   33  H   UNL     1      36.690  -9.129  -1.820  1.00  0.00     0.170 HD
BRANCH  30  34
HETATM   34  C   UNL     1      38.672  -8.341  -5.705  1.00  0.00     0.078 C 
HETATM   35  C   UNL     1      40.164  -8.335  -6.035  1.00  0.00     0.032 C 
HETATM   36  C   UNL     1      37.831  -8.748  -6.912  1.00  0.00     0.032 C 
ENDBRANCH  30  34
ENDBRANCH  25  28
ENDBRANCH  21  22
ENDBRANCH   3  21
TORSDOF 7
ENDMDL
