MODEL 1
REMARK VINA RESULT:      -8.5      0.000      0.000
REMARK  6 active torsions:
REMARK  status: ('A' for Active; 'I' for Inactive)
REMARK    1  A    between atoms: C_2  and  O_3 
REMARK    2  A    between atoms: C_2  and  C_4 
REMARK    3  A    between atoms: C_2  and  C_11 
REMARK    4  A    between atoms: C_11  and  N_12 
REMARK       I    between atoms: N_12  and  C_13 
REMARK    5  A    between atoms: C_13  and  C_14 
REMARK    6  A    between atoms: C_15  and  C_16 
ROOT
HETATM    1  N   UNL     1      43.303 -14.099   5.559  1.00  0.00    -0.354 N 
HETATM    2  C   UNL     1      43.599 -12.758   5.440  1.00  0.00     0.255 C 
HETATM    3  O   UNL     1      44.324 -12.170   6.235  1.00  0.00    -0.268 OA
HETATM    4  H   UNL     1      42.906 -14.577   4.761  1.00  0.00     0.162 HD
ENDROOT
BRANCH   2   5
HETATM    5  C   UNL     1      42.984 -12.105   4.295  1.00  0.00     0.080 A 
HETATM    6  C   UNL     1      42.488 -12.694   3.087  1.00  0.00     0.107 A 
HETATM    7  N   UNL     1      42.070 -11.749   2.225  1.00  0.00    -0.173 NA
HETATM    8  N   UNL     1      42.253 -10.595   2.875  1.00  0.00    -0.288 N 
HETATM    9  H   UNL     1      41.994  -9.735   2.402  1.00  0.00     0.188 HD
HETATM   10  C   UNL     1      42.793 -10.746   4.113  1.00  0.00     0.128 A 
BRANCH   6  11
HETATM   11  C   UNL     1      42.394 -14.103   2.723  1.00  0.00     0.034 A 
HETATM   12  C   UNL     1      41.285 -14.873   3.088  1.00  0.00     0.129 A 
HETATM   13  F   UNL     1      40.264 -14.326   3.766  1.00  0.00    -0.205 F 
HETATM   14  C   UNL     1      41.194 -16.217   2.730  1.00  0.00     0.043 A 
HETATM   15  C   UNL     1      42.214 -16.808   1.986  1.00  0.00     0.003 A 
HETATM   16  C   UNL     1      43.319 -16.051   1.599  1.00  0.00     0.001 A 
HETATM   17  C   UNL     1      43.407 -14.704   1.962  1.00  0.00     0.017 A 
ENDBRANCH   6  11
ENDBRANCH   2   5
BRANCH   1  18
HETATM   18  C   UNL     1      43.929 -14.947   6.564  1.00  0.00     0.165 C 
BRANCH  18  19
HETATM   19  C   UNL     1      43.017 -16.115   7.032  1.00  0.00     0.097 C 
HETATM   20  C   UNL     1      41.525 -15.805   6.831  1.00  0.00     0.053 C 
BRANCH  19  21
HETATM   21  O   UNL     1      43.224 -16.273   8.451  1.00  0.00    -0.384 OA
HETATM   22  H   UNL     1      42.430 -15.916   8.887  1.00  0.00     0.211 HD
ENDBRANCH  19  21
BRANCH  19  23
HETATM   23  C   UNL     1      43.421 -17.402   6.305  1.00  0.00    -0.023 A 
HETATM   24  C   UNL     1      44.079 -17.346   5.060  1.00  0.00     0.013 A 
HETATM   25  C   UNL     1      44.455 -18.514   4.393  1.00  0.00     0.043 A 
HETATM   26  C   UNL     1      44.184 -19.750   4.964  1.00  0.00     0.116 A 
HETATM   27  F   UNL     1      44.543 -20.869   4.323  1.00  0.00    -0.206 F 
HETATM   28  C   UNL     1      43.548 -19.838   6.195  1.00  0.00     0.043 A 
HETATM   29  C   UNL     1      43.175 -18.671   6.866  1.00  0.00     0.013 A 
ENDBRANCH  19  23
ENDBRANCH  18  19
ENDBRANCH   1  18
TORSDOF 6
ENDMDL
MODEL 2
REMARK VINA RESULT:      -8.4      1.174      1.606
REMARK  6 active torsions:
REMARK  status: ('A' for Active; 'I' for Inactive)
REMARK    1  A    between atoms: C_2  and  O_3 
REMARK    2  A    between atoms: C_2  and  C_4 
REMARK    3  A    between atoms: C_2  and  C_11 
REMARK    4  A    between atoms: C_11  and  N_12 
REMARK       I    between atoms: N_12  and  C_13 
REMARK    5  A    between atoms: C_13  and  C_14 
REMARK    6  A    between atoms: C_15  and  C_16 
ROOT
HETATM    1  N   UNL     1      43.963 -15.060   5.705  1.00  0.00    -0.354 N 
HETATM    2  C   UNL     1      43.614 -13.862   6.292  1.00  0.00     0.255 C 
HETATM    3  O   UNL     1      43.572 -13.711   7.507  1.00  0.00    -0.268 OA
HETATM    4  H   UNL     1      44.209 -15.061   4.724  1.00  0.00     0.162 HD
ENDROOT
BRANCH   2   5
HETATM    5  C   UNL     1      43.305 -12.797   5.349  1.00  0.00     0.080 A 
HETATM    6  C   UNL     1      42.743 -12.898   4.036  1.00  0.00     0.107 A 
HETATM    7  N   UNL     1      42.688 -11.693   3.439  1.00  0.00    -0.173 NA
HETATM    8  N   UNL     1      43.160 -10.842   4.355  1.00  0.00    -0.288 N 
HETATM    9  H   UNL     1      43.204  -9.857   4.114  1.00  0.00     0.188 HD
HETATM   10  C   UNL     1      43.542 -11.443   5.513  1.00  0.00     0.128 A 
BRANCH   6  11
HETATM   11  C   UNL     1      42.258 -14.080   3.332  1.00  0.00     0.034 A 
HETATM   12  C   UNL     1      41.041 -14.679   3.673  1.00  0.00     0.129 A 
HETATM   13  F   UNL     1      40.273 -14.164   4.646  1.00  0.00    -0.205 F 
HETATM   14  C   UNL     1      40.576 -15.802   2.992  1.00  0.00     0.043 A 
HETATM   15  C   UNL     1      41.324 -16.338   1.945  1.00  0.00     0.003 A 
HETATM   16  C   UNL     1      42.532 -15.744   1.580  1.00  0.00     0.001 A 
HETATM   17  C   UNL     1      42.995 -14.618   2.267  1.00  0.00     0.017 A 
ENDBRANCH   6  11
ENDBRANCH   2   5
BRANCH   1  18
HETATM   18  C   UNL     1      44.429 -16.199   6.482  1.00  0.00     0.165 C 
BRANCH  18  19
HETATM   19  C   UNL     1      43.364 -17.322   6.621  1.00  0.00     0.097 C 
HETATM   20  C   UNL     1      41.930 -16.773   6.566  1.00  0.00     0.053 C 
BRANCH  19  21
HETATM   21  O   UNL     1      43.537 -17.910   7.928  1.00  0.00    -0.384 OA
HETATM   22  H   UNL     1      44.069 -18.715   7.800  1.00  0.00     0.211 HD
ENDBRANCH  19  21
BRANCH  19  23
HETATM   23  C   UNL     1      43.596 -18.384   5.542  1.00  0.00    -0.023 A 
HETATM   24  C   UNL     1      43.754 -19.739   5.894  1.00  0.00     0.013 A 
HETATM   25  C   UNL     1      43.961 -20.717   4.917  1.00  0.00     0.043 A 
HETATM   26  C   UNL     1      44.006 -20.350   3.578  1.00  0.00     0.116 A 
HETATM   27  F   UNL     1      44.206 -21.286   2.642  1.00  0.00    -0.206 F 
HETATM   28  C   UNL     1      43.841 -19.026   3.199  1.00  0.00     0.043 A 
HETATM   29  C   UNL     1      43.630 -18.048   4.174  1.00  0.00     0.013 A 
ENDBRANCH  19  23
ENDBRANCH  18  19
ENDBRANCH   1  18
TORSDOF 6
ENDMDL
MODEL 3
REMARK VINA RESULT:      -8.4      3.397      6.792
REMARK  6 active torsions:
REMARK  status: ('A' for Active; 'I' for Inactive)
REMARK    1  A    between atoms: C_2  and  O_3 
REMARK    2  A    between atoms: C_2  and  C_4 
REMARK    3  A    between atoms: C_2  and  C_11 
REMARK    4  A    between atoms: C_11  and  N_12 
REMARK       I    between atoms: N_12  and  C_13 
REMARK    5  A    between atoms: C_13  and  C_14 
REMARK    6  A    between atoms: C_15  and  C_16 
ROOT
HETATM    1  N   UNL     1      41.665 -15.323   3.336  1.00  0.00    -0.354 N 
HETATM    2  C   UNL     1      41.620 -15.984   4.545  1.00  0.00     0.255 C 
HETATM    3  O   UNL     1      40.592 -16.489   4.982  1.00  0.00    -0.268 OA
HETATM    4  H   UNL     1      42.569 -15.140   2.921  1.00  0.00     0.162 HD
ENDROOT
BRANCH   2   5
HETATM    5  C   UNL     1      42.890 -16.032   5.252  1.00  0.00     0.080 A 
HETATM    6  C   UNL     1      43.842 -17.100   5.312  1.00  0.00     0.107 A 
HETATM    7  N   UNL     1      44.856 -16.798   6.143  1.00  0.00    -0.173 NA
HETATM    8  N   UNL     1      44.585 -15.561   6.570  1.00  0.00    -0.288 N 
HETATM    9  H   UNL     1      45.236 -15.125   7.215  1.00  0.00     0.188 HD
HETATM   10  C   UNL     1      43.427 -15.053   6.071  1.00  0.00     0.128 A 
BRANCH   6  11
HETATM   11  C   UNL     1      43.830 -18.382   4.616  1.00  0.00     0.034 A 
HETATM   12  C   UNL     1      43.815 -18.449   3.220  1.00  0.00     0.129 A 
HETATM   13  F   UNL     1      43.836 -17.330   2.479  1.00  0.00    -0.205 F 
HETATM   14  C   UNL     1      43.814 -19.676   2.559  1.00  0.00     0.043 A 
HETATM   15  C   UNL     1      43.839 -20.861   3.293  1.00  0.00     0.003 A 
HETATM   16  C   UNL     1      43.871 -20.813   4.687  1.00  0.00     0.001 A 
HETATM   17  C   UNL     1      43.870 -19.580   5.346  1.00  0.00     0.017 A 
ENDBRANCH   6  11
ENDBRANCH   2   5
BRANCH   1  18
HETATM   18  C   UNL     1      40.527 -15.285   2.428  1.00  0.00     0.165 C 
BRANCH  18  19
HETATM   19  C   UNL     1      40.020 -13.844   2.144  1.00  0.00     0.097 C 
HETATM   20  C   UNL     1      40.735 -12.795   3.010  1.00  0.00     0.053 C 
BRANCH  19  21
HETATM   21  O   UNL     1      38.624 -13.806   2.510  1.00  0.00    -0.384 OA
HETATM   22  H   UNL     1      38.462 -14.592   3.062  1.00  0.00     0.211 HD
ENDBRANCH  19  21
BRANCH  19  23
HETATM   23  C   UNL     1      40.172 -13.531   0.653  1.00  0.00    -0.023 A 
HETATM   24  C   UNL     1      39.766 -14.467  -0.320  1.00  0.00     0.013 A 
HETATM   25  C   UNL     1      39.896 -14.189  -1.683  1.00  0.00     0.043 A 
HETATM   26  C   UNL     1      40.426 -12.972  -2.089  1.00  0.00     0.116 A 
HETATM   27  F   UNL     1      40.552 -12.707  -3.395  1.00  0.00    -0.206 F 
HETATM   28  C   UNL     1      40.823 -12.025  -1.155  1.00  0.00     0.043 A 
HETATM   29  C   UNL     1      40.691 -12.299   0.208  1.00  0.00     0.013 A 
ENDBRANCH  19  23
ENDBRANCH  18  19
ENDBRANCH   1  18
TORSDOF 6
ENDMDL
MODEL 4
REMARK VINA RESULT:      -8.2      2.250      4.500
REMARK  6 active torsions:
REMARK  status: ('A' for Active; 'I' for Inactive)
REMARK    1  A    between atoms: C_2  and  O_3 
REMARK    2  A    between atoms: C_2  and  C_4 
REMARK    3  A    between atoms: C_2  and  C_11 
REMARK    4  A    between atoms: C_11  and  N_12 
REMARK       I    between atoms: N_12  and  C_13 
REMARK    5  A    between atoms: C_13  and  C_14 
REMARK    6  A    between atoms: C_15  and  C_16 
ROOT
HETATM    1  N   UNL     1      41.952 -12.301   4.036  1.00  0.00    -0.354 N 
HETATM    2  C   UNL     1      43.273 -12.005   4.296  1.00  0.00     0.255 C 
HETATM    3  O   UNL     1      44.086 -11.783   3.405  1.00  0.00    -0.268 OA
HETATM    4  H   UNL     1      41.288 -12.240   4.796  1.00  0.00     0.162 HD
ENDROOT
BRANCH   2   5
HETATM    5  C   UNL     1      43.618 -11.975   5.709  1.00  0.00     0.080 A 
HETATM    6  C   UNL     1      43.571 -13.039   6.665  1.00  0.00     0.107 A 
HETATM    7  N   UNL     1      43.884 -12.596   7.897  1.00  0.00    -0.173 NA
HETATM    8  N   UNL     1      44.163 -11.300   7.729  1.00  0.00    -0.288 N 
HETATM    9  H   UNL     1      44.434 -10.761   8.544  1.00  0.00     0.188 HD
HETATM   10  C   UNL     1      44.022 -10.874   6.445  1.00  0.00     0.128 A 
BRANCH   6  11
HETATM   11  C   UNL     1      43.247 -14.446   6.459  1.00  0.00     0.034 A 
HETATM   12  C   UNL     1      41.923 -14.895   6.469  1.00  0.00     0.129 A 
HETATM   13  F   UNL     1      40.909 -14.033   6.647  1.00  0.00    -0.205 F 
HETATM   14  C   UNL     1      41.617 -16.239   6.262  1.00  0.00     0.043 A 
HETATM   15  C   UNL     1      42.641 -17.156   6.029  1.00  0.00     0.003 A 
HETATM   16  C   UNL     1      43.967 -16.723   5.998  1.00  0.00     0.001 A 
HETATM   17  C   UNL     1      44.269 -15.375   6.209  1.00  0.00     0.017 A 
ENDBRANCH   6  11
ENDBRANCH   2   5
BRANCH   1  18
HETATM   18  C   UNL     1      41.393 -12.250   2.693  1.00  0.00     0.165 C 
BRANCH  18  19
HETATM   19  C   UNL     1      40.536 -13.497   2.340  1.00  0.00     0.097 C 
HETATM   20  C   UNL     1      39.750 -13.311   1.032  1.00  0.00     0.053 C 
BRANCH  19  21
HETATM   21  O   UNL     1      39.563 -13.655   3.394  1.00  0.00    -0.384 OA
HETATM   22  H   UNL     1      39.939 -13.226   4.182  1.00  0.00     0.211 HD
ENDBRANCH  19  21
BRANCH  19  23
HETATM   23  C   UNL     1      41.435 -14.735   2.277  1.00  0.00    -0.023 A 
HETATM   24  C   UNL     1      40.956 -15.991   2.701  1.00  0.00     0.013 A 
HETATM   25  C   UNL     1      41.767 -17.127   2.643  1.00  0.00     0.043 A 
HETATM   26  C   UNL     1      43.063 -17.022   2.156  1.00  0.00     0.116 A 
HETATM   27  F   UNL     1      43.840 -18.111   2.102  1.00  0.00    -0.206 F 
HETATM   28  C   UNL     1      43.560 -15.803   1.718  1.00  0.00     0.043 A 
HETATM   29  C   UNL     1      42.749 -14.666   1.771  1.00  0.00     0.013 A 
ENDBRANCH  19  23
ENDBRANCH  18  19
ENDBRANCH   1  18
TORSDOF 6
ENDMDL
MODEL 5
REMARK VINA RESULT:      -8.1      4.192      7.110
REMARK  6 active torsions:
REMARK  status: ('A' for Active; 'I' for Inactive)
REMARK    1  A    between atoms: C_2  and  O_3 
REMARK    2  A    between atoms: C_2  and  C_4 
REMARK    3  A    between atoms: C_2  and  C_11 
REMARK    4  A    between atoms: C_11  and  N_12 
REMARK       I    between atoms: N_12  and  C_13 
REMARK    5  A    between atoms: C_13  and  C_14 
REMARK    6  A    between atoms: C_15  and  C_16 
ROOT
HETATM    1  N   UNL     1      40.731 -13.743   2.123  1.00  0.00    -0.354 N 
HETATM    2  C   UNL     1      41.595 -13.700   3.196  1.00  0.00     0.255 C 
HETATM    3  O   UNL     1      42.667 -13.106   3.155  1.00  0.00    -0.268 OA
HETATM    4  H   UNL     1      39.777 -14.036   2.286  1.00  0.00     0.162 HD
ENDROOT
BRANCH   2   5
HETATM    5  C   UNL     1      41.128 -14.413   4.375  1.00  0.00     0.080 A 
HETATM    6  C   UNL     1      41.402 -15.760   4.774  1.00  0.00     0.107 A 
HETATM    7  N   UNL     1      40.715 -16.085   5.885  1.00  0.00    -0.173 NA
HETATM    8  N   UNL     1      40.055 -14.969   6.211  1.00  0.00    -0.288 N 
HETATM    9  H   UNL     1      39.467 -14.988   7.037  1.00  0.00     0.188 HD
HETATM   10  C   UNL     1      40.264 -13.940   5.348  1.00  0.00     0.128 A 
BRANCH   6  11
HETATM   11  C   UNL     1      42.283 -16.742   4.152  1.00  0.00     0.034 A 
HETATM   12  C   UNL     1      42.032 -17.231   2.866  1.00  0.00     0.129 A 
HETATM   13  F   UNL     1      40.980 -16.788   2.158  1.00  0.00    -0.205 F 
HETATM   14  C   UNL     1      42.881 -18.161   2.271  1.00  0.00     0.043 A 
HETATM   15  C   UNL     1      44.009 -18.610   2.956  1.00  0.00     0.003 A 
HETATM   16  C   UNL     1      44.285 -18.121   4.233  1.00  0.00     0.001 A 
HETATM   17  C   UNL     1      43.429 -17.189   4.827  1.00  0.00     0.017 A 
ENDBRANCH   6  11
ENDBRANCH   2   5
BRANCH   1  18
HETATM   18  C   UNL     1      40.966 -12.983   0.904  1.00  0.00     0.165 C 
BRANCH  18  19
HETATM   19  C   UNL     1      39.690 -12.276   0.369  1.00  0.00     0.097 C 
HETATM   20  C   UNL     1      39.912 -10.774   0.133  1.00  0.00     0.053 C 
BRANCH  19  21
HETATM   21  O   UNL     1      38.679 -12.394   1.392  1.00  0.00    -0.384 OA
HETATM   22  H   UNL     1      38.047 -11.670   1.240  1.00  0.00     0.211 HD
ENDBRANCH  19  21
BRANCH  19  23
HETATM   23  C   UNL     1      39.215 -12.975  -0.909  1.00  0.00    -0.023 A 
HETATM   24  C   UNL     1      40.027 -13.935  -1.544  1.00  0.00     0.013 A 
HETATM   25  C   UNL     1      39.600 -14.582  -2.707  1.00  0.00     0.043 A 
HETATM   26  C   UNL     1      38.356 -14.280  -3.243  1.00  0.00     0.116 A 
HETATM   27  F   UNL     1      37.948 -14.899  -4.359  1.00  0.00    -0.206 F 
HETATM   28  C   UNL     1      37.527 -13.349  -2.634  1.00  0.00     0.043 A 
HETATM   29  C   UNL     1      37.951 -12.704  -1.469  1.00  0.00     0.013 A 
ENDBRANCH  19  23
ENDBRANCH  18  19
ENDBRANCH   1  18
TORSDOF 6
ENDMDL
MODEL 6
REMARK VINA RESULT:      -8.1      1.773      2.418
REMARK  6 active torsions:
REMARK  status: ('A' for Active; 'I' for Inactive)
REMARK    1  A    between atoms: C_2  and  O_3 
REMARK    2  A    between atoms: C_2  and  C_4 
REMARK    3  A    between atoms: C_2  and  C_11 
REMARK    4  A    between atoms: C_11  and  N_12 
REMARK       I    between atoms: N_12  and  C_13 
REMARK    5  A    between atoms: C_13  and  C_14 
REMARK    6  A    between atoms: C_15  and  C_16 
ROOT
HETATM    1  N   UNL     1      41.686 -15.228   6.055  1.00  0.00    -0.354 N 
HETATM    2  C   UNL     1      40.438 -14.644   6.109  1.00  0.00     0.255 C 
HETATM    3  O   UNL     1      39.563 -15.028   6.876  1.00  0.00    -0.268 OA
HETATM    4  H   UNL     1      42.430 -14.729   5.587  1.00  0.00     0.162 HD
ENDROOT
BRANCH   2   5
HETATM    5  C   UNL     1      40.251 -13.536   5.184  1.00  0.00     0.080 A 
HETATM    6  C   UNL     1      40.761 -13.384   3.854  1.00  0.00     0.107 A 
HETATM    7  N   UNL     1      40.442 -12.177   3.350  1.00  0.00    -0.173 NA
HETATM    8  N   UNL     1      39.716 -11.592   4.308  1.00  0.00    -0.288 N 
HETATM    9  H   UNL     1      39.361 -10.658   4.134  1.00  0.00     0.188 HD
HETATM   10  C   UNL     1      39.569 -12.356   5.423  1.00  0.00     0.128 A 
BRANCH   6  11
HETATM   11  C   UNL     1      41.528 -14.328   3.050  1.00  0.00     0.034 A 
HETATM   12  C   UNL     1      40.968 -15.534   2.617  1.00  0.00     0.129 A 
HETATM   13  F   UNL     1      39.696 -15.844   2.912  1.00  0.00    -0.205 F 
HETATM   14  C   UNL     1      41.701 -16.429   1.840  1.00  0.00     0.043 A 
HETATM   15  C   UNL     1      43.011 -16.121   1.474  1.00  0.00     0.003 A 
HETATM   16  C   UNL     1      43.579 -14.915   1.883  1.00  0.00     0.001 A 
HETATM   17  C   UNL     1      42.841 -14.021   2.664  1.00  0.00     0.017 A 
ENDBRANCH   6  11
ENDBRANCH   2   5
BRANCH   1  18
HETATM   18  C   UNL     1      42.101 -16.262   6.992  1.00  0.00     0.165 C 
BRANCH  18  19
HETATM   19  C   UNL     1      43.605 -16.631   6.868  1.00  0.00     0.097 C 
HETATM   20  C   UNL     1      44.260 -16.875   8.236  1.00  0.00     0.053 C 
BRANCH  19  21
HETATM   21  O   UNL     1      44.274 -15.495   6.280  1.00  0.00    -0.384 OA
HETATM   22  H   UNL     1      44.039 -15.495   5.336  1.00  0.00     0.211 HD
ENDBRANCH  19  21
BRANCH  19  23
HETATM   23  C   UNL     1      43.759 -17.850   5.953  1.00  0.00    -0.023 A 
HETATM   24  C   UNL     1      43.558 -19.152   6.454  1.00  0.00     0.013 A 
HETATM   25  C   UNL     1      43.691 -20.270   5.626  1.00  0.00     0.043 A 
HETATM   26  C   UNL     1      44.020 -20.098   4.288  1.00  0.00     0.116 A 
HETATM   27  F   UNL     1      44.149 -21.169   3.495  1.00  0.00    -0.206 F 
HETATM   28  C   UNL     1      44.211 -18.829   3.761  1.00  0.00     0.043 A 
HETATM   29  C   UNL     1      44.075 -17.710   4.587  1.00  0.00     0.013 A 
ENDBRANCH  19  23
ENDBRANCH  18  19
ENDBRANCH   1  18
TORSDOF 6
ENDMDL
MODEL 7
REMARK VINA RESULT:      -8.0      2.539      4.461
REMARK  6 active torsions:
REMARK  status: ('A' for Active; 'I' for Inactive)
REMARK    1  A    between atoms: C_2  and  O_3 
REMARK    2  A    between atoms: C_2  and  C_4 
REMARK    3  A    between atoms: C_2  and  C_11 
REMARK    4  A    between atoms: C_11  and  N_12 
REMARK       I    between atoms: N_12  and  C_13 
REMARK    5  A    between atoms: C_13  and  C_14 
REMARK    6  A    between atoms: C_15  and  C_16 
ROOT
HETATM    1  N   UNL     1      42.838 -14.043   3.646  1.00  0.00    -0.354 N 
HETATM    2  C   UNL     1      41.702 -13.448   4.150  1.00  0.00     0.255 C 
HETATM    3  O   UNL     1      40.834 -14.080   4.742  1.00  0.00    -0.268 OA
HETATM    4  H   UNL     1      43.616 -13.451   3.385  1.00  0.00     0.162 HD
ENDROOT
BRANCH   2   5
HETATM    5  C   UNL     1      41.622 -12.013   3.922  1.00  0.00     0.080 A 
HETATM    6  C   UNL     1      42.306 -10.958   4.607  1.00  0.00     0.107 A 
HETATM    7  N   UNL     1      41.902  -9.753   4.165  1.00  0.00    -0.173 NA
HETATM    8  N   UNL     1      41.018 -10.026   3.200  1.00  0.00    -0.288 N 
HETATM    9  H   UNL     1      40.583  -9.247   2.717  1.00  0.00     0.188 HD
HETATM   10  C   UNL     1      40.812 -11.357   3.010  1.00  0.00     0.128 A 
BRANCH   6  11
HETATM   11  C   UNL     1      43.321 -11.046   5.651  1.00  0.00     0.034 A 
HETATM   12  C   UNL     1      44.652 -11.346   5.346  1.00  0.00     0.129 A 
HETATM   13  F   UNL     1      45.036 -11.538   4.074  1.00  0.00    -0.205 F 
HETATM   14  C   UNL     1      45.620 -11.420   6.345  1.00  0.00     0.043 A 
HETATM   15  C   UNL     1      45.267 -11.181   7.673  1.00  0.00     0.003 A 
HETATM   16  C   UNL     1      43.948 -10.864   7.994  1.00  0.00     0.001 A 
HETATM   17  C   UNL     1      42.979 -10.793   6.988  1.00  0.00     0.017 A 
ENDBRANCH   6  11
ENDBRANCH   2   5
BRANCH   1  18
HETATM   18  C   UNL     1      43.156 -15.443   3.888  1.00  0.00     0.165 C 
BRANCH  18  19
HETATM   19  C   UNL     1      42.715 -16.380   2.730  1.00  0.00     0.097 C 
HETATM   20  C   UNL     1      43.248 -15.910   1.367  1.00  0.00     0.053 C 
BRANCH  19  21
HETATM   21  O   UNL     1      41.275 -16.318   2.659  1.00  0.00    -0.384 OA
HETATM   22  H   UNL     1      40.977 -17.185   2.333  1.00  0.00     0.211 HD
ENDBRANCH  19  21
BRANCH  19  23
HETATM   23  C   UNL     1      43.156 -17.815   3.035  1.00  0.00    -0.023 A 
HETATM   24  C   UNL     1      43.729 -18.138   4.280  1.00  0.00     0.013 A 
HETATM   25  C   UNL     1      44.129 -19.445   4.570  1.00  0.00     0.043 A 
HETATM   26  C   UNL     1      43.955 -20.443   3.620  1.00  0.00     0.116 A 
HETATM   27  F   UNL     1      44.341 -21.695   3.897  1.00  0.00    -0.206 F 
HETATM   28  C   UNL     1      43.382 -20.159   2.389  1.00  0.00     0.043 A 
HETATM   29  C   UNL     1      42.978 -18.853   2.099  1.00  0.00     0.013 A 
ENDBRANCH  19  23
ENDBRANCH  18  19
ENDBRANCH   1  18
TORSDOF 6
ENDMDL
MODEL 8
REMARK VINA RESULT:      -8.0      3.536      4.136
REMARK  6 active torsions:
REMARK  status: ('A' for Active; 'I' for Inactive)
REMARK    1  A    between atoms: C_2  and  O_3 
REMARK    2  A    between atoms: C_2  and  C_4 
REMARK    3  A    between atoms: C_2  and  C_11 
REMARK    4  A    between atoms: C_11  and  N_12 
REMARK       I    between atoms: N_12  and  C_13 
REMARK    5  A    between atoms: C_13  and  C_14 
REMARK    6  A    between atoms: C_15  and  C_16 
ROOT
HETATM    1  N   UNL     1      42.053 -14.239   3.150  1.00  0.00    -0.354 N 
HETATM    2  C   UNL     1      41.314 -14.385   1.995  1.00  0.00     0.255 C 
HETATM    3  O   UNL     1      41.634 -15.160   1.102  1.00  0.00    -0.268 OA
HETATM    4  H   UNL     1      41.625 -13.774   3.940  1.00  0.00     0.162 HD
ENDROOT
BRANCH   2   5
HETATM    5  C   UNL     1      40.127 -13.546   1.930  1.00  0.00     0.080 A 
HETATM    6  C   UNL     1      39.641 -12.767   0.832  1.00  0.00     0.107 A 
HETATM    7  N   UNL     1      38.555 -12.055   1.187  1.00  0.00    -0.173 NA
HETATM    8  N   UNL     1      38.329 -12.399   2.459  1.00  0.00    -0.288 N 
HETATM    9  H   UNL     1      37.538 -11.976   2.934  1.00  0.00     0.188 HD
HETATM   10  C   UNL     1      39.233 -13.285   2.954  1.00  0.00     0.128 A 
BRANCH   6  11
HETATM   11  C   UNL     1      40.157 -12.673  -0.529  1.00  0.00     0.034 A 
HETATM   12  C   UNL     1      39.908 -13.676  -1.470  1.00  0.00     0.129 A 
HETATM   13  F   UNL     1      39.162 -14.746  -1.150  1.00  0.00    -0.205 F 
HETATM   14  C   UNL     1      40.394 -13.579  -2.772  1.00  0.00     0.043 A 
HETATM   15  C   UNL     1      41.133 -12.461  -3.155  1.00  0.00     0.003 A 
HETATM   16  C   UNL     1      41.377 -11.442  -2.235  1.00  0.00     0.001 A 
HETATM   17  C   UNL     1      40.889 -11.545  -0.929  1.00  0.00     0.017 A 
ENDBRANCH   6  11
ENDBRANCH   2   5
BRANCH   1  18
HETATM   18  C   UNL     1      43.199 -15.085   3.452  1.00  0.00     0.165 C 
BRANCH  18  19
HETATM   19  C   UNL     1      42.903 -16.145   4.549  1.00  0.00     0.097 C 
HETATM   20  C   UNL     1      41.449 -16.082   5.042  1.00  0.00     0.053 C 
BRANCH  19  21
HETATM   21  O   UNL     1      43.743 -15.830   5.680  1.00  0.00    -0.384 OA
HETATM   22  H   UNL     1      44.025 -16.681   6.059  1.00  0.00     0.211 HD
ENDBRANCH  19  21
BRANCH  19  23
HETATM   23  C   UNL     1      43.252 -17.540   4.020  1.00  0.00    -0.023 A 
HETATM   24  C   UNL     1      43.879 -18.486   4.855  1.00  0.00     0.013 A 
HETATM   25  C   UNL     1      44.196 -19.763   4.384  1.00  0.00     0.043 A 
HETATM   26  C   UNL     1      43.886 -20.109   3.076  1.00  0.00     0.116 A 
HETATM   27  F   UNL     1      44.192 -21.331   2.624  1.00  0.00    -0.206 F 
HETATM   28  C   UNL     1      43.257 -19.204   2.233  1.00  0.00     0.043 A 
HETATM   29  C   UNL     1      42.935 -17.928   2.704  1.00  0.00     0.013 A 
ENDBRANCH  19  23
ENDBRANCH  18  19
ENDBRANCH   1  18
TORSDOF 6
ENDMDL
MODEL 9
REMARK VINA RESULT:      -8.0      3.512      6.980
REMARK  6 active torsions:
REMARK  status: ('A' for Active; 'I' for Inactive)
REMARK    1  A    between atoms: C_2  and  O_3 
REMARK    2  A    between atoms: C_2  and  C_4 
REMARK    3  A    between atoms: C_2  and  C_11 
REMARK    4  A    between atoms: C_11  and  N_12 
REMARK       I    between atoms: N_12  and  C_13 
REMARK    5  A    between atoms: C_13  and  C_14 
REMARK    6  A    between atoms: C_15  and  C_16 
ROOT
HETATM    1  N   UNL     1      41.517 -14.549   3.510  1.00  0.00    -0.354 N 
HETATM    2  C   UNL     1      41.505 -15.592   4.411  1.00  0.00     0.255 C 
HETATM    3  O   UNL     1      40.517 -16.293   4.595  1.00  0.00    -0.268 OA
HETATM    4  H   UNL     1      42.410 -14.166   3.230  1.00  0.00     0.162 HD
ENDROOT
BRANCH   2   5
HETATM    5  C   UNL     1      42.761 -15.791   5.119  1.00  0.00     0.080 A 
HETATM    6  C   UNL     1      43.677 -16.887   5.028  1.00  0.00     0.107 A 
HETATM    7  N   UNL     1      44.685 -16.750   5.908  1.00  0.00    -0.173 NA
HETATM    8  N   UNL     1      44.446 -15.583   6.515  1.00  0.00    -0.288 N 
HETATM    9  H   UNL     1      45.099 -15.273   7.227  1.00  0.00     0.188 HD
HETATM   10  C   UNL     1      43.313 -14.966   6.085  1.00  0.00     0.128 A 
BRANCH   6  11
HETATM   11  C   UNL     1      43.636 -18.048   4.145  1.00  0.00     0.034 A 
HETATM   12  C   UNL     1      43.840 -19.340   4.637  1.00  0.00     0.129 A 
HETATM   13  F   UNL     1      44.056 -19.550   5.945  1.00  0.00    -0.205 F 
HETATM   14  C   UNL     1      43.791 -20.448   3.792  1.00  0.00     0.043 A 
HETATM   15  C   UNL     1      43.523 -20.274   2.435  1.00  0.00     0.003 A 
HETATM   16  C   UNL     1      43.300 -18.993   1.930  1.00  0.00     0.001 A 
HETATM   17  C   UNL     1      43.352 -17.885   2.781  1.00  0.00     0.017 A 
ENDBRANCH   6  11
ENDBRANCH   2   5
BRANCH   1  18
HETATM   18  C   UNL     1      40.399 -14.279   2.618  1.00  0.00     0.165 C 
BRANCH  18  19
HETATM   19  C   UNL     1      40.556 -14.945   1.223  1.00  0.00     0.097 C 
HETATM   20  C   UNL     1      40.012 -16.383   1.200  1.00  0.00     0.053 C 
BRANCH  19  21
HETATM   21  O   UNL     1      41.970 -15.029   0.950  1.00  0.00    -0.384 OA
HETATM   22  H   UNL     1      42.057 -15.227   0.000  1.00  0.00     0.211 HD
ENDBRANCH  19  21
BRANCH  19  23
HETATM   23  C   UNL     1      39.875 -14.076   0.161  1.00  0.00    -0.023 A 
HETATM   24  C   UNL     1      39.623 -12.712   0.406  1.00  0.00     0.013 A 
HETATM   25  C   UNL     1      39.008 -11.909  -0.559  1.00  0.00     0.043 A 
HETATM   26  C   UNL     1      38.643 -12.461  -1.780  1.00  0.00     0.116 A 
HETATM   27  F   UNL     1      38.052 -11.692  -2.703  1.00  0.00    -0.206 F 
HETATM   28  C   UNL     1      38.890 -13.798  -2.056  1.00  0.00     0.043 A 
HETATM   29  C   UNL     1      39.509 -14.601  -1.095  1.00  0.00     0.013 A 
ENDBRANCH  19  23
ENDBRANCH  18  19
ENDBRANCH   1  18
TORSDOF 6
ENDMDL
MODEL 10
REMARK VINA RESULT:      -8.0      2.464      5.590
REMARK  6 active torsions:
REMARK  status: ('A' for Active; 'I' for Inactive)
REMARK    1  A    between atoms: C_2  and  O_3 
REMARK    2  A    between atoms: C_2  and  C_4 
REMARK    3  A    between atoms: C_2  and  C_11 
REMARK    4  A    between atoms: C_11  and  N_12 
REMARK       I    between atoms: N_12  and  C_13 
REMARK    5  A    between atoms: C_13  and  C_14 
REMARK    6  A    between atoms: C_15  and  C_16 
ROOT
HETATM    1  N   UNL     1      43.575 -14.967   6.189  1.00  0.00    -0.354 N 
HETATM    2  C   UNL     1      42.834 -16.107   5.961  1.00  0.00     0.255 C 
HETATM    3  O   UNL     1      41.794 -16.348   6.562  1.00  0.00    -0.268 OA
HETATM    4  H   UNL     1      44.280 -14.707   5.512  1.00  0.00     0.162 HD
ENDROOT
BRANCH   2   5
HETATM    5  C   UNL     1      43.388 -16.992   4.947  1.00  0.00     0.080 A 
HETATM    6  C   UNL     1      43.027 -17.110   3.567  1.00  0.00     0.107 A 
HETATM    7  N   UNL     1      43.709 -18.106   2.972  1.00  0.00    -0.173 NA
HETATM    8  N   UNL     1      44.511 -18.584   3.929  1.00  0.00    -0.288 N 
HETATM    9  H   UNL     1      45.130 -19.353   3.693  1.00  0.00     0.188 HD
HETATM   10  C   UNL     1      44.364 -17.957   5.127  1.00  0.00     0.128 A 
BRANCH   6  11
HETATM   11  C   UNL     1      42.073 -16.321   2.796  1.00  0.00     0.034 A 
HETATM   12  C   UNL     1      42.471 -15.611   1.658  1.00  0.00     0.129 A 
HETATM   13  F   UNL     1      43.743 -15.657   1.232  1.00  0.00    -0.205 F 
HETATM   14  C   UNL     1      41.554 -14.867   0.918  1.00  0.00     0.043 A 
HETATM   15  C   UNL     1      40.215 -14.833   1.304  1.00  0.00     0.003 A 
HETATM   16  C   UNL     1      39.797 -15.549   2.426  1.00  0.00     0.001 A 
HETATM   17  C   UNL     1      40.720 -16.293   3.166  1.00  0.00     0.017 A 
ENDBRANCH   6  11
ENDBRANCH   2   5
BRANCH   1  18
HETATM   18  C   UNL     1      43.114 -13.904   7.071  1.00  0.00     0.165 C 
BRANCH  18  19
HETATM   19  C   UNL     1      43.466 -12.483   6.550  1.00  0.00     0.097 C 
HETATM   20  C   UNL     1      44.983 -12.260   6.448  1.00  0.00     0.053 C 
BRANCH  19  21
HETATM   21  O   UNL     1      42.970 -11.540   7.524  1.00  0.00    -0.384 OA
HETATM   22  H   UNL     1      42.212 -11.090   7.111  1.00  0.00     0.211 HD
ENDBRANCH  19  21
BRANCH  19  23
HETATM   23  C   UNL     1      42.777 -12.245   5.203  1.00  0.00    -0.023 A 
HETATM   24  C   UNL     1      41.375 -12.330   5.091  1.00  0.00     0.013 A 
HETATM   25  C   UNL     1      40.736 -12.110   3.868  1.00  0.00     0.043 A 
HETATM   26  C   UNL     1      41.491 -11.797   2.746  1.00  0.00     0.116 A 
HETATM   27  F   UNL     1      40.879 -11.588   1.574  1.00  0.00    -0.206 F 
HETATM   28  C   UNL     1      42.873 -11.693   2.826  1.00  0.00     0.043 A 
HETATM   29  C   UNL     1      43.513 -11.909   4.049  1.00  0.00     0.013 A 
ENDBRANCH  19  23
ENDBRANCH  18  19
ENDBRANCH   1  18
TORSDOF 6
ENDMDL
