MODEL 1
REMARK VINA RESULT:      -9.0      0.000      0.000
REMARK  4 active torsions:
REMARK  status: ('A' for Active; 'I' for Inactive)
REMARK    1  A    between atoms: C_3  and  C_4 
REMARK    2  A    between atoms: C_14  and  N_15 
REMARK       I    between atoms: N_15  and  C_16 
REMARK    3  A    between atoms: C_16  and  C_17 
REMARK    4  A    between atoms: C_20  and  N_21 
ROOT
HETATM    1  N   UNL     1      41.406 -12.784   3.241  1.00  0.00    -0.322 N 
HETATM    2  C   UNL     1      42.703 -12.407   3.532  1.00  0.00     0.256 C 
HETATM    3  O   UNL     1      43.702 -12.667   2.872  1.00  0.00    -0.267 OA
HETATM    4  H   UNL     1      40.711 -12.654   3.968  1.00  0.00     0.169 HD
ENDROOT
BRANCH   1   5
HETATM    5  C   UNL     1      40.936 -13.351   2.029  1.00  0.00     0.049 A 
HETATM    6  C   UNL     1      40.962 -14.754   1.860  1.00  0.00     0.037 A 
HETATM    7  C   UNL     1      40.367 -15.329   0.725  1.00  0.00     0.017 A 
HETATM    8  C   UNL     1      39.791 -14.527  -0.259  1.00  0.00     0.001 A 
HETATM    9  C   UNL     1      39.805 -13.144  -0.116  1.00  0.00     0.002 A 
HETATM   10  C   UNL     1      40.370 -12.559   1.021  1.00  0.00     0.030 A 
BRANCH   6  11
HETATM   11  C   UNL     1      41.657 -15.647   2.789  1.00  0.00     0.141 A 
HETATM   12  N   UNL     1      41.524 -15.688   4.100  1.00  0.00    -0.228 NA
HETATM   13  C   UNL     1      42.352 -16.697   4.530  1.00  0.00     0.086 A 
HETATM   14  C   UNL     1      42.999 -17.299   3.458  1.00  0.00     0.062 A 
HETATM   15  C   UNL     1      42.603 -17.161   5.829  1.00  0.00     0.034 A 
HETATM   16  N   UNL     1      42.517 -16.635   2.362  1.00  0.00    -0.338 N 
HETATM   17  C   UNL     1      43.907 -18.351   3.599  1.00  0.00     0.032 A 
HETATM   18  H   UNL     1      42.742 -16.830   1.397  1.00  0.00     0.167 HD
HETATM   19  C   UNL     1      44.150 -18.795   4.903  1.00  0.00     0.002 A 
HETATM   20  C   UNL     1      43.509 -18.214   6.002  1.00  0.00     0.002 A 
ENDBRANCH   6  11
ENDBRANCH   1   5
BRANCH   2  21
HETATM   21  C   UNL     1      42.868 -11.685   4.822  1.00  0.00     0.032 A 
HETATM   22  C   UNL     1      41.783 -11.131   5.500  1.00  0.00     0.019 A 
HETATM   23  C   UNL     1      41.985 -10.442   6.706  1.00  0.00     0.031 A 
HETATM   24  C   UNL     1      43.264 -10.284   7.271  1.00  0.00     0.045 A 
HETATM   25  C   UNL     1      44.338 -10.847   6.560  1.00  0.00     0.031 A 
HETATM   26  C   UNL     1      44.148 -11.531   5.349  1.00  0.00     0.019 A 
BRANCH  24  27
HETATM   27  N   UNL     1      43.462  -9.569   8.501  1.00  0.00    -0.252 N 
HETATM   28  C   UNL     1      43.748 -10.159   9.715  1.00  0.00     0.231 C 
HETATM   29  O   UNL     1      43.986 -11.330   9.978  1.00  0.00    -0.273 OA
HETATM   30  C   UNL     1      43.718  -9.114  10.789  1.00  0.00     0.113 C 
HETATM   31  C   UNL     1      43.778  -7.817  10.032  1.00  0.00     0.113 C 
HETATM   32  C   UNL     1      43.400  -8.196   8.633  1.00  0.00     0.231 C 
HETATM   33  O   UNL     1      43.118  -7.341   7.803  1.00  0.00    -0.273 OA
ENDBRANCH  24  27
ENDBRANCH   2  21
TORSDOF 4
ENDMDL
MODEL 2
REMARK VINA RESULT:      -8.9      1.340      1.676
REMARK  4 active torsions:
REMARK  status: ('A' for Active; 'I' for Inactive)
REMARK    1  A    between atoms: C_3  and  C_4 
REMARK    2  A    between atoms: C_14  and  N_15 
REMARK       I    between atoms: N_15  and  C_16 
REMARK    3  A    between atoms: C_16  and  C_17 
REMARK    4  A    between atoms: C_20  and  N_21 
ROOT
HETATM    1  N   UNL     1      41.629 -12.628   2.923  1.00  0.00    -0.322 N 
HETATM    2  C   UNL     1      40.913 -12.051   3.955  1.00  0.00     0.256 C 
HETATM    3  O   UNL     1      39.712 -11.813   3.964  1.00  0.00    -0.267 OA
HETATM    4  H   UNL     1      42.640 -12.597   2.986  1.00  0.00     0.169 HD
ENDROOT
BRANCH   1   5
HETATM    5  C   UNL     1      41.099 -13.255   1.766  1.00  0.00     0.049 A 
HETATM    6  C   UNL     1      41.018 -14.665   1.714  1.00  0.00     0.037 A 
HETATM    7  C   UNL     1      40.364 -15.284   0.636  1.00  0.00     0.017 A 
HETATM    8  C   UNL     1      39.832 -14.524  -0.405  1.00  0.00     0.001 A 
HETATM    9  C   UNL     1      39.951 -13.138  -0.377  1.00  0.00     0.002 A 
HETATM   10  C   UNL     1      40.577 -12.508   0.702  1.00  0.00     0.030 A 
BRANCH   6  11
HETATM   11  C   UNL     1      41.660 -15.528   2.705  1.00  0.00     0.141 A 
HETATM   12  N   UNL     1      41.468 -15.519   4.010  1.00  0.00    -0.228 NA
HETATM   13  C   UNL     1      42.264 -16.519   4.514  1.00  0.00     0.086 A 
HETATM   14  C   UNL     1      42.952 -17.167   3.496  1.00  0.00     0.062 A 
HETATM   15  C   UNL     1      42.451 -16.936   5.840  1.00  0.00     0.034 A 
HETATM   16  N   UNL     1      42.528 -16.540   2.355  1.00  0.00    -0.338 N 
HETATM   17  C   UNL     1      43.841 -18.221   3.717  1.00  0.00     0.032 A 
HETATM   18  H   UNL     1      42.794 -16.774   1.409  1.00  0.00     0.167 HD
HETATM   19  C   UNL     1      44.020 -18.619   5.047  1.00  0.00     0.002 A 
HETATM   20  C   UNL     1      43.337 -17.991   6.093  1.00  0.00     0.002 A 
ENDBRANCH   6  11
ENDBRANCH   1   5
BRANCH   2  21
HETATM   21  C   UNL     1      41.734 -11.621   5.118  1.00  0.00     0.032 A 
HETATM   22  C   UNL     1      42.551 -12.511   5.813  1.00  0.00     0.019 A 
HETATM   23  C   UNL     1      43.296 -12.068   6.917  1.00  0.00     0.031 A 
HETATM   24  C   UNL     1      43.252 -10.733   7.361  1.00  0.00     0.045 A 
HETATM   25  C   UNL     1      42.413  -9.861   6.645  1.00  0.00     0.031 A 
HETATM   26  C   UNL     1      41.658 -10.296   5.545  1.00  0.00     0.019 A 
BRANCH  24  27
HETATM   27  N   UNL     1      44.010 -10.290   8.497  1.00  0.00    -0.252 N 
HETATM   28  C   UNL     1      43.461  -9.825   9.675  1.00  0.00     0.231 C 
HETATM   29  O   UNL     1      42.291  -9.788  10.031  1.00  0.00    -0.273 OA
HETATM   30  C   UNL     1      44.556  -9.303  10.555  1.00  0.00     0.113 C 
HETATM   31  C   UNL     1      45.809  -9.867   9.947  1.00  0.00     0.113 C 
HETATM   32  C   UNL     1      45.389 -10.278   8.568  1.00  0.00     0.231 C 
HETATM   33  O   UNL     1      46.220 -10.560   7.714  1.00  0.00    -0.273 OA
ENDBRANCH  24  27
ENDBRANCH   2  21
TORSDOF 4
ENDMDL
MODEL 3
REMARK VINA RESULT:      -8.8      3.825      8.553
REMARK  4 active torsions:
REMARK  status: ('A' for Active; 'I' for Inactive)
REMARK    1  A    between atoms: C_3  and  C_4 
REMARK    2  A    between atoms: C_14  and  N_15 
REMARK       I    between atoms: N_15  and  C_16 
REMARK    3  A    between atoms: C_16  and  C_17 
REMARK    4  A    between atoms: C_20  and  N_21 
ROOT
HETATM    1  N   UNL     1      42.036 -15.346   1.294  1.00  0.00    -0.322 N 
HETATM    2  C   UNL     1      40.667 -15.281   1.117  1.00  0.00     0.256 C 
HETATM    3  O   UNL     1      39.834 -16.035   1.604  1.00  0.00    -0.267 OA
HETATM    4  H   UNL     1      42.610 -14.771   0.688  1.00  0.00     0.169 HD
ENDROOT
BRANCH   1   5
HETATM    5  C   UNL     1      42.736 -16.146   2.234  1.00  0.00     0.049 A 
HETATM    6  C   UNL     1      42.942 -15.659   3.545  1.00  0.00     0.037 A 
HETATM    7  C   UNL     1      43.505 -16.501   4.518  1.00  0.00     0.017 A 
HETATM    8  C   UNL     1      43.903 -17.797   4.194  1.00  0.00     0.001 A 
HETATM    9  C   UNL     1      43.741 -18.262   2.893  1.00  0.00     0.002 A 
HETATM   10  C   UNL     1      43.159 -17.444   1.921  1.00  0.00     0.030 A 
BRANCH   6  11
HETATM   11  C   UNL     1      42.664 -14.273   3.924  1.00  0.00     0.141 A 
HETATM   12  N   UNL     1      43.071 -13.184   3.304  1.00  0.00    -0.228 NA
HETATM   13  C   UNL     1      42.542 -12.129   4.009  1.00  0.00     0.086 A 
HETATM   14  C   UNL     1      41.782 -12.582   5.081  1.00  0.00     0.062 A 
HETATM   15  C   UNL     1      42.667 -10.750   3.792  1.00  0.00     0.034 A 
HETATM   16  N   UNL     1      41.850 -13.946   4.987  1.00  0.00    -0.338 N 
HETATM   17  C   UNL     1      41.130 -11.730   5.976  1.00  0.00     0.032 A 
HETATM   18  H   UNL     1      41.382 -14.611   5.585  1.00  0.00     0.167 HD
HETATM   19  C   UNL     1      41.271 -10.357   5.747  1.00  0.00     0.002 A 
HETATM   20  C   UNL     1      42.024  -9.871   4.674  1.00  0.00     0.002 A 
ENDBRANCH   6  11
ENDBRANCH   1   5
BRANCH   2  21
HETATM   21  C   UNL     1      40.210 -14.228   0.171  1.00  0.00     0.032 A 
HETATM   22  C   UNL     1      39.527 -14.540  -1.003  1.00  0.00     0.019 A 
HETATM   23  C   UNL     1      39.129 -13.517  -1.878  1.00  0.00     0.031 A 
HETATM   24  C   UNL     1      39.397 -12.160  -1.613  1.00  0.00     0.045 A 
HETATM   25  C   UNL     1      40.093 -11.879  -0.425  1.00  0.00     0.031 A 
HETATM   26  C   UNL     1      40.503 -12.896   0.453  1.00  0.00     0.019 A 
BRANCH  24  27
HETATM   27  N   UNL     1      38.994 -11.121  -2.518  1.00  0.00    -0.252 N 
HETATM   28  C   UNL     1      39.843 -10.462  -3.383  1.00  0.00     0.231 C 
HETATM   29  O   UNL     1      41.022 -10.671  -3.633  1.00  0.00    -0.273 OA
HETATM   30  C   UNL     1      39.099  -9.338  -4.040  1.00  0.00     0.113 C 
HETATM   31  C   UNL     1      37.655  -9.656  -3.773  1.00  0.00     0.113 C 
HETATM   32  C   UNL     1      37.704 -10.648  -2.650  1.00  0.00     0.231 C 
HETATM   33  O   UNL     1      36.694 -10.940  -2.023  1.00  0.00    -0.273 OA
ENDBRANCH  24  27
ENDBRANCH   2  21
TORSDOF 4
ENDMDL
MODEL 4
REMARK VINA RESULT:      -8.8      1.772      4.479
REMARK  4 active torsions:
REMARK  status: ('A' for Active; 'I' for Inactive)
REMARK    1  A    between atoms: C_3  and  C_4 
REMARK    2  A    between atoms: C_14  and  N_15 
REMARK       I    between atoms: N_15  and  C_16 
REMARK    3  A    between atoms: C_16  and  C_17 
REMARK    4  A    between atoms: C_20  and  N_21 
ROOT
HETATM    1  N   UNL     1      43.373 -15.412   4.602  1.00  0.00    -0.322 N 
HETATM    2  C   UNL     1      42.359 -14.849   5.353  1.00  0.00     0.256 C 
HETATM    3  O   UNL     1      41.216 -15.274   5.468  1.00  0.00    -0.267 OA
HETATM    4  H   UNL     1      44.207 -14.855   4.458  1.00  0.00     0.169 HD
ENDROOT
BRANCH   1   5
HETATM    5  C   UNL     1      43.371 -16.694   3.995  1.00  0.00     0.049 A 
HETATM    6  C   UNL     1      42.892 -16.837   2.673  1.00  0.00     0.037 A 
HETATM    7  C   UNL     1      43.020 -18.072   2.017  1.00  0.00     0.017 A 
HETATM    8  C   UNL     1      43.575 -19.171   2.671  1.00  0.00     0.001 A 
HETATM    9  C   UNL     1      44.006 -19.044   3.988  1.00  0.00     0.002 A 
HETATM   10  C   UNL     1      43.907 -17.814   4.644  1.00  0.00     0.030 A 
BRANCH   6  11
HETATM   11  C   UNL     1      42.187 -15.764   1.969  1.00  0.00     0.141 A 
HETATM   12  N   UNL     1      42.498 -14.483   1.960  1.00  0.00    -0.228 NA
HETATM   13  C   UNL     1      41.571 -13.877   1.146  1.00  0.00     0.086 A 
HETATM   14  C   UNL     1      40.677 -14.809   0.633  1.00  0.00     0.062 A 
HETATM   15  C   UNL     1      41.430 -12.527   0.795  1.00  0.00     0.034 A 
HETATM   16  N   UNL     1      41.108 -16.003   1.146  1.00  0.00    -0.338 N 
HETATM   17  C   UNL     1      39.623 -14.474  -0.220  1.00  0.00     0.032 A 
HETATM   18  H   UNL     1      40.714 -16.913   0.956  1.00  0.00     0.167 HD
HETATM   19  C   UNL     1      39.494 -13.122  -0.554  1.00  0.00     0.002 A 
HETATM   20  C   UNL     1      40.382 -12.162  -0.058  1.00  0.00     0.002 A 
ENDBRANCH   6  11
ENDBRANCH   1   5
BRANCH   2  21
HETATM   21  C   UNL     1      42.708 -13.559   6.005  1.00  0.00     0.032 A 
HETATM   22  C   UNL     1      42.221 -12.340   5.535  1.00  0.00     0.019 A 
HETATM   23  C   UNL     1      42.590 -11.143   6.169  1.00  0.00     0.031 A 
HETATM   24  C   UNL     1      43.450 -11.122   7.283  1.00  0.00     0.045 A 
HETATM   25  C   UNL     1      43.931 -12.366   7.728  1.00  0.00     0.031 A 
HETATM   26  C   UNL     1      43.574 -13.567   7.097  1.00  0.00     0.019 A 
BRANCH  24  27
HETATM   27  N   UNL     1      43.830  -9.892   7.919  1.00  0.00    -0.252 N 
HETATM   28  C   UNL     1      45.125  -9.424   8.014  1.00  0.00     0.231 C 
HETATM   29  O   UNL     1      46.154  -9.866   7.521  1.00  0.00    -0.273 OA
HETATM   30  C   UNL     1      45.144  -8.205   8.885  1.00  0.00     0.113 C 
HETATM   31  C   UNL     1      43.702  -7.790   8.957  1.00  0.00     0.113 C 
HETATM   32  C   UNL     1      42.951  -9.008   8.513  1.00  0.00     0.231 C 
HETATM   33  O   UNL     1      41.742  -9.098   8.679  1.00  0.00    -0.273 OA
ENDBRANCH  24  27
ENDBRANCH   2  21
TORSDOF 4
ENDMDL
MODEL 5
REMARK VINA RESULT:      -8.6      2.975      8.033
REMARK  4 active torsions:
REMARK  status: ('A' for Active; 'I' for Inactive)
REMARK    1  A    between atoms: C_3  and  C_4 
REMARK    2  A    between atoms: C_14  and  N_15 
REMARK       I    between atoms: N_15  and  C_16 
REMARK    3  A    between atoms: C_16  and  C_17 
REMARK    4  A    between atoms: C_20  and  N_21 
ROOT
HETATM    1  N   UNL     1      40.604 -11.350   5.232  1.00  0.00    -0.322 N 
HETATM    2  C   UNL     1      40.196 -12.507   5.868  1.00  0.00     0.256 C 
HETATM    3  O   UNL     1      39.364 -12.590   6.764  1.00  0.00    -0.267 OA
HETATM    4  H   UNL     1      41.425 -11.411   4.641  1.00  0.00     0.169 HD
ENDROOT
BRANCH   1   5
HETATM    5  C   UNL     1      40.000 -10.070   5.325  1.00  0.00     0.049 A 
HETATM    6  C   UNL     1      40.634  -9.054   6.076  1.00  0.00     0.037 A 
HETATM    7  C   UNL     1      40.117  -7.748   6.054  1.00  0.00     0.017 A 
HETATM    8  C   UNL     1      38.961  -7.452   5.333  1.00  0.00     0.001 A 
HETATM    9  C   UNL     1      38.311  -8.461   4.630  1.00  0.00     0.002 A 
HETATM   10  C   UNL     1      38.828  -9.759   4.623  1.00  0.00     0.030 A 
BRANCH   6  11
HETATM   11  C   UNL     1      41.776  -9.318   6.952  1.00  0.00     0.141 A 
HETATM   12  N   UNL     1      42.871  -9.987   6.650  1.00  0.00    -0.228 NA
HETATM   13  C   UNL     1      43.659  -9.947   7.775  1.00  0.00     0.086 A 
HETATM   14  C   UNL     1      43.041  -9.225   8.788  1.00  0.00     0.062 A 
HETATM   15  C   UNL     1      44.924 -10.506   8.005  1.00  0.00     0.034 A 
HETATM   16  N   UNL     1      41.861  -8.811   8.231  1.00  0.00    -0.338 N 
HETATM   17  C   UNL     1      43.610  -9.027  10.048  1.00  0.00     0.032 A 
HETATM   18  H   UNL     1      41.164  -8.226   8.670  1.00  0.00     0.167 HD
HETATM   19  C   UNL     1      44.869  -9.597  10.262  1.00  0.00     0.002 A 
HETATM   20  C   UNL     1      45.519 -10.323   9.260  1.00  0.00     0.002 A 
ENDBRANCH   6  11
ENDBRANCH   1   5
BRANCH   2  21
HETATM   21  C   UNL     1      40.920 -13.737   5.450  1.00  0.00     0.032 A 
HETATM   22  C   UNL     1      40.407 -15.011   5.691  1.00  0.00     0.019 A 
HETATM   23  C   UNL     1      41.131 -16.146   5.296  1.00  0.00     0.031 A 
HETATM   24  C   UNL     1      42.380 -16.051   4.654  1.00  0.00     0.045 A 
HETATM   25  C   UNL     1      42.874 -14.753   4.432  1.00  0.00     0.031 A 
HETATM   26  C   UNL     1      42.161 -13.611   4.830  1.00  0.00     0.019 A 
BRANCH  24  27
HETATM   27  N   UNL     1      43.118 -17.218   4.262  1.00  0.00    -0.252 N 
HETATM   28  C   UNL     1      43.701 -18.110   5.140  1.00  0.00     0.231 C 
HETATM   29  O   UNL     1      43.634 -18.162   6.361  1.00  0.00    -0.273 OA
HETATM   30  C   UNL     1      44.519 -19.098   4.365  1.00  0.00     0.113 C 
HETATM   31  C   UNL     1      44.040 -18.934   2.950  1.00  0.00     0.113 C 
HETATM   32  C   UNL     1      43.339 -17.610   2.957  1.00  0.00     0.231 C 
HETATM   33  O   UNL     1      43.032 -17.055   1.910  1.00  0.00    -0.273 OA
ENDBRANCH  24  27
ENDBRANCH   2  21
TORSDOF 4
ENDMDL
MODEL 6
REMARK VINA RESULT:      -8.5      1.852      2.909
REMARK  4 active torsions:
REMARK  status: ('A' for Active; 'I' for Inactive)
REMARK    1  A    between atoms: C_3  and  C_4 
REMARK    2  A    between atoms: C_14  and  N_15 
REMARK       I    between atoms: N_15  and  C_16 
REMARK    3  A    between atoms: C_16  and  C_17 
REMARK    4  A    between atoms: C_20  and  N_21 
ROOT
HETATM    1  N   UNL     1      40.499 -11.127   1.879  1.00  0.00    -0.322 N 
HETATM    2  C   UNL     1      39.879 -10.972   3.104  1.00  0.00     0.256 C 
HETATM    3  O   UNL     1      38.673 -10.981   3.317  1.00  0.00    -0.267 OA
HETATM    4  H   UNL     1      41.489 -10.917   1.830  1.00  0.00     0.169 HD
ENDROOT
BRANCH   1   5
HETATM    5  C   UNL     1      39.892 -11.540   0.665  1.00  0.00     0.049 A 
HETATM    6  C   UNL     1      39.845 -12.916   0.344  1.00  0.00     0.037 A 
HETATM    7  C   UNL     1      39.122 -13.342  -0.782  1.00  0.00     0.017 A 
HETATM    8  C   UNL     1      38.486 -12.419  -1.611  1.00  0.00     0.001 A 
HETATM    9  C   UNL     1      38.570 -11.061  -1.322  1.00  0.00     0.002 A 
HETATM   10  C   UNL     1      39.265 -10.625  -0.190  1.00  0.00     0.030 A 
BRANCH   6  11
HETATM   11  C   UNL     1      40.589 -13.927   1.096  1.00  0.00     0.141 A 
HETATM   12  N   UNL     1      40.279 -14.427   2.275  1.00  0.00    -0.228 NA
HETATM   13  C   UNL     1      41.252 -15.355   2.559  1.00  0.00     0.086 A 
HETATM   14  C   UNL     1      42.175 -15.437   1.524  1.00  0.00     0.062 A 
HETATM   15  C   UNL     1      41.413 -16.173   3.686  1.00  0.00     0.034 A 
HETATM   16  N   UNL     1      41.715 -14.543   0.594  1.00  0.00    -0.338 N 
HETATM   17  C   UNL     1      43.278 -16.294   1.543  1.00  0.00     0.032 A 
HETATM   18  H   UNL     1      42.120 -14.362  -0.313  1.00  0.00     0.167 HD
HETATM   19  C   UNL     1      43.425 -17.098   2.679  1.00  0.00     0.002 A 
HETATM   20  C   UNL     1      42.510 -17.042   3.734  1.00  0.00     0.002 A 
ENDBRANCH   6  11
ENDBRANCH   1   5
BRANCH   2  21
HETATM   21  C   UNL     1      40.800 -10.690   4.237  1.00  0.00     0.032 A 
HETATM   22  C   UNL     1      42.182 -10.833   4.116  1.00  0.00     0.019 A 
HETATM   23  C   UNL     1      43.015 -10.574   5.216  1.00  0.00     0.031 A 
HETATM   24  C   UNL     1      42.503 -10.167   6.462  1.00  0.00     0.045 A 
HETATM   25  C   UNL     1      41.106 -10.039   6.554  1.00  0.00     0.031 A 
HETATM   26  C   UNL     1      40.263 -10.303   5.463  1.00  0.00     0.019 A 
BRANCH  24  27
HETATM   27  N   UNL     1      43.362  -9.913   7.584  1.00  0.00    -0.252 N 
HETATM   28  C   UNL     1      43.637  -8.661   8.094  1.00  0.00     0.231 C 
HETATM   29  O   UNL     1      43.162  -7.573   7.796  1.00  0.00    -0.273 OA
HETATM   30  C   UNL     1      44.697  -8.781   9.147  1.00  0.00     0.113 C 
HETATM   31  C   UNL     1      44.721 -10.249   9.469  1.00  0.00     0.113 C 
HETATM   32  C   UNL     1      44.022 -10.886   8.307  1.00  0.00     0.231 C 
HETATM   33  O   UNL     1      44.073 -12.096   8.128  1.00  0.00    -0.273 OA
ENDBRANCH  24  27
ENDBRANCH   2  21
TORSDOF 4
ENDMDL
MODEL 7
REMARK VINA RESULT:      -8.4     17.272     18.513
REMARK  4 active torsions:
REMARK  status: ('A' for Active; 'I' for Inactive)
REMARK    1  A    between atoms: C_3  and  C_4 
REMARK    2  A    between atoms: C_14  and  N_15 
REMARK       I    between atoms: N_15  and  C_16 
REMARK    3  A    between atoms: C_16  and  C_17 
REMARK    4  A    between atoms: C_20  and  N_21 
ROOT
HETATM    1  N   UNL     1      44.509 -29.310   1.080  1.00  0.00    -0.322 N 
HETATM    2  C   UNL     1      43.681 -30.416   1.064  1.00  0.00     0.256 C 
HETATM    3  O   UNL     1      43.356 -31.068   0.079  1.00  0.00    -0.267 OA
HETATM    4  H   UNL     1      44.542 -28.768   1.937  1.00  0.00     0.169 HD
ENDROOT
BRANCH   1   5
HETATM    5  C   UNL     1      45.319 -28.838   0.016  1.00  0.00     0.049 A 
HETATM    6  C   UNL     1      46.713 -29.066   0.048  1.00  0.00     0.037 A 
HETATM    7  C   UNL     1      47.498 -28.730  -1.067  1.00  0.00     0.017 A 
HETATM    8  C   UNL     1      46.923 -28.131  -2.188  1.00  0.00     0.001 A 
HETATM    9  C   UNL     1      45.558 -27.865  -2.202  1.00  0.00     0.002 A 
HETATM   10  C   UNL     1      44.761 -28.218  -1.110  1.00  0.00     0.030 A 
BRANCH   6  11
HETATM   11  C   UNL     1      47.402 -29.575   1.235  1.00  0.00     0.141 A 
HETATM   12  N   UNL     1      46.947 -30.461   2.098  1.00  0.00    -0.228 NA
HETATM   13  C   UNL     1      47.951 -30.639   3.019  1.00  0.00     0.086 A 
HETATM   14  C   UNL     1      49.054 -29.854   2.708  1.00  0.00     0.062 A 
HETATM   15  C   UNL     1      47.993 -31.461   4.154  1.00  0.00     0.034 A 
HETATM   16  N   UNL     1      48.692 -29.212   1.554  1.00  0.00    -0.338 N 
HETATM   17  C   UNL     1      50.221 -29.828   3.475  1.00  0.00     0.032 A 
HETATM   18  H   UNL     1      49.267 -28.581   1.015  1.00  0.00     0.167 HD
HETATM   19  C   UNL     1      50.242 -30.650   4.608  1.00  0.00     0.002 A 
HETATM   20  C   UNL     1      49.150 -31.455   4.943  1.00  0.00     0.002 A 
ENDBRANCH   6  11
ENDBRANCH   1   5
BRANCH   2  21
HETATM   21  C   UNL     1      43.083 -30.767   2.380  1.00  0.00     0.032 A 
HETATM   22  C   UNL     1      43.488 -31.892   3.096  1.00  0.00     0.019 A 
HETATM   23  C   UNL     1      42.884 -32.197   4.326  1.00  0.00     0.031 A 
HETATM   24  C   UNL     1      41.866 -31.397   4.879  1.00  0.00     0.045 A 
HETATM   25  C   UNL     1      41.475 -30.274   4.129  1.00  0.00     0.031 A 
HETATM   26  C   UNL     1      42.066 -29.965   2.894  1.00  0.00     0.019 A 
BRANCH  24  27
HETATM   27  N   UNL     1      41.249 -31.722   6.133  1.00  0.00    -0.252 N 
HETATM   28  C   UNL     1      41.904 -31.751   7.347  1.00  0.00     0.231 C 
HETATM   29  O   UNL     1      43.051 -31.425   7.624  1.00  0.00    -0.273 OA
HETATM   30  C   UNL     1      40.978 -32.292   8.394  1.00  0.00     0.113 C 
HETATM   31  C   UNL     1      39.620 -32.201   7.756  1.00  0.00     0.113 C 
HETATM   32  C   UNL     1      39.916 -32.043   6.296  1.00  0.00     0.231 C 
HETATM   33  O   UNL     1      39.034 -32.177   5.457  1.00  0.00    -0.273 OA
ENDBRANCH  24  27
ENDBRANCH   2  21
TORSDOF 4
ENDMDL
MODEL 8
REMARK VINA RESULT:      -8.4      2.613      3.461
REMARK  4 active torsions:
REMARK  status: ('A' for Active; 'I' for Inactive)
REMARK    1  A    between atoms: C_3  and  C_4 
REMARK    2  A    between atoms: C_14  and  N_15 
REMARK       I    between atoms: N_15  and  C_16 
REMARK    3  A    between atoms: C_16  and  C_17 
REMARK    4  A    between atoms: C_20  and  N_21 
ROOT
HETATM    1  N   UNL     1      39.570 -11.673   1.032  1.00  0.00    -0.322 N 
HETATM    2  C   UNL     1      38.591 -11.435   1.977  1.00  0.00     0.256 C 
HETATM    3  O   UNL     1      37.381 -11.541   1.815  1.00  0.00    -0.267 OA
HETATM    4  H   UNL     1      40.512 -11.371   1.254  1.00  0.00     0.169 HD
ENDROOT
BRANCH   1   5
HETATM    5  C   UNL     1      39.399 -12.290  -0.234  1.00  0.00     0.049 A 
HETATM    6  C   UNL     1      39.716 -13.659  -0.389  1.00  0.00     0.037 A 
HETATM    7  C   UNL     1      39.414 -14.309  -1.597  1.00  0.00     0.017 A 
HETATM    8  C   UNL     1      38.846 -13.608  -2.660  1.00  0.00     0.001 A 
HETATM    9  C   UNL     1      38.576 -12.251  -2.524  1.00  0.00     0.002 A 
HETATM   10  C   UNL     1      38.847 -11.597  -1.319  1.00  0.00     0.030 A 
BRANCH   6  11
HETATM   11  C   UNL     1      40.424 -14.425   0.636  1.00  0.00     0.141 A 
HETATM   12  N   UNL     1      39.951 -14.820   1.802  1.00  0.00    -0.228 NA
HETATM   13  C   UNL     1      40.966 -15.525   2.402  1.00  0.00     0.086 A 
HETATM   14  C   UNL     1      42.086 -15.576   1.581  1.00  0.00     0.062 A 
HETATM   15  C   UNL     1      41.004 -16.155   3.653  1.00  0.00     0.034 A 
HETATM   16  N   UNL     1      41.706 -14.898   0.454  1.00  0.00    -0.338 N 
HETATM   17  C   UNL     1      43.272 -16.223   1.937  1.00  0.00     0.032 A 
HETATM   18  H   UNL     1      42.260 -14.764  -0.379  1.00  0.00     0.167 HD
HETATM   19  C   UNL     1      43.293 -16.841   3.193  1.00  0.00     0.002 A 
HETATM   20  C   UNL     1      42.181 -16.812   4.038  1.00  0.00     0.002 A 
ENDBRANCH   6  11
ENDBRANCH   1   5
BRANCH   2  21
HETATM   21  C   UNL     1      39.093 -10.925   3.281  1.00  0.00     0.032 A 
HETATM   22  C   UNL     1      39.239  -9.562   3.531  1.00  0.00     0.019 A 
HETATM   23  C   UNL     1      39.735  -9.123   4.769  1.00  0.00     0.031 A 
HETATM   24  C   UNL     1      40.097 -10.022   5.791  1.00  0.00     0.045 A 
HETATM   25  C   UNL     1      39.945 -11.390   5.505  1.00  0.00     0.031 A 
HETATM   26  C   UNL     1      39.458 -11.839   4.267  1.00  0.00     0.019 A 
BRANCH  24  27
HETATM   27  N   UNL     1      40.611  -9.564   7.050  1.00  0.00    -0.252 N 
HETATM   28  C   UNL     1      41.935  -9.644   7.434  1.00  0.00     0.231 C 
HETATM   29  O   UNL     1      42.915  -9.998   6.792  1.00  0.00    -0.273 OA
HETATM   30  C   UNL     1      42.057  -9.224   8.867  1.00  0.00     0.113 C 
HETATM   31  C   UNL     1      40.758  -8.526   9.152  1.00  0.00     0.113 C 
HETATM   32  C   UNL     1      39.855  -8.976   8.044  1.00  0.00     0.231 C 
HETATM   33  O   UNL     1      38.646  -8.785   8.099  1.00  0.00    -0.273 OA
ENDBRANCH  24  27
ENDBRANCH   2  21
TORSDOF 4
ENDMDL
MODEL 9
REMARK VINA RESULT:      -8.0      3.112      8.017
REMARK  4 active torsions:
REMARK  status: ('A' for Active; 'I' for Inactive)
REMARK    1  A    between atoms: C_3  and  C_4 
REMARK    2  A    between atoms: C_14  and  N_15 
REMARK       I    between atoms: N_15  and  C_16 
REMARK    3  A    between atoms: C_16  and  C_17 
REMARK    4  A    between atoms: C_20  and  N_21 
ROOT
HETATM    1  N   UNL     1      40.937 -11.335   5.958  1.00  0.00    -0.322 N 
HETATM    2  C   UNL     1      40.224 -12.518   5.973  1.00  0.00     0.256 C 
HETATM    3  O   UNL     1      39.075 -12.671   6.371  1.00  0.00    -0.267 OA
HETATM    4  H   UNL     1      41.932 -11.395   5.772  1.00  0.00     0.169 HD
ENDROOT
BRANCH   1   5
HETATM    5  C   UNL     1      40.427 -10.031   6.189  1.00  0.00     0.049 A 
HETATM    6  C   UNL     1      39.587  -9.432   5.223  1.00  0.00     0.037 A 
HETATM    7  C   UNL     1      38.965  -8.205   5.509  1.00  0.00     0.017 A 
HETATM    8  C   UNL     1      39.203  -7.551   6.717  1.00  0.00     0.001 A 
HETATM    9  C   UNL     1      40.065  -8.118   7.649  1.00  0.00     0.002 A 
HETATM   10  C   UNL     1      40.671  -9.350   7.389  1.00  0.00     0.030 A 
BRANCH   6  11
HETATM   11  C   UNL     1      39.390  -9.999   3.889  1.00  0.00     0.141 A 
HETATM   12  N   UNL     1      40.323 -10.424   3.061  1.00  0.00    -0.228 NA
HETATM   13  C   UNL     1      39.659 -10.891   1.952  1.00  0.00     0.086 A 
HETATM   14  C   UNL     1      38.285 -10.762   2.107  1.00  0.00     0.062 A 
HETATM   15  C   UNL     1      40.166 -11.443   0.767  1.00  0.00     0.034 A 
HETATM   16  N   UNL     1      38.138 -10.222   3.357  1.00  0.00    -0.338 N 
HETATM   17  C   UNL     1      37.361 -11.150   1.133  1.00  0.00     0.032 A 
HETATM   18  H   UNL     1      37.266 -10.023   3.824  1.00  0.00     0.167 HD
HETATM   19  C   UNL     1      37.886 -11.694  -0.044  1.00  0.00     0.002 A 
HETATM   20  C   UNL     1      39.264 -11.841  -0.227  1.00  0.00     0.002 A 
ENDBRANCH   6  11
ENDBRANCH   1   5
BRANCH   2  21
HETATM   21  C   UNL     1      40.990 -13.713   5.530  1.00  0.00     0.032 A 
HETATM   22  C   UNL     1      42.218 -13.601   4.878  1.00  0.00     0.019 A 
HETATM   23  C   UNL     1      42.900 -14.754   4.459  1.00  0.00     0.031 A 
HETATM   24  C   UNL     1      42.386 -16.047   4.675  1.00  0.00     0.045 A 
HETATM   25  C   UNL     1      41.143 -16.126   5.328  1.00  0.00     0.031 A 
HETATM   26  C   UNL     1      40.449 -14.979   5.743  1.00  0.00     0.019 A 
BRANCH  24  27
HETATM   27  N   UNL     1      43.086 -17.220   4.236  1.00  0.00    -0.252 N 
HETATM   28  C   UNL     1      43.693 -18.133   5.074  1.00  0.00     0.231 C 
HETATM   29  O   UNL     1      43.680 -18.201   6.296  1.00  0.00    -0.273 OA
HETATM   30  C   UNL     1      44.460 -19.123   4.251  1.00  0.00     0.113 C 
HETATM   31  C   UNL     1      43.921 -18.932   2.861  1.00  0.00     0.113 C 
HETATM   32  C   UNL     1      43.241 -17.597   2.917  1.00  0.00     0.231 C 
HETATM   33  O   UNL     1      42.897 -17.023   1.892  1.00  0.00    -0.273 OA
ENDBRANCH  24  27
ENDBRANCH   2  21
TORSDOF 4
ENDMDL
MODEL 10
REMARK VINA RESULT:      -8.0      3.195      6.072
REMARK  4 active torsions:
REMARK  status: ('A' for Active; 'I' for Inactive)
REMARK    1  A    between atoms: C_3  and  C_4 
REMARK    2  A    between atoms: C_14  and  N_15 
REMARK       I    between atoms: N_15  and  C_16 
REMARK    3  A    between atoms: C_16  and  C_17 
REMARK    4  A    between atoms: C_20  and  N_21 
ROOT
HETATM    1  N   UNL     1      40.850 -13.015   0.925  1.00  0.00    -0.322 N 
HETATM    2  C   UNL     1      41.853 -13.721   1.560  1.00  0.00     0.256 C 
HETATM    3  O   UNL     1      42.275 -14.828   1.246  1.00  0.00    -0.267 OA
HETATM    4  H   UNL     1      40.484 -12.198   1.402  1.00  0.00     0.169 HD
ENDROOT
BRANCH   1   5
HETATM    5  C   UNL     1      40.259 -13.316  -0.329  1.00  0.00     0.049 A 
HETATM    6  C   UNL     1      40.301 -12.357  -1.366  1.00  0.00     0.037 A 
HETATM    7  C   UNL     1      39.848 -12.702  -2.650  1.00  0.00     0.017 A 
HETATM    8  C   UNL     1      39.316 -13.965  -2.902  1.00  0.00     0.001 A 
HETATM    9  C   UNL     1      39.232 -14.895  -1.871  1.00  0.00     0.002 A 
HETATM   10  C   UNL     1      39.703 -14.574  -0.594  1.00  0.00     0.030 A 
BRANCH   6  11
HETATM   11  C   UNL     1      40.730 -10.975  -1.146  1.00  0.00     0.141 A 
HETATM   12  N   UNL     1      40.179 -10.092  -0.338  1.00  0.00    -0.228 NA
HETATM   13  C   UNL     1      40.940  -8.954  -0.447  1.00  0.00     0.086 A 
HETATM   14  C   UNL     1      41.993  -9.145  -1.334  1.00  0.00     0.062 A 
HETATM   15  C   UNL     1      40.794  -7.710   0.184  1.00  0.00     0.034 A 
HETATM   16  N   UNL     1      41.855 -10.446  -1.740  1.00  0.00    -0.338 N 
HETATM   17  C   UNL     1      42.926  -8.154  -1.645  1.00  0.00     0.032 A 
HETATM   18  H   UNL     1      42.472 -10.946  -2.363  1.00  0.00     0.167 HD
HETATM   19  C   UNL     1      42.761  -6.918  -1.011  1.00  0.00     0.002 A 
HETATM   20  C   UNL     1      41.715  -6.697  -0.109  1.00  0.00     0.002 A 
ENDBRANCH   6  11
ENDBRANCH   1   5
BRANCH   2  21
HETATM   21  C   UNL     1      42.391 -13.075   2.787  1.00  0.00     0.032 A 
HETATM   22  C   UNL     1      42.657 -13.802   3.946  1.00  0.00     0.019 A 
HETATM   23  C   UNL     1      43.147 -13.150   5.089  1.00  0.00     0.031 A 
HETATM   24  C   UNL     1      43.386 -11.763   5.113  1.00  0.00     0.045 A 
HETATM   25  C   UNL     1      43.101 -11.057   3.931  1.00  0.00     0.031 A 
HETATM   26  C   UNL     1      42.603 -11.698   2.786  1.00  0.00     0.019 A 
BRANCH  24  27
HETATM   27  N   UNL     1      43.878 -11.103   6.289  1.00  0.00    -0.252 N 
HETATM   28  C   UNL     1      45.198 -11.100   6.693  1.00  0.00     0.231 C 
HETATM   29  O   UNL     1      46.190 -11.536   6.125  1.00  0.00    -0.273 OA
HETATM   30  C   UNL     1      45.297 -10.456   8.043  1.00  0.00     0.113 C 
HETATM   31  C   UNL     1      43.984  -9.743   8.200  1.00  0.00     0.113 C 
HETATM   32  C   UNL     1      43.101 -10.377   7.169  1.00  0.00     0.231 C 
HETATM   33  O   UNL     1      41.889 -10.199   7.181  1.00  0.00    -0.273 OA
ENDBRANCH  24  27
ENDBRANCH   2  21
TORSDOF 4
ENDMDL
