MODEL 1
REMARK VINA RESULT:      -8.8      0.000      0.000
REMARK  6 active torsions:
REMARK  status: ('A' for Active; 'I' for Inactive)
REMARK    1  A    between atoms: C_2  and  O_3 
REMARK    2  A    between atoms: O_3  and  C_4 
REMARK    3  A    between atoms: C_5  and  O_6 
REMARK    4  A    between atoms: O_6  and  C_7 
REMARK    5  A    between atoms: C_7  and  C_8 
REMARK    6  A    between atoms: C_16  and  C_17 
ROOT
HETATM    1  C   UNL     1      42.549 -14.923   5.022  1.00  0.00     0.102 A 
HETATM    2  C   UNL     1      42.631 -14.972   3.625  1.00  0.00     0.102 A 
HETATM    3  C   UNL     1      43.062 -13.843   2.924  1.00  0.00     0.040 A 
HETATM    4  C   UNL     1      43.449 -12.688   3.615  1.00  0.00     0.014 A 
HETATM    5  C   UNL     1      43.403 -12.642   5.016  1.00  0.00    -0.007 A 
HETATM    6  C   UNL     1      42.963 -13.780   5.711  1.00  0.00     0.051 A 
ENDROOT
BRANCH   5   7
HETATM    7  C   UNL     1      43.875 -11.414   5.766  1.00  0.00     0.264 C 
HETATM    8  O   UNL     1      42.886 -11.041   6.737  1.00  0.00    -0.321 OA
HETATM    9  C   UNL     1      43.321 -10.088   7.617  1.00  0.00     0.087 A 
HETATM   10  C   UNL     1      44.671  -9.889   7.909  1.00  0.00     0.065 A 
HETATM   11  C   UNL     1      42.351  -9.331   8.270  1.00  0.00     0.038 A 
HETATM   12  C   UNL     1      45.661 -10.770   7.269  1.00  0.00     0.256 C 
HETATM   13  C   UNL     1      45.062  -8.918   8.834  1.00  0.00     0.020 A 
HETATM   14  O   UNL     1      46.856 -10.714   7.521  1.00  0.00    -0.267 OA
HETATM   15  N   UNL     1      45.143 -11.673   6.385  1.00  0.00    -0.326 N 
HETATM   16  H   UNL     1      45.833 -12.210   5.877  1.00  0.00     0.165 HD
HETATM   17  C   UNL     1      44.090  -8.147   9.472  1.00  0.00     0.001 A 
HETATM   18  C   UNL     1      42.737  -8.356   9.195  1.00  0.00     0.003 A 
ENDBRANCH   5   7
BRANCH   1  19
HETATM   19  O   UNL     1      42.160 -16.052   5.696  1.00  0.00    -0.349 OA
BRANCH  19  20
HETATM   20  C   UNL     1      42.443 -16.013   7.098  1.00  0.00     0.171 C 
HETATM   21  C   UNL     1      43.612 -16.936   7.392  1.00  0.00     0.034 C 
ENDBRANCH  19  20
ENDBRANCH   1  19
BRANCH   2  22
HETATM   22  O   UNL     1      42.223 -16.133   3.021  1.00  0.00    -0.344 OA
BRANCH  22  23
HETATM   23  C   UNL     1      43.199 -16.774   2.199  1.00  0.00     0.214 C 
BRANCH  23  24
HETATM   24  C   UNL     1      43.437 -18.175   2.714  1.00  0.00    -0.034 A 
HETATM   25  C   UNL     1      43.198 -19.289   1.896  1.00  0.00     0.009 A 
HETATM   26  C   UNL     1      43.453 -20.580   2.366  1.00  0.00     0.001 A 
HETATM   27  C   UNL     1      43.956 -20.769   3.653  1.00  0.00     0.000 A 
HETATM   28  C   UNL     1      44.203 -19.669   4.471  1.00  0.00     0.001 A 
HETATM   29  C   UNL     1      43.947 -18.380   4.004  1.00  0.00     0.009 A 
ENDBRANCH  23  24
ENDBRANCH  22  23
ENDBRANCH   2  22
TORSDOF 6
ENDMDL
MODEL 2
REMARK VINA RESULT:      -8.7      4.428      7.231
REMARK  6 active torsions:
REMARK  status: ('A' for Active; 'I' for Inactive)
REMARK    1  A    between atoms: C_2  and  O_3 
REMARK    2  A    between atoms: O_3  and  C_4 
REMARK    3  A    between atoms: C_5  and  O_6 
REMARK    4  A    between atoms: O_6  and  C_7 
REMARK    5  A    between atoms: C_7  and  C_8 
REMARK    6  A    between atoms: C_16  and  C_17 
ROOT
HETATM    1  C   UNL     1      41.246 -14.448   3.814  1.00  0.00     0.102 A 
HETATM    2  C   UNL     1      41.569 -15.758   3.439  1.00  0.00     0.102 A 
HETATM    3  C   UNL     1      41.277 -16.190   2.142  1.00  0.00     0.040 A 
HETATM    4  C   UNL     1      40.706 -15.309   1.216  1.00  0.00     0.014 A 
HETATM    5  C   UNL     1      40.412 -13.985   1.573  1.00  0.00    -0.007 A 
HETATM    6  C   UNL     1      40.704 -13.562   2.879  1.00  0.00     0.051 A 
ENDROOT
BRANCH   5   7
HETATM    7  C   UNL     1      39.847 -13.016   0.555  1.00  0.00     0.264 C 
HETATM    8  O   UNL     1      40.924 -12.301  -0.068  1.00  0.00    -0.321 OA
HETATM    9  C   UNL     1      40.533 -11.574  -1.159  1.00  0.00     0.087 A 
HETATM   10  C   UNL     1      39.400 -11.887  -1.910  1.00  0.00     0.065 A 
HETATM   11  C   UNL     1      41.346 -10.509  -1.542  1.00  0.00     0.038 A 
HETATM   12  C   UNL     1      38.616 -13.074  -1.529  1.00  0.00     0.256 C 
HETATM   13  C   UNL     1      39.057 -11.127  -3.030  1.00  0.00     0.020 A 
HETATM   14  O   UNL     1      37.653 -13.464  -2.172  1.00  0.00    -0.267 OA
HETATM   15  N   UNL     1      39.061 -13.725  -0.413  1.00  0.00    -0.326 N 
HETATM   16  H   UNL     1      38.466 -14.481  -0.100  1.00  0.00     0.165 HD
HETATM   17  C   UNL     1      39.861 -10.049  -3.401  1.00  0.00     0.001 A 
HETATM   18  C   UNL     1      41.006  -9.743  -2.661  1.00  0.00     0.003 A 
ENDBRANCH   5   7
BRANCH   1  19
HETATM   19  O   UNL     1      41.575 -14.029   5.078  1.00  0.00    -0.349 OA
BRANCH  19  20
HETATM   20  C   UNL     1      42.716 -13.167   5.121  1.00  0.00     0.171 C 
HETATM   21  C   UNL     1      43.611 -13.590   6.273  1.00  0.00     0.034 C 
ENDBRANCH  19  20
ENDBRANCH   1  19
BRANCH   2  22
HETATM   22  O   UNL     1      42.114 -16.563   4.405  1.00  0.00    -0.344 OA
BRANCH  22  23
HETATM   23  C   UNL     1      43.508 -16.837   4.263  1.00  0.00     0.214 C 
BRANCH  23  24
HETATM   24  C   UNL     1      43.701 -18.319   4.037  1.00  0.00    -0.034 A 
HETATM   25  C   UNL     1      43.981 -19.177   5.110  1.00  0.00     0.009 A 
HETATM   26  C   UNL     1      44.123 -20.551   4.900  1.00  0.00     0.001 A 
HETATM   27  C   UNL     1      43.980 -21.080   3.618  1.00  0.00     0.000 A 
HETATM   28  C   UNL     1      43.696 -20.238   2.546  1.00  0.00     0.001 A 
HETATM   29  C   UNL     1      43.555 -18.866   2.754  1.00  0.00     0.009 A 
ENDBRANCH  23  24
ENDBRANCH  22  23
ENDBRANCH   2  22
TORSDOF 6
ENDMDL
MODEL 3
REMARK VINA RESULT:      -8.5      1.209      2.373
REMARK  6 active torsions:
REMARK  status: ('A' for Active; 'I' for Inactive)
REMARK    1  A    between atoms: C_2  and  O_3 
REMARK    2  A    between atoms: O_3  and  C_4 
REMARK    3  A    between atoms: C_5  and  O_6 
REMARK    4  A    between atoms: O_6  and  C_7 
REMARK    5  A    between atoms: C_7  and  C_8 
REMARK    6  A    between atoms: C_16  and  C_17 
ROOT
HETATM    1  C   UNL     1      42.758 -13.956   4.655  1.00  0.00     0.102 A 
HETATM    2  C   UNL     1      43.206 -14.972   5.508  1.00  0.00     0.102 A 
HETATM    3  C   UNL     1      43.851 -14.631   6.700  1.00  0.00     0.040 A 
HETATM    4  C   UNL     1      44.008 -13.286   7.059  1.00  0.00     0.014 A 
HETATM    5  C   UNL     1      43.531 -12.263   6.227  1.00  0.00    -0.007 A 
HETATM    6  C   UNL     1      42.890 -12.615   5.029  1.00  0.00     0.051 A 
ENDROOT
BRANCH   5   7
HETATM    7  C   UNL     1      43.650 -10.811   6.641  1.00  0.00     0.264 C 
HETATM    8  O   UNL     1      42.587 -10.487   7.549  1.00  0.00    -0.321 OA
HETATM    9  C   UNL     1      42.743  -9.270   8.156  1.00  0.00     0.087 A 
HETATM   10  C   UNL     1      43.987  -8.661   8.320  1.00  0.00     0.065 A 
HETATM   11  C   UNL     1      41.599  -8.658   8.663  1.00  0.00     0.038 A 
HETATM   12  C   UNL     1      45.184  -9.380   7.852  1.00  0.00     0.256 C 
HETATM   13  C   UNL     1      44.095  -7.429   8.967  1.00  0.00     0.020 A 
HETATM   14  O   UNL     1      46.317  -8.956   8.019  1.00  0.00    -0.267 OA
HETATM   15  N   UNL     1      44.935 -10.573   7.234  1.00  0.00    -0.326 N 
HETATM   16  H   UNL     1      45.749 -11.018   6.831  1.00  0.00     0.165 HD
HETATM   17  C   UNL     1      42.947  -6.808   9.458  1.00  0.00     0.001 A 
HETATM   18  C   UNL     1      41.701  -7.423   9.310  1.00  0.00     0.003 A 
ENDBRANCH   5   7
BRANCH   1  19
HETATM   19  O   UNL     1      42.094 -14.308   3.509  1.00  0.00    -0.349 OA
BRANCH  19  20
HETATM   20  C   UNL     1      42.729 -13.850   2.311  1.00  0.00     0.171 C 
HETATM   21  C   UNL     1      43.491 -15.005   1.684  1.00  0.00     0.034 C 
ENDBRANCH  19  20
ENDBRANCH   1  19
BRANCH   2  22
HETATM   22  O   UNL     1      43.027 -16.262   5.083  1.00  0.00    -0.344 OA
BRANCH  22  23
HETATM   23  C   UNL     1      44.178 -17.103   5.167  1.00  0.00     0.214 C 
BRANCH  23  24
HETATM   24  C   UNL     1      43.945 -18.346   4.339  1.00  0.00    -0.034 A 
HETATM   25  C   UNL     1      43.568 -18.250   2.992  1.00  0.00     0.009 A 
HETATM   26  C   UNL     1      43.389 -19.403   2.223  1.00  0.00     0.001 A 
HETATM   27  C   UNL     1      43.593 -20.660   2.791  1.00  0.00     0.000 A 
HETATM   28  C   UNL     1      43.975 -20.767   4.126  1.00  0.00     0.001 A 
HETATM   29  C   UNL     1      44.153 -19.617   4.895  1.00  0.00     0.009 A 
ENDBRANCH  23  24
ENDBRANCH  22  23
ENDBRANCH   2  22
TORSDOF 6
ENDMDL
MODEL 4
REMARK VINA RESULT:      -8.2      7.531     11.384
REMARK  6 active torsions:
REMARK  status: ('A' for Active; 'I' for Inactive)
REMARK    1  A    between atoms: C_2  and  O_3 
REMARK    2  A    between atoms: O_3  and  C_4 
REMARK    3  A    between atoms: C_5  and  O_6 
REMARK    4  A    between atoms: O_6  and  C_7 
REMARK    5  A    between atoms: C_7  and  C_8 
REMARK    6  A    between atoms: C_16  and  C_17 
ROOT
HETATM    1  C   UNL     1      41.690  -9.244  13.311  1.00  0.00     0.102 A 
HETATM    2  C   UNL     1      42.874  -8.733  12.768  1.00  0.00     0.102 A 
HETATM    3  C   UNL     1      43.468  -7.612  13.353  1.00  0.00     0.040 A 
HETATM    4  C   UNL     1      42.907  -7.031  14.496  1.00  0.00     0.014 A 
HETATM    5  C   UNL     1      41.740  -7.558  15.068  1.00  0.00    -0.007 A 
HETATM    6  C   UNL     1      41.148  -8.681  14.471  1.00  0.00     0.051 A 
ENDROOT
BRANCH   5   7
HETATM    7  C   UNL     1      41.164  -6.965  16.337  1.00  0.00     0.264 C 
HETATM    8  O   UNL     1      40.913  -8.017  17.281  1.00  0.00    -0.321 OA
HETATM    9  C   UNL     1      40.612  -7.561  18.536  1.00  0.00     0.087 A 
HETATM   10  C   UNL     1      41.017  -6.310  19.002  1.00  0.00     0.065 A 
HETATM   11  C   UNL     1      39.910  -8.421  19.377  1.00  0.00     0.038 A 
HETATM   12  C   UNL     1      41.836  -5.466  18.117  1.00  0.00     0.256 C 
HETATM   13  C   UNL     1      40.703  -5.901  20.300  1.00  0.00     0.020 A 
HETATM   14  O   UNL     1      42.294  -4.389  18.469  1.00  0.00    -0.267 OA
HETATM   15  N   UNL     1      42.065  -5.986  16.875  1.00  0.00    -0.326 N 
HETATM   16  H   UNL     1      42.545  -5.364  16.238  1.00  0.00     0.165 HD
HETATM   17  C   UNL     1      39.984  -6.755  21.135  1.00  0.00     0.001 A 
HETATM   18  C   UNL     1      39.591  -8.015  20.676  1.00  0.00     0.003 A 
ENDBRANCH   5   7
BRANCH   1  19
HETATM   19  O   UNL     1      41.141 -10.368  12.749  1.00  0.00    -0.349 OA
BRANCH  19  20
HETATM   20  C   UNL     1      39.778 -10.204  12.345  1.00  0.00     0.171 C 
HETATM   21  C   UNL     1      39.744  -9.726  10.904  1.00  0.00     0.034 C 
ENDBRANCH  19  20
ENDBRANCH   1  19
BRANCH   2  22
HETATM   22  O   UNL     1      43.355  -9.348  11.641  1.00  0.00    -0.344 OA
BRANCH  22  23
HETATM   23  C   UNL     1      43.393  -8.538  10.466  1.00  0.00     0.214 C 
BRANCH  23  24
HETATM   24  C   UNL     1      44.242  -9.220   9.420  1.00  0.00    -0.034 A 
HETATM   25  C   UNL     1      45.424  -8.625   8.955  1.00  0.00     0.009 A 
HETATM   26  C   UNL     1      46.223  -9.278   8.013  1.00  0.00     0.001 A 
HETATM   27  C   UNL     1      45.853 -10.534   7.534  1.00  0.00     0.000 A 
HETATM   28  C   UNL     1      44.686 -11.138   7.994  1.00  0.00     0.001 A 
HETATM   29  C   UNL     1      43.886 -10.487   8.933  1.00  0.00     0.009 A 
ENDBRANCH  23  24
ENDBRANCH  22  23
ENDBRANCH   2  22
TORSDOF 6
ENDMDL
MODEL 5
REMARK VINA RESULT:      -8.0      1.907      8.813
REMARK  6 active torsions:
REMARK  status: ('A' for Active; 'I' for Inactive)
REMARK    1  A    between atoms: C_2  and  O_3 
REMARK    2  A    between atoms: O_3  and  C_4 
REMARK    3  A    between atoms: C_5  and  O_6 
REMARK    4  A    between atoms: O_6  and  C_7 
REMARK    5  A    between atoms: C_7  and  C_8 
REMARK    6  A    between atoms: C_16  and  C_17 
ROOT
HETATM    1  C   UNL     1      42.077 -12.710   5.254  1.00  0.00     0.102 A 
HETATM    2  C   UNL     1      43.119 -12.199   6.037  1.00  0.00     0.102 A 
HETATM    3  C   UNL     1      43.995 -13.084   6.672  1.00  0.00     0.040 A 
HETATM    4  C   UNL     1      43.858 -14.465   6.492  1.00  0.00     0.014 A 
HETATM    5  C   UNL     1      42.838 -14.984   5.681  1.00  0.00    -0.007 A 
HETATM    6  C   UNL     1      41.960 -14.088   5.052  1.00  0.00     0.051 A 
ENDROOT
BRANCH   5   7
HETATM    7  C   UNL     1      42.723 -16.474   5.440  1.00  0.00     0.264 C 
HETATM    8  O   UNL     1      43.417 -16.815   4.231  1.00  0.00    -0.321 OA
HETATM    9  C   UNL     1      43.567 -18.164   4.052  1.00  0.00     0.087 A 
HETATM   10  C   UNL     1      43.559 -19.072   5.111  1.00  0.00     0.065 A 
HETATM   11  C   UNL     1      43.783 -18.615   2.752  1.00  0.00     0.038 A 
HETATM   12  C   UNL     1      43.420 -18.548   6.480  1.00  0.00     0.256 C 
HETATM   13  C   UNL     1      43.739 -20.437   4.877  1.00  0.00     0.020 A 
HETATM   14  O   UNL     1      43.474 -19.262   7.469  1.00  0.00    -0.267 OA
HETATM   15  N   UNL     1      43.248 -17.195   6.564  1.00  0.00    -0.326 N 
HETATM   16  H   UNL     1      43.058 -16.851   7.496  1.00  0.00     0.165 HD
HETATM   17  C   UNL     1      43.936 -20.890   3.573  1.00  0.00     0.001 A 
HETATM   18  C   UNL     1      43.962 -19.981   2.512  1.00  0.00     0.003 A 
ENDBRANCH   5   7
BRANCH   1  19
HETATM   19  O   UNL     1      41.250 -11.827   4.608  1.00  0.00    -0.349 OA
BRANCH  19  20
HETATM   20  C   UNL     1      41.128 -12.075   3.204  1.00  0.00     0.171 C 
HETATM   21  C   UNL     1      42.224 -11.321   2.472  1.00  0.00     0.034 C 
ENDBRANCH  19  20
ENDBRANCH   1  19
BRANCH   2  22
HETATM   22  O   UNL     1      43.181 -10.837   6.176  1.00  0.00    -0.344 OA
BRANCH  22  23
HETATM   23  C   UNL     1      42.518 -10.305   7.324  1.00  0.00     0.214 C 
BRANCH  23  24
HETATM   24  C   UNL     1      43.547  -9.974   8.380  1.00  0.00    -0.034 A 
HETATM   25  C   UNL     1      44.879  -9.715   8.028  1.00  0.00     0.009 A 
HETATM   26  C   UNL     1      45.817  -9.375   9.006  1.00  0.00     0.001 A 
HETATM   27  C   UNL     1      45.431  -9.283  10.343  1.00  0.00     0.000 A 
HETATM   28  C   UNL     1      44.109  -9.531  10.703  1.00  0.00     0.001 A 
HETATM   29  C   UNL     1      43.171  -9.872   9.728  1.00  0.00     0.009 A 
ENDBRANCH  23  24
ENDBRANCH  22  23
ENDBRANCH   2  22
TORSDOF 6
ENDMDL
MODEL 6
REMARK VINA RESULT:      -7.9      2.024      8.882
REMARK  6 active torsions:
REMARK  status: ('A' for Active; 'I' for Inactive)
REMARK    1  A    between atoms: C_2  and  O_3 
REMARK    2  A    between atoms: O_3  and  C_4 
REMARK    3  A    between atoms: C_5  and  O_6 
REMARK    4  A    between atoms: O_6  and  C_7 
REMARK    5  A    between atoms: C_7  and  C_8 
REMARK    6  A    between atoms: C_16  and  C_17 
ROOT
HETATM    1  C   UNL     1      42.196 -12.670   5.160  1.00  0.00     0.102 A 
HETATM    2  C   UNL     1      42.710 -12.300   6.409  1.00  0.00     0.102 A 
HETATM    3  C   UNL     1      43.540 -13.189   7.099  1.00  0.00     0.040 A 
HETATM    4  C   UNL     1      43.888 -14.418   6.527  1.00  0.00     0.014 A 
HETATM    5  C   UNL     1      43.407 -14.782   5.261  1.00  0.00    -0.007 A 
HETATM    6  C   UNL     1      42.569 -13.885   4.578  1.00  0.00     0.051 A 
ENDROOT
BRANCH   5   7
HETATM    7  C   UNL     1      43.829 -16.086   4.617  1.00  0.00     0.264 C 
HETATM    8  O   UNL     1      43.536 -17.172   5.509  1.00  0.00    -0.321 OA
HETATM    9  C   UNL     1      43.666 -18.403   4.926  1.00  0.00     0.087 A 
HETATM   10  C   UNL     1      43.556 -18.603   3.550  1.00  0.00     0.065 A 
HETATM   11  C   UNL     1      43.872 -19.491   5.771  1.00  0.00     0.038 A 
HETATM   12  C   UNL     1      43.247 -17.443   2.698  1.00  0.00     0.256 C 
HETATM   13  C   UNL     1      43.674 -19.884   3.007  1.00  0.00     0.020 A 
HETATM   14  O   UNL     1      43.062 -17.538   1.494  1.00  0.00    -0.267 OA
HETATM   15  N   UNL     1      43.162 -16.250   3.357  1.00  0.00    -0.326 N 
HETATM   16  H   UNL     1      43.045 -15.444   2.758  1.00  0.00     0.165 HD
HETATM   17  C   UNL     1      43.898 -20.971   3.852  1.00  0.00     0.001 A 
HETATM   18  C   UNL     1      43.993 -20.775   5.233  1.00  0.00     0.003 A 
ENDBRANCH   5   7
BRANCH   1  19
HETATM   19  O   UNL     1      41.415 -11.771   4.481  1.00  0.00    -0.349 OA
BRANCH  19  20
HETATM   20  C   UNL     1      40.089 -12.241   4.220  1.00  0.00     0.171 C 
HETATM   21  C   UNL     1      39.170 -11.769   5.333  1.00  0.00     0.034 C 
ENDBRANCH  19  20
ENDBRANCH   1  19
BRANCH   2  22
HETATM   22  O   UNL     1      42.313 -11.087   6.908  1.00  0.00    -0.344 OA
BRANCH  22  23
HETATM   23  C   UNL     1      43.338 -10.098   7.008  1.00  0.00     0.214 C 
BRANCH  23  24
HETATM   24  C   UNL     1      43.654  -9.857   8.466  1.00  0.00    -0.034 A 
HETATM   25  C   UNL     1      44.925 -10.148   8.982  1.00  0.00     0.009 A 
HETATM   26  C   UNL     1      45.221  -9.890  10.323  1.00  0.00     0.001 A 
HETATM   27  C   UNL     1      44.255  -9.331  11.157  1.00  0.00     0.000 A 
HETATM   28  C   UNL     1      42.991  -9.031  10.654  1.00  0.00     0.001 A 
HETATM   29  C   UNL     1      42.693  -9.289   9.315  1.00  0.00     0.009 A 
ENDBRANCH  23  24
ENDBRANCH  22  23
ENDBRANCH   2  22
TORSDOF 6
ENDMDL
MODEL 7
REMARK VINA RESULT:      -7.9      2.207      9.085
REMARK  6 active torsions:
REMARK  status: ('A' for Active; 'I' for Inactive)
REMARK    1  A    between atoms: C_2  and  O_3 
REMARK    2  A    between atoms: O_3  and  C_4 
REMARK    3  A    between atoms: C_5  and  O_6 
REMARK    4  A    between atoms: O_6  and  C_7 
REMARK    5  A    between atoms: C_7  and  C_8 
REMARK    6  A    between atoms: C_16  and  C_17 
ROOT
HETATM    1  C   UNL     1      42.020 -11.014   6.249  1.00  0.00     0.102 A 
HETATM    2  C   UNL     1      43.006 -10.890   7.236  1.00  0.00     0.102 A 
HETATM    3  C   UNL     1      44.012 -11.854   7.324  1.00  0.00     0.040 A 
HETATM    4  C   UNL     1      44.060 -12.911   6.406  1.00  0.00     0.014 A 
HETATM    5  C   UNL     1      43.097 -13.023   5.392  1.00  0.00    -0.007 A 
HETATM    6  C   UNL     1      42.086 -12.052   5.316  1.00  0.00     0.051 A 
ENDROOT
BRANCH   5   7
HETATM    7  C   UNL     1      43.180 -14.133   4.366  1.00  0.00     0.264 C 
HETATM    8  O   UNL     1      43.552 -15.357   5.018  1.00  0.00    -0.321 OA
HETATM    9  C   UNL     1      43.428 -16.459   4.216  1.00  0.00     0.087 A 
HETATM   10  C   UNL     1      42.560 -16.506   3.126  1.00  0.00     0.065 A 
HETATM   11  C   UNL     1      44.177 -17.583   4.556  1.00  0.00     0.038 A 
HETATM   12  C   UNL     1      41.717 -15.330   2.853  1.00  0.00     0.256 C 
HETATM   13  C   UNL     1      42.452 -17.664   2.352  1.00  0.00     0.020 A 
HETATM   14  O   UNL     1      40.878 -15.310   1.964  1.00  0.00    -0.267 OA
HETATM   15  N   UNL     1      41.925 -14.266   3.683  1.00  0.00    -0.326 N 
HETATM   16  H   UNL     1      41.415 -13.429   3.434  1.00  0.00     0.165 HD
HETATM   17  C   UNL     1      43.217 -18.783   2.682  1.00  0.00     0.001 A 
HETATM   18  C   UNL     1      44.075 -18.744   3.784  1.00  0.00     0.003 A 
ENDBRANCH   5   7
BRANCH   1  19
HETATM   19  O   UNL     1      41.062 -10.038   6.153  1.00  0.00    -0.349 OA
BRANCH  19  20
HETATM   20  C   UNL     1      39.741 -10.495   6.459  1.00  0.00     0.171 C 
HETATM   21  C   UNL     1      39.367 -10.027   7.855  1.00  0.00     0.034 C 
ENDBRANCH  19  20
ENDBRANCH   1  19
BRANCH   2  22
HETATM   22  O   UNL     1      42.884  -9.836   8.104  1.00  0.00    -0.344 OA
BRANCH  22  23
HETATM   23  C   UNL     1      44.034  -9.563   8.905  1.00  0.00     0.214 C 
BRANCH  23  24
HETATM   24  C   UNL     1      43.606  -9.385  10.343  1.00  0.00    -0.034 A 
HETATM   25  C   UNL     1      43.401  -8.105  10.877  1.00  0.00     0.009 A 
HETATM   26  C   UNL     1      42.970  -7.948  12.197  1.00  0.00     0.001 A 
HETATM   27  C   UNL     1      42.733  -9.069  12.992  1.00  0.00     0.000 A 
HETATM   28  C   UNL     1      42.927 -10.345  12.471  1.00  0.00     0.001 A 
HETATM   29  C   UNL     1      43.358 -10.503  11.153  1.00  0.00     0.009 A 
ENDBRANCH  23  24
ENDBRANCH  22  23
ENDBRANCH   2  22
TORSDOF 6
ENDMDL
MODEL 8
REMARK VINA RESULT:      -7.8      4.312      8.939
REMARK  6 active torsions:
REMARK  status: ('A' for Active; 'I' for Inactive)
REMARK    1  A    between atoms: C_2  and  O_3 
REMARK    2  A    between atoms: O_3  and  C_4 
REMARK    3  A    between atoms: C_5  and  O_6 
REMARK    4  A    between atoms: O_6  and  C_7 
REMARK    5  A    between atoms: C_7  and  C_8 
REMARK    6  A    between atoms: C_16  and  C_17 
ROOT
HETATM    1  C   UNL     1      41.400 -12.479   1.626  1.00  0.00     0.102 A 
HETATM    2  C   UNL     1      40.688 -12.687   0.438  1.00  0.00     0.102 A 
HETATM    3  C   UNL     1      40.433 -13.993   0.012  1.00  0.00     0.040 A 
HETATM    4  C   UNL     1      40.849 -15.083   0.786  1.00  0.00     0.014 A 
HETATM    5  C   UNL     1      41.531 -14.883   1.995  1.00  0.00    -0.007 A 
HETATM    6  C   UNL     1      41.787 -13.568   2.413  1.00  0.00     0.051 A 
ENDROOT
BRANCH   5   7
HETATM    7  C   UNL     1      41.931 -16.059   2.861  1.00  0.00     0.264 C 
HETATM    8  O   UNL     1      42.395 -17.129   2.025  1.00  0.00    -0.321 OA
HETATM    9  C   UNL     1      42.993 -18.144   2.723  1.00  0.00     0.087 A 
HETATM   10  C   UNL     1      43.576 -17.958   3.976  1.00  0.00     0.065 A 
HETATM   11  C   UNL     1      43.048 -19.394   2.110  1.00  0.00     0.038 A 
HETATM   12  C   UNL     1      43.579 -16.602   4.551  1.00  0.00     0.256 C 
HETATM   13  C   UNL     1      44.195 -19.021   4.636  1.00  0.00     0.020 A 
HETATM   14  O   UNL     1      44.130 -16.334   5.608  1.00  0.00    -0.267 OA
HETATM   15  N   UNL     1      42.937 -15.657   3.802  1.00  0.00    -0.326 N 
HETATM   16  H   UNL     1      42.858 -14.751   4.243  1.00  0.00     0.165 HD
HETATM   17  C   UNL     1      44.233 -20.277   4.031  1.00  0.00     0.001 A 
HETATM   18  C   UNL     1      43.664 -20.462   2.768  1.00  0.00     0.003 A 
ENDBRANCH   5   7
BRANCH   1  19
HETATM   19  O   UNL     1      41.607 -11.192   2.049  1.00  0.00    -0.349 OA
BRANCH  19  20
HETATM   20  C   UNL     1      41.338 -10.992   3.440  1.00  0.00     0.171 C 
HETATM   21  C   UNL     1      42.625 -10.588   4.139  1.00  0.00     0.034 C 
ENDBRANCH  19  20
ENDBRANCH   1  19
BRANCH   2  22
HETATM   22  O   UNL     1      40.326 -11.571  -0.271  1.00  0.00    -0.344 OA
BRANCH  22  23
HETATM   23  C   UNL     1      40.669 -11.584  -1.656  1.00  0.00     0.214 C 
BRANCH  23  24
HETATM   24  C   UNL     1      41.218 -10.231  -2.044  1.00  0.00    -0.034 A 
HETATM   25  C   UNL     1      42.099  -9.544  -1.196  1.00  0.00     0.009 A 
HETATM   26  C   UNL     1      42.630  -8.309  -1.577  1.00  0.00     0.001 A 
HETATM   27  C   UNL     1      42.292  -7.753  -2.810  1.00  0.00     0.000 A 
HETATM   28  C   UNL     1      41.424  -8.429  -3.663  1.00  0.00     0.001 A 
HETATM   29  C   UNL     1      40.892  -9.662  -3.284  1.00  0.00     0.009 A 
ENDBRANCH  23  24
ENDBRANCH  22  23
ENDBRANCH   2  22
TORSDOF 6
ENDMDL
MODEL 9
REMARK VINA RESULT:      -7.8      7.136     11.032
REMARK  6 active torsions:
REMARK  status: ('A' for Active; 'I' for Inactive)
REMARK    1  A    between atoms: C_2  and  O_3 
REMARK    2  A    between atoms: O_3  and  C_4 
REMARK    3  A    between atoms: C_5  and  O_6 
REMARK    4  A    between atoms: O_6  and  C_7 
REMARK    5  A    between atoms: C_7  and  C_8 
REMARK    6  A    between atoms: C_16  and  C_17 
ROOT
HETATM    1  C   UNL     1      41.634  -9.358  13.067  1.00  0.00     0.102 A 
HETATM    2  C   UNL     1      42.663  -8.844  12.268  1.00  0.00     0.102 A 
HETATM    3  C   UNL     1      43.452  -7.799  12.756  1.00  0.00     0.040 A 
HETATM    4  C   UNL     1      43.243  -7.300  14.048  1.00  0.00     0.014 A 
HETATM    5  C   UNL     1      42.238  -7.833  14.868  1.00  0.00    -0.007 A 
HETATM    6  C   UNL     1      41.447  -8.879  14.367  1.00  0.00     0.051 A 
ENDROOT
BRANCH   5   7
HETATM    7  C   UNL     1      42.049  -7.334  16.285  1.00  0.00     0.264 C 
HETATM    8  O   UNL     1      41.842  -5.914  16.264  1.00  0.00    -0.321 OA
HETATM    9  C   UNL     1      41.433  -5.407  17.468  1.00  0.00     0.087 A 
HETATM   10  C   UNL     1      40.776  -6.176  18.428  1.00  0.00     0.065 A 
HETATM   11  C   UNL     1      41.653  -4.050  17.697  1.00  0.00     0.038 A 
HETATM   12  C   UNL     1      40.479  -7.583  18.112  1.00  0.00     0.256 C 
HETATM   13  C   UNL     1      40.358  -5.605  19.632  1.00  0.00     0.020 A 
HETATM   14  O   UNL     1      39.845  -8.309  18.863  1.00  0.00    -0.267 OA
HETATM   15  N   UNL     1      40.947  -8.014  16.903  1.00  0.00    -0.326 N 
HETATM   16  H   UNL     1      40.825  -9.003  16.731  1.00  0.00     0.165 HD
HETATM   17  C   UNL     1      40.596  -4.251  19.869  1.00  0.00     0.001 A 
HETATM   18  C   UNL     1      41.239  -3.474  18.901  1.00  0.00     0.003 A 
ENDBRANCH   5   7
BRANCH   1  19
HETATM   19  O   UNL     1      40.895 -10.409  12.588  1.00  0.00    -0.349 OA
BRANCH  19  20
HETATM   20  C   UNL     1      39.551 -10.059  12.244  1.00  0.00     0.171 C 
HETATM   21  C   UNL     1      39.441  -9.944  10.734  1.00  0.00     0.034 C 
ENDBRANCH  19  20
ENDBRANCH   1  19
BRANCH   2  22
HETATM   22  O   UNL     1      42.797  -9.375  11.012  1.00  0.00    -0.344 OA
BRANCH  22  23
HETATM   23  C   UNL     1      43.345  -8.498  10.028  1.00  0.00     0.214 C 
BRANCH  23  24
HETATM   24  C   UNL     1      44.289  -9.275   9.141  1.00  0.00    -0.034 A 
HETATM   25  C   UNL     1      43.932 -10.538   8.646  1.00  0.00     0.009 A 
HETATM   26  C   UNL     1      44.796 -11.236   7.798  1.00  0.00     0.001 A 
HETATM   27  C   UNL     1      46.018 -10.677   7.431  1.00  0.00     0.000 A 
HETATM   28  C   UNL     1      46.381  -9.420   7.911  1.00  0.00     0.001 A 
HETATM   29  C   UNL     1      45.520  -8.722   8.759  1.00  0.00     0.009 A 
ENDBRANCH  23  24
ENDBRANCH  22  23
ENDBRANCH   2  22
TORSDOF 6
ENDMDL
MODEL 10
REMARK VINA RESULT:      -7.6      4.902      6.747
REMARK  6 active torsions:
REMARK  status: ('A' for Active; 'I' for Inactive)
REMARK    1  A    between atoms: C_2  and  O_3 
REMARK    2  A    between atoms: O_3  and  C_4 
REMARK    3  A    between atoms: C_5  and  O_6 
REMARK    4  A    between atoms: O_6  and  C_7 
REMARK    5  A    between atoms: C_7  and  C_8 
REMARK    6  A    between atoms: C_16  and  C_17 
ROOT
HETATM    1  C   UNL     1      40.703 -14.259   3.413  1.00  0.00     0.102 A 
HETATM    2  C   UNL     1      41.271 -15.426   2.890  1.00  0.00     0.102 A 
HETATM    3  C   UNL     1      41.135 -15.703   1.527  1.00  0.00     0.040 A 
HETATM    4  C   UNL     1      40.474 -14.800   0.685  1.00  0.00     0.014 A 
HETATM    5  C   UNL     1      39.933 -13.610   1.195  1.00  0.00    -0.007 A 
HETATM    6  C   UNL     1      40.070 -13.344   2.567  1.00  0.00     0.051 A 
ENDROOT
BRANCH   5   7
HETATM    7  C   UNL     1      39.268 -12.607   0.276  1.00  0.00     0.264 C 
HETATM    8  O   UNL     1      38.245 -11.906   0.999  1.00  0.00    -0.321 OA
HETATM    9  C   UNL     1      37.748 -10.824   0.325  1.00  0.00     0.087 A 
HETATM   10  C   UNL     1      38.472 -10.148  -0.657  1.00  0.00     0.065 A 
HETATM   11  C   UNL     1      36.482 -10.371   0.689  1.00  0.00     0.038 A 
HETATM   12  C   UNL     1      39.842 -10.599  -0.950  1.00  0.00     0.256 C 
HETATM   13  C   UNL     1      37.928  -9.034  -1.300  1.00  0.00     0.020 A 
HETATM   14  O   UNL     1      40.572 -10.023  -1.742  1.00  0.00    -0.267 OA
HETATM   15  N   UNL     1      40.247 -11.702  -0.253  1.00  0.00    -0.326 N 
HETATM   16  H   UNL     1      41.151 -12.065  -0.525  1.00  0.00     0.165 HD
HETATM   17  C   UNL     1      36.652  -8.593  -0.949  1.00  0.00     0.001 A 
HETATM   18  C   UNL     1      35.932  -9.258   0.047  1.00  0.00     0.003 A 
ENDBRANCH   5   7
BRANCH   1  19
HETATM   19  O   UNL     1      40.878 -13.984   4.745  1.00  0.00    -0.349 OA
BRANCH  19  20
HETATM   20  C   UNL     1      41.594 -12.770   4.994  1.00  0.00     0.171 C 
HETATM   21  C   UNL     1      43.075 -13.085   5.106  1.00  0.00     0.034 C 
ENDBRANCH  19  20
ENDBRANCH   1  19
BRANCH   2  22
HETATM   22  O   UNL     1      41.891 -16.266   3.779  1.00  0.00    -0.344 OA
BRANCH  22  23
HETATM   23  C   UNL     1      43.256 -16.569   3.489  1.00  0.00     0.214 C 
BRANCH  23  24
HETATM   24  C   UNL     1      43.430 -18.069   3.433  1.00  0.00    -0.034 A 
HETATM   25  C   UNL     1      43.101 -18.785   2.273  1.00  0.00     0.009 A 
HETATM   26  C   UNL     1      43.298 -20.167   2.215  1.00  0.00     0.001 A 
HETATM   27  C   UNL     1      43.831 -20.844   3.311  1.00  0.00     0.000 A 
HETATM   28  C   UNL     1      44.168 -20.142   4.465  1.00  0.00     0.001 A 
HETATM   29  C   UNL     1      43.971 -18.762   4.526  1.00  0.00     0.009 A 
ENDBRANCH  23  24
ENDBRANCH  22  23
ENDBRANCH   2  22
TORSDOF 6
ENDMDL
