MODEL 1
REMARK VINA RESULT:      -8.3      0.000      0.000
REMARK  6 active torsions:
REMARK  status: ('A' for Active; 'I' for Inactive)
REMARK    1  A    between atoms: C_3  and  C_4 
REMARK    2  A    between atoms: C_4  and  O_5 
REMARK    3  A    between atoms: O_5  and  C_6 
REMARK    4  A    between atoms: C_9  and  C_10 
REMARK       I    between atoms: C_10  and  N_11 
REMARK    5  A    between atoms: N_11  and  N_12 
REMARK       I    between atoms: N_12  and  C_13 
REMARK    6  A    between atoms: C_13  and  C_14 
ROOT
HETATM    1  C   UNL     1      43.645 -20.907   2.896  1.00  0.00     0.001 A 
HETATM    2  C   UNL     1      43.460 -19.668   2.281  1.00  0.00     0.011 A 
HETATM    3  C   UNL     1      43.611 -18.470   3.004  1.00  0.00    -0.013 A 
HETATM    4  C   UNL     1      43.996 -18.549   4.358  1.00  0.00     0.053 A 
HETATM    5  C   UNL     1      44.221 -17.371   5.147  1.00  0.00     0.100 C 
HETATM    6  N   UNL     1      44.407 -16.407   5.766  1.00  0.00    -0.191 NA
HETATM    7  C   UNL     1      44.176 -19.800   4.969  1.00  0.00     0.023 A 
HETATM    8  C   UNL     1      43.998 -20.975   4.240  1.00  0.00     0.002 A 
ENDROOT
BRANCH   3   9
HETATM    9  C   UNL     1      43.423 -17.130   2.313  1.00  0.00     0.216 C 
BRANCH   9  10
HETATM   10  O   UNL     1      42.077 -16.671   2.479  1.00  0.00    -0.347 OA
BRANCH  10  11
HETATM   11  C   UNL     1      41.915 -15.568   3.273  1.00  0.00     0.069 A 
HETATM   12  C   UNL     1      42.616 -14.370   3.139  1.00  0.00     0.038 A 
HETATM   13  C   UNL     1      42.384 -13.323   4.039  1.00  0.00     0.020 A 
HETATM   14  C   UNL     1      41.441 -13.458   5.067  1.00  0.00     0.033 A 
HETATM   15  C   UNL     1      40.722 -14.654   5.182  1.00  0.00     0.020 A 
HETATM   16  C   UNL     1      40.956 -15.697   4.279  1.00  0.00     0.038 A 
BRANCH  14  17
HETATM   17  C   UNL     1      41.283 -12.328   6.026  1.00  0.00     0.270 C 
HETATM   18  N   UNL     1      42.434 -11.798   6.569  1.00  0.00    -0.263 N 
HETATM   19  H   UNL     1      43.370 -12.179   6.459  1.00  0.00     0.190 HD
HETATM   20  O   UNL     1      40.167 -11.902   6.314  1.00  0.00    -0.266 OA
BRANCH  18  21
HETATM   21  N   UNL     1      42.301 -10.723   7.453  1.00  0.00    -0.262 N 
HETATM   22  C   UNL     1      43.433 -10.122   7.960  1.00  0.00     0.286 C 
HETATM   23  O   UNL     1      44.561 -10.545   7.705  1.00  0.00    -0.264 OA
HETATM   24  H   UNL     1      41.357 -10.393   7.627  1.00  0.00     0.190 HD
BRANCH  22  25
HETATM   25  C   UNL     1      43.202  -8.969   8.802  1.00  0.00     0.102 A 
HETATM   26  N   UNL     1      42.252  -8.990   9.803  1.00  0.00    -0.361 N 
HETATM   27  H   UNL     1      41.668  -9.793  10.006  1.00  0.00     0.165 HD
HETATM   28  C   UNL     1      42.225  -7.789  10.459  1.00  0.00     0.088 A 
HETATM   29  C   UNL     1      43.171  -6.974   9.883  1.00  0.00     0.019 A 
HETATM   30  C   UNL     1      43.785  -7.713   8.842  1.00  0.00     0.036 A 
ENDBRANCH  22  25
ENDBRANCH  18  21
ENDBRANCH  14  17
ENDBRANCH  10  11
ENDBRANCH   9  10
ENDBRANCH   3   9
TORSDOF 6
ENDMDL
MODEL 2
REMARK VINA RESULT:      -8.2      1.978      2.360
REMARK  6 active torsions:
REMARK  status: ('A' for Active; 'I' for Inactive)
REMARK    1  A    between atoms: C_3  and  C_4 
REMARK    2  A    between atoms: C_4  and  O_5 
REMARK    3  A    between atoms: O_5  and  C_6 
REMARK    4  A    between atoms: C_9  and  C_10 
REMARK       I    between atoms: C_10  and  N_11 
REMARK    5  A    between atoms: N_11  and  N_12 
REMARK       I    between atoms: N_12  and  C_13 
REMARK    6  A    between atoms: C_13  and  C_14 
ROOT
HETATM    1  C   UNL     1      43.563 -20.557   2.632  1.00  0.00     0.001 A 
HETATM    2  C   UNL     1      43.324 -19.242   2.229  1.00  0.00     0.011 A 
HETATM    3  C   UNL     1      43.526 -18.165   3.112  1.00  0.00    -0.013 A 
HETATM    4  C   UNL     1      44.018 -18.441   4.404  1.00  0.00     0.053 A 
HETATM    5  C   UNL     1      44.299 -17.392   5.342  1.00  0.00     0.100 C 
HETATM    6  N   UNL     1      44.529 -16.530   6.085  1.00  0.00    -0.191 NA
HETATM    7  C   UNL     1      44.253 -19.767   4.802  1.00  0.00     0.023 A 
HETATM    8  C   UNL     1      44.023 -20.821   3.919  1.00  0.00     0.002 A 
ENDROOT
BRANCH   3   9
HETATM    9  C   UNL     1      43.277 -16.739   2.649  1.00  0.00     0.216 C 
BRANCH   9  10
HETATM   10  O   UNL     1      41.966 -16.314   3.037  1.00  0.00    -0.347 OA
BRANCH  10  11
HETATM   11  C   UNL     1      41.901 -15.143   3.742  1.00  0.00     0.069 A 
HETATM   12  C   UNL     1      42.864 -14.136   3.721  1.00  0.00     0.038 A 
HETATM   13  C   UNL     1      42.699 -12.997   4.517  1.00  0.00     0.020 A 
HETATM   14  C   UNL     1      41.564 -12.847   5.326  1.00  0.00     0.033 A 
HETATM   15  C   UNL     1      40.587 -13.849   5.324  1.00  0.00     0.020 A 
HETATM   16  C   UNL     1      40.756 -14.985   4.525  1.00  0.00     0.038 A 
BRANCH  14  17
HETATM   17  C   UNL     1      41.477 -11.637   6.192  1.00  0.00     0.270 C 
HETATM   18  N   UNL     1      40.256 -11.364   6.772  1.00  0.00    -0.263 N 
HETATM   19  H   UNL     1      39.386 -11.850   6.573  1.00  0.00     0.190 HD
HETATM   20  O   UNL     1      42.460 -10.921   6.368  1.00  0.00    -0.266 OA
BRANCH  18  21
HETATM   21  N   UNL     1      40.166 -10.244   7.604  1.00  0.00    -0.262 N 
HETATM   22  C   UNL     1      39.210 -10.215   8.595  1.00  0.00     0.286 C 
HETATM   23  O   UNL     1      38.387 -11.121   8.729  1.00  0.00    -0.264 OA
HETATM   24  H   UNL     1      40.871  -9.524   7.473  1.00  0.00     0.190 HD
BRANCH  22  25
HETATM   25  C   UNL     1      39.242  -9.054   9.457  1.00  0.00     0.102 A 
HETATM   26  N   UNL     1      39.058  -9.167  10.820  1.00  0.00    -0.361 N 
HETATM   27  H   UNL     1      38.889 -10.048  11.293  1.00  0.00     0.165 HD
HETATM   28  C   UNL     1      39.137  -7.937  11.415  1.00  0.00     0.088 A 
HETATM   29  C   UNL     1      39.380  -7.009  10.430  1.00  0.00     0.019 A 
HETATM   30  C   UNL     1      39.445  -7.707   9.200  1.00  0.00     0.036 A 
ENDBRANCH  22  25
ENDBRANCH  18  21
ENDBRANCH  14  17
ENDBRANCH  10  11
ENDBRANCH   9  10
ENDBRANCH   3   9
TORSDOF 6
ENDMDL
MODEL 3
REMARK VINA RESULT:      -8.2      4.715      7.052
REMARK  6 active torsions:
REMARK  status: ('A' for Active; 'I' for Inactive)
REMARK    1  A    between atoms: C_3  and  C_4 
REMARK    2  A    between atoms: C_4  and  O_5 
REMARK    3  A    between atoms: O_5  and  C_6 
REMARK    4  A    between atoms: C_9  and  C_10 
REMARK       I    between atoms: C_10  and  N_11 
REMARK    5  A    between atoms: N_11  and  N_12 
REMARK       I    between atoms: N_12  and  C_13 
REMARK    6  A    between atoms: C_13  and  C_14 
ROOT
HETATM    1  C   UNL     1      43.961 -20.850   4.638  1.00  0.00     0.001 A 
HETATM    2  C   UNL     1      44.087 -19.600   5.246  1.00  0.00     0.011 A 
HETATM    3  C   UNL     1      43.987 -18.415   4.494  1.00  0.00    -0.013 A 
HETATM    4  C   UNL     1      43.713 -18.517   3.115  1.00  0.00     0.053 A 
HETATM    5  C   UNL     1      43.544 -17.353   2.292  1.00  0.00     0.100 C 
HETATM    6  N   UNL     1      43.402 -16.401   1.644  1.00  0.00    -0.191 NA
HETATM    7  C   UNL     1      43.591 -19.779   2.512  1.00  0.00     0.023 A 
HETATM    8  C   UNL     1      43.718 -20.941   3.271  1.00  0.00     0.002 A 
ENDROOT
BRANCH   3   9
HETATM    9  C   UNL     1      44.109 -17.063   5.177  1.00  0.00     0.216 C 
BRANCH   9  10
HETATM   10  O   UNL     1      42.846 -16.665   5.721  1.00  0.00    -0.347 OA
BRANCH  10  11
HETATM   11  C   UNL     1      42.099 -15.822   4.944  1.00  0.00     0.069 A 
HETATM   12  C   UNL     1      40.836 -16.108   4.429  1.00  0.00     0.038 A 
HETATM   13  C   UNL     1      40.186 -15.172   3.616  1.00  0.00     0.020 A 
HETATM   14  C   UNL     1      40.785 -13.938   3.325  1.00  0.00     0.033 A 
HETATM   15  C   UNL     1      42.042 -13.645   3.865  1.00  0.00     0.020 A 
HETATM   16  C   UNL     1      42.687 -14.583   4.679  1.00  0.00     0.038 A 
BRANCH  14  17
HETATM   17  C   UNL     1      40.066 -13.010   2.407  1.00  0.00     0.270 C 
HETATM   18  N   UNL     1      39.450 -13.565   1.305  1.00  0.00    -0.263 N 
HETATM   19  H   UNL     1      39.535 -14.533   1.006  1.00  0.00     0.190 HD
HETATM   20  O   UNL     1      40.037 -11.803   2.634  1.00  0.00    -0.266 OA
BRANCH  18  21
HETATM   21  N   UNL     1      38.754 -12.709   0.448  1.00  0.00    -0.262 N 
HETATM   22  C   UNL     1      39.228 -12.499  -0.828  1.00  0.00     0.286 C 
HETATM   23  O   UNL     1      40.286 -12.997  -1.217  1.00  0.00    -0.264 OA
HETATM   24  H   UNL     1      37.879 -12.329   0.798  1.00  0.00     0.190 HD
BRANCH  22  25
HETATM   25  C   UNL     1      38.403 -11.663  -1.670  1.00  0.00     0.102 A 
HETATM   26  N   UNL     1      37.220 -12.129  -2.207  1.00  0.00    -0.361 N 
HETATM   27  H   UNL     1      36.864 -13.065  -2.053  1.00  0.00     0.165 HD
HETATM   28  C   UNL     1      36.621 -11.155  -2.960  1.00  0.00     0.088 A 
HETATM   29  C   UNL     1      37.420 -10.036  -2.912  1.00  0.00     0.019 A 
HETATM   30  C   UNL     1      38.539 -10.353  -2.103  1.00  0.00     0.036 A 
ENDBRANCH  22  25
ENDBRANCH  18  21
ENDBRANCH  14  17
ENDBRANCH  10  11
ENDBRANCH   9  10
ENDBRANCH   3   9
TORSDOF 6
ENDMDL
MODEL 4
REMARK VINA RESULT:      -7.9      2.467      3.820
REMARK  6 active torsions:
REMARK  status: ('A' for Active; 'I' for Inactive)
REMARK    1  A    between atoms: C_3  and  C_4 
REMARK    2  A    between atoms: C_4  and  O_5 
REMARK    3  A    between atoms: O_5  and  C_6 
REMARK    4  A    between atoms: C_9  and  C_10 
REMARK       I    between atoms: C_10  and  N_11 
REMARK    5  A    between atoms: N_11  and  N_12 
REMARK       I    between atoms: N_12  and  C_13 
REMARK    6  A    between atoms: C_13  and  C_14 
ROOT
HETATM    1  C   UNL     1      44.371 -18.420   4.232  1.00  0.00     0.001 A 
HETATM    2  C   UNL     1      43.839 -17.248   4.773  1.00  0.00     0.011 A 
HETATM    3  C   UNL     1      42.856 -16.514   4.085  1.00  0.00    -0.013 A 
HETATM    4  C   UNL     1      42.389 -17.011   2.851  1.00  0.00     0.053 A 
HETATM    5  C   UNL     1      41.350 -16.347   2.116  1.00  0.00     0.100 C 
HETATM    6  N   UNL     1      40.503 -15.801   1.540  1.00  0.00    -0.191 NA
HETATM    7  C   UNL     1      42.932 -18.189   2.314  1.00  0.00     0.023 A 
HETATM    8  C   UNL     1      43.922 -18.888   3.001  1.00  0.00     0.002 A 
ENDROOT
BRANCH   3   9
HETATM    9  C   UNL     1      42.276 -15.250   4.698  1.00  0.00     0.216 C 
BRANCH   9  10
HETATM   10  O   UNL     1      43.110 -14.126   4.400  1.00  0.00    -0.347 OA
BRANCH  10  11
HETATM   11  C   UNL     1      43.083 -13.103   5.308  1.00  0.00     0.069 A 
HETATM   12  C   UNL     1      42.259 -11.980   5.233  1.00  0.00     0.038 A 
HETATM   13  C   UNL     1      42.350 -10.982   6.209  1.00  0.00     0.020 A 
HETATM   14  C   UNL     1      43.251 -11.104   7.276  1.00  0.00     0.033 A 
HETATM   15  C   UNL     1      44.058 -12.244   7.362  1.00  0.00     0.020 A 
HETATM   16  C   UNL     1      43.962 -13.241   6.384  1.00  0.00     0.038 A 
BRANCH  14  17
HETATM   17  C   UNL     1      43.339  -9.980   8.250  1.00  0.00     0.270 C 
HETATM   18  N   UNL     1      43.038 -10.261   9.566  1.00  0.00    -0.263 N 
HETATM   19  H   UNL     1      42.657 -11.138   9.911  1.00  0.00     0.190 HD
HETATM   20  O   UNL     1      43.662  -8.854   7.879  1.00  0.00    -0.266 OA
BRANCH  18  21
HETATM   21  N   UNL     1      43.138  -9.219  10.493  1.00  0.00    -0.262 N 
HETATM   22  C   UNL     1      42.136  -9.045  11.423  1.00  0.00     0.286 C 
HETATM   23  O   UNL     1      41.121  -9.743  11.421  1.00  0.00    -0.264 OA
HETATM   24  H   UNL     1      43.996  -8.675  10.474  1.00  0.00     0.190 HD
BRANCH  22  25
HETATM   25  C   UNL     1      42.361  -7.995  12.391  1.00  0.00     0.102 A 
HETATM   26  N   UNL     1      42.001  -6.688  12.131  1.00  0.00    -0.361 N 
HETATM   27  H   UNL     1      41.569  -6.387  11.265  1.00  0.00     0.165 HD
HETATM   28  C   UNL     1      42.311  -5.888  13.196  1.00  0.00     0.088 A 
HETATM   29  C   UNL     1      42.876  -6.680  14.168  1.00  0.00     0.019 A 
HETATM   30  C   UNL     1      42.910  -8.004  13.664  1.00  0.00     0.036 A 
ENDBRANCH  22  25
ENDBRANCH  18  21
ENDBRANCH  14  17
ENDBRANCH  10  11
ENDBRANCH   9  10
ENDBRANCH   3   9
TORSDOF 6
ENDMDL
MODEL 5
REMARK VINA RESULT:      -7.8      2.203      3.539
REMARK  6 active torsions:
REMARK  status: ('A' for Active; 'I' for Inactive)
REMARK    1  A    between atoms: C_3  and  C_4 
REMARK    2  A    between atoms: C_4  and  O_5 
REMARK    3  A    between atoms: O_5  and  C_6 
REMARK    4  A    between atoms: C_9  and  C_10 
REMARK       I    between atoms: C_10  and  N_11 
REMARK    5  A    between atoms: N_11  and  N_12 
REMARK       I    between atoms: N_12  and  C_13 
REMARK    6  A    between atoms: C_13  and  C_14 
ROOT
HETATM    1  C   UNL     1      43.114 -17.784   2.115  1.00  0.00     0.001 A 
HETATM    2  C   UNL     1      42.584 -16.625   2.683  1.00  0.00     0.011 A 
HETATM    3  C   UNL     1      42.827 -16.300   4.030  1.00  0.00    -0.013 A 
HETATM    4  C   UNL     1      43.657 -17.154   4.785  1.00  0.00     0.053 A 
HETATM    5  C   UNL     1      43.996 -16.862   6.149  1.00  0.00     0.100 C 
HETATM    6  N   UNL     1      44.265 -16.605   7.249  1.00  0.00    -0.191 NA
HETATM    7  C   UNL     1      44.184 -18.320   4.206  1.00  0.00     0.023 A 
HETATM    8  C   UNL     1      43.910 -18.635   2.877  1.00  0.00     0.002 A 
ENDROOT
BRANCH   3   9
HETATM    9  C   UNL     1      42.256 -15.024   4.625  1.00  0.00     0.216 C 
BRANCH   9  10
HETATM   10  O   UNL     1      43.123 -13.918   4.352  1.00  0.00    -0.347 OA
BRANCH  10  11
HETATM   11  C   UNL     1      43.194 -12.959   5.325  1.00  0.00     0.069 A 
HETATM   12  C   UNL     1      43.929 -13.061   6.505  1.00  0.00     0.038 A 
HETATM   13  C   UNL     1      43.893 -12.022   7.442  1.00  0.00     0.020 A 
HETATM   14  C   UNL     1      43.137 -10.867   7.200  1.00  0.00     0.033 A 
HETATM   15  C   UNL     1      42.420 -10.757   6.003  1.00  0.00     0.020 A 
HETATM   16  C   UNL     1      42.461 -11.798   5.069  1.00  0.00     0.038 A 
BRANCH  14  17
HETATM   17  C   UNL     1      43.095  -9.823   8.263  1.00  0.00     0.270 C 
HETATM   18  N   UNL     1      42.217 -10.022   9.308  1.00  0.00    -0.263 N 
HETATM   19  H   UNL     1      41.521 -10.760   9.362  1.00  0.00     0.190 HD
HETATM   20  O   UNL     1      43.815  -8.830   8.194  1.00  0.00    -0.266 OA
BRANCH  18  21
HETATM   21  N   UNL     1      42.184  -9.061  10.322  1.00  0.00    -0.262 N 
HETATM   22  C   UNL     1      42.455  -9.439  11.619  1.00  0.00     0.286 C 
HETATM   23  O   UNL     1      42.664 -10.614  11.922  1.00  0.00    -0.264 OA
HETATM   24  H   UNL     1      42.023  -8.101  10.033  1.00  0.00     0.190 HD
BRANCH  22  25
HETATM   25  C   UNL     1      42.477  -8.367  12.589  1.00  0.00     0.102 A 
HETATM   26  N   UNL     1      41.310  -7.782  13.040  1.00  0.00    -0.361 N 
HETATM   27  H   UNL     1      40.387  -8.058  12.726  1.00  0.00     0.165 HD
HETATM   28  C   UNL     1      41.591  -6.800  13.950  1.00  0.00     0.088 A 
HETATM   29  C   UNL     1      42.956  -6.743  14.101  1.00  0.00     0.019 A 
HETATM   30  C   UNL     1      43.515  -7.725  13.246  1.00  0.00     0.036 A 
ENDBRANCH  22  25
ENDBRANCH  18  21
ENDBRANCH  14  17
ENDBRANCH  10  11
ENDBRANCH   9  10
ENDBRANCH   3   9
TORSDOF 6
ENDMDL
MODEL 6
REMARK VINA RESULT:      -7.8      2.899      3.425
REMARK  6 active torsions:
REMARK  status: ('A' for Active; 'I' for Inactive)
REMARK    1  A    between atoms: C_3  and  C_4 
REMARK    2  A    between atoms: C_4  and  O_5 
REMARK    3  A    between atoms: O_5  and  C_6 
REMARK    4  A    between atoms: C_9  and  C_10 
REMARK       I    between atoms: C_10  and  N_11 
REMARK    5  A    between atoms: N_11  and  N_12 
REMARK       I    between atoms: N_12  and  C_13 
REMARK    6  A    between atoms: C_13  and  C_14 
ROOT
HETATM    1  C   UNL     1      43.915 -20.864   3.644  1.00  0.00     0.001 A 
HETATM    2  C   UNL     1      44.196 -19.884   4.597  1.00  0.00     0.011 A 
HETATM    3  C   UNL     1      44.027 -18.519   4.305  1.00  0.00    -0.013 A 
HETATM    4  C   UNL     1      43.525 -18.162   3.036  1.00  0.00     0.053 A 
HETATM    5  C   UNL     1      43.275 -16.794   2.682  1.00  0.00     0.100 C 
HETATM    6  N   UNL     1      43.071 -15.682   2.417  1.00  0.00    -0.191 NA
HETATM    7  C   UNL     1      43.248 -19.155   2.083  1.00  0.00     0.023 A 
HETATM    8  C   UNL     1      43.445 -20.501   2.385  1.00  0.00     0.002 A 
ENDROOT
BRANCH   3   9
HETATM    9  C   UNL     1      44.322 -17.467   5.361  1.00  0.00     0.216 C 
BRANCH   9  10
HETATM   10  O   UNL     1      43.233 -17.375   6.286  1.00  0.00    -0.347 OA
BRANCH  10  11
HETATM   11  C   UNL     1      42.483 -16.233   6.215  1.00  0.00     0.069 A 
HETATM   12  C   UNL     1      41.097 -16.169   6.351  1.00  0.00     0.038 A 
HETATM   13  C   UNL     1      40.439 -14.941   6.223  1.00  0.00     0.020 A 
HETATM   14  C   UNL     1      41.160 -13.765   5.975  1.00  0.00     0.033 A 
HETATM   15  C   UNL     1      42.554 -13.829   5.864  1.00  0.00     0.020 A 
HETATM   16  C   UNL     1      43.207 -15.059   5.995  1.00  0.00     0.038 A 
BRANCH  14  17
HETATM   17  C   UNL     1      40.395 -12.499   5.792  1.00  0.00     0.270 C 
HETATM   18  N   UNL     1      39.997 -11.833   6.932  1.00  0.00    -0.263 N 
HETATM   19  H   UNL     1      40.084 -12.184   7.882  1.00  0.00     0.190 HD
HETATM   20  O   UNL     1      40.133 -12.083   4.666  1.00  0.00    -0.266 OA
BRANCH  18  21
HETATM   21  N   UNL     1      39.297 -10.634   6.774  1.00  0.00    -0.262 N 
HETATM   22  C   UNL     1      39.915  -9.444   7.094  1.00  0.00     0.286 C 
HETATM   23  O   UNL     1      41.048  -9.411   7.575  1.00  0.00    -0.264 OA
HETATM   24  H   UNL     1      38.371 -10.699   6.361  1.00  0.00     0.190 HD
BRANCH  22  25
HETATM   25  C   UNL     1      39.145  -8.251   6.824  1.00  0.00     0.102 A 
HETATM   26  N   UNL     1      38.918  -7.305   7.803  1.00  0.00    -0.361 N 
HETATM   27  H   UNL     1      39.265  -7.386   8.752  1.00  0.00     0.165 HD
HETATM   28  C   UNL     1      38.172  -6.272   7.305  1.00  0.00     0.088 A 
HETATM   29  C   UNL     1      37.911  -6.542   5.982  1.00  0.00     0.019 A 
HETATM   30  C   UNL     1      38.520  -7.784   5.677  1.00  0.00     0.036 A 
ENDBRANCH  22  25
ENDBRANCH  18  21
ENDBRANCH  14  17
ENDBRANCH  10  11
ENDBRANCH   9  10
ENDBRANCH   3   9
TORSDOF 6
ENDMDL
MODEL 7
REMARK VINA RESULT:      -7.8      6.275      8.372
REMARK  6 active torsions:
REMARK  status: ('A' for Active; 'I' for Inactive)
REMARK    1  A    between atoms: C_3  and  C_4 
REMARK    2  A    between atoms: C_4  and  O_5 
REMARK    3  A    between atoms: O_5  and  C_6 
REMARK    4  A    between atoms: C_9  and  C_10 
REMARK       I    between atoms: C_10  and  N_11 
REMARK    5  A    between atoms: N_11  and  N_12 
REMARK       I    between atoms: N_12  and  C_13 
REMARK    6  A    between atoms: C_13  and  C_14 
ROOT
HETATM    1  C   UNL     1      43.358 -19.749   2.355  1.00  0.00     0.001 A 
HETATM    2  C   UNL     1      43.143 -18.373   2.262  1.00  0.00     0.011 A 
HETATM    3  C   UNL     1      43.425 -17.521   3.346  1.00  0.00    -0.013 A 
HETATM    4  C   UNL     1      43.970 -18.084   4.517  1.00  0.00     0.053 A 
HETATM    5  C   UNL     1      44.333 -17.273   5.645  1.00  0.00     0.100 C 
HETATM    6  N   UNL     1      44.628 -16.600   6.543  1.00  0.00    -0.191 NA
HETATM    7  C   UNL     1      44.179 -19.470   4.603  1.00  0.00     0.023 A 
HETATM    8  C   UNL     1      43.871 -20.299   3.526  1.00  0.00     0.002 A 
ENDROOT
BRANCH   3   9
HETATM    9  C   UNL     1      43.201 -16.023   3.219  1.00  0.00     0.216 C 
BRANCH   9  10
HETATM   10  O   UNL     1      41.816 -15.711   3.399  1.00  0.00    -0.347 OA
BRANCH  10  11
HETATM   11  C   UNL     1      41.199 -15.096   2.344  1.00  0.00     0.069 A 
HETATM   12  C   UNL     1      40.455 -15.743   1.357  1.00  0.00     0.038 A 
HETATM   13  C   UNL     1      39.902 -15.004   0.305  1.00  0.00     0.020 A 
HETATM   14  C   UNL     1      40.072 -13.614   0.239  1.00  0.00     0.033 A 
HETATM   15  C   UNL     1      40.798 -12.966   1.244  1.00  0.00     0.020 A 
HETATM   16  C   UNL     1      41.348 -13.709   2.295  1.00  0.00     0.038 A 
BRANCH  14  17
HETATM   17  C   UNL     1      39.506 -12.895  -0.937  1.00  0.00     0.270 C 
HETATM   18  N   UNL     1      38.145 -12.991  -1.140  1.00  0.00    -0.263 N 
HETATM   19  H   UNL     1      37.512 -13.595  -0.623  1.00  0.00     0.190 HD
HETATM   20  O   UNL     1      40.236 -12.253  -1.689  1.00  0.00    -0.266 OA
BRANCH  18  21
HETATM   21  N   UNL     1      37.599 -12.303  -2.227  1.00  0.00    -0.262 N 
HETATM   22  C   UNL     1      36.993 -11.083  -2.019  1.00  0.00     0.286 C 
HETATM   23  O   UNL     1      36.863 -10.608  -0.890  1.00  0.00    -0.264 OA
HETATM   24  H   UNL     1      37.739 -12.718  -3.143  1.00  0.00     0.190 HD
BRANCH  22  25
HETATM   25  C   UNL     1      36.528 -10.408  -3.210  1.00  0.00     0.102 A 
HETATM   26  N   UNL     1      37.409  -9.796  -4.079  1.00  0.00    -0.361 N 
HETATM   27  H   UNL     1      38.413  -9.779  -3.941  1.00  0.00     0.165 HD
HETATM   28  C   UNL     1      36.731  -9.233  -5.126  1.00  0.00     0.088 A 
HETATM   29  C   UNL     1      35.391  -9.482  -4.943  1.00  0.00     0.019 A 
HETATM   30  C   UNL     1      35.261 -10.219  -3.739  1.00  0.00     0.036 A 
ENDBRANCH  22  25
ENDBRANCH  18  21
ENDBRANCH  14  17
ENDBRANCH  10  11
ENDBRANCH   9  10
ENDBRANCH   3   9
TORSDOF 6
ENDMDL
MODEL 8
REMARK VINA RESULT:      -7.6      4.036      5.814
REMARK  6 active torsions:
REMARK  status: ('A' for Active; 'I' for Inactive)
REMARK    1  A    between atoms: C_3  and  C_4 
REMARK    2  A    between atoms: C_4  and  O_5 
REMARK    3  A    between atoms: O_5  and  C_6 
REMARK    4  A    between atoms: C_9  and  C_10 
REMARK       I    between atoms: C_10  and  N_11 
REMARK    5  A    between atoms: N_11  and  N_12 
REMARK       I    between atoms: N_12  and  C_13 
REMARK    6  A    between atoms: C_13  and  C_14 
ROOT
HETATM    1  C   UNL     1      38.023 -14.482  -3.262  1.00  0.00     0.001 A 
HETATM    2  C   UNL     1      39.142 -14.738  -2.468  1.00  0.00     0.011 A 
HETATM    3  C   UNL     1      39.461 -13.910  -1.376  1.00  0.00    -0.013 A 
HETATM    4  C   UNL     1      38.598 -12.837  -1.075  1.00  0.00     0.053 A 
HETATM    5  C   UNL     1      38.827 -11.980   0.055  1.00  0.00     0.100 C 
HETATM    6  N   UNL     1      39.023 -11.304   0.977  1.00  0.00    -0.191 NA
HETATM    7  C   UNL     1      37.476 -12.585  -1.880  1.00  0.00     0.023 A 
HETATM    8  C   UNL     1      37.192 -13.404  -2.972  1.00  0.00     0.002 A 
ENDROOT
BRANCH   3   9
HETATM    9  C   UNL     1      40.674 -14.215  -0.513  1.00  0.00     0.216 C 
BRANCH   9  10
HETATM   10  O   UNL     1      40.334 -15.166   0.502  1.00  0.00    -0.347 OA
BRANCH  10  11
HETATM   11  C   UNL     1      40.727 -14.851   1.773  1.00  0.00     0.069 A 
HETATM   12  C   UNL     1      40.339 -15.529   2.928  1.00  0.00     0.038 A 
HETATM   13  C   UNL     1      40.783 -15.086   4.179  1.00  0.00     0.020 A 
HETATM   14  C   UNL     1      41.628 -13.973   4.286  1.00  0.00     0.033 A 
HETATM   15  C   UNL     1      42.035 -13.310   3.123  1.00  0.00     0.020 A 
HETATM   16  C   UNL     1      41.591 -13.758   1.874  1.00  0.00     0.038 A 
BRANCH  14  17
HETATM   17  C   UNL     1      42.017 -13.519   5.651  1.00  0.00     0.270 C 
HETATM   18  N   UNL     1      42.581 -12.265   5.761  1.00  0.00    -0.263 N 
HETATM   19  H   UNL     1      42.855 -11.670   4.984  1.00  0.00     0.190 HD
HETATM   20  O   UNL     1      41.842 -14.245   6.627  1.00  0.00    -0.266 OA
BRANCH  18  21
HETATM   21  N   UNL     1      42.931 -11.818   7.039  1.00  0.00    -0.262 N 
HETATM   22  C   UNL     1      44.163 -11.235   7.236  1.00  0.00     0.286 C 
HETATM   23  O   UNL     1      44.993 -11.151   6.330  1.00  0.00    -0.264 OA
HETATM   24  H   UNL     1      42.215 -11.890   7.756  1.00  0.00     0.190 HD
BRANCH  22  25
HETATM   25  C   UNL     1      44.407 -10.730   8.569  1.00  0.00     0.102 A 
HETATM   26  N   UNL     1      43.473 -10.876   9.574  1.00  0.00    -0.361 N 
HETATM   27  H   UNL     1      42.577 -11.332   9.446  1.00  0.00     0.165 HD
HETATM   28  C   UNL     1      43.935 -10.324  10.738  1.00  0.00     0.088 A 
HETATM   29  C   UNL     1      45.189  -9.814  10.493  1.00  0.00     0.019 A 
HETATM   30  C   UNL     1      45.487 -10.067   9.131  1.00  0.00     0.036 A 
ENDBRANCH  22  25
ENDBRANCH  18  21
ENDBRANCH  14  17
ENDBRANCH  10  11
ENDBRANCH   9  10
ENDBRANCH   3   9
TORSDOF 6
ENDMDL
MODEL 9
REMARK VINA RESULT:      -7.6      1.753      2.428
REMARK  6 active torsions:
REMARK  status: ('A' for Active; 'I' for Inactive)
REMARK    1  A    between atoms: C_3  and  C_4 
REMARK    2  A    between atoms: C_4  and  O_5 
REMARK    3  A    between atoms: O_5  and  C_6 
REMARK    4  A    between atoms: C_9  and  C_10 
REMARK       I    between atoms: C_10  and  N_11 
REMARK    5  A    between atoms: N_11  and  N_12 
REMARK       I    between atoms: N_12  and  C_13 
REMARK    6  A    between atoms: C_13  and  C_14 
ROOT
HETATM    1  C   UNL     1      43.760 -18.131   2.680  1.00  0.00     0.001 A 
HETATM    2  C   UNL     1      42.701 -17.262   2.412  1.00  0.00     0.011 A 
HETATM    3  C   UNL     1      41.987 -16.646   3.456  1.00  0.00    -0.013 A 
HETATM    4  C   UNL     1      42.393 -16.894   4.783  1.00  0.00     0.053 A 
HETATM    5  C   UNL     1      41.749 -16.261   5.899  1.00  0.00     0.100 C 
HETATM    6  N   UNL     1      41.221 -15.733   6.788  1.00  0.00    -0.191 NA
HETATM    7  C   UNL     1      43.457 -17.772   5.043  1.00  0.00     0.023 A 
HETATM    8  C   UNL     1      44.136 -18.391   3.995  1.00  0.00     0.002 A 
ENDROOT
BRANCH   3   9
HETATM    9  C   UNL     1      40.849 -15.689   3.144  1.00  0.00     0.216 C 
BRANCH   9  10
HETATM   10  O   UNL     1      41.366 -14.397   2.806  1.00  0.00    -0.347 OA
BRANCH  10  11
HETATM   11  C   UNL     1      41.363 -13.469   3.811  1.00  0.00     0.069 A 
HETATM   12  C   UNL     1      42.486 -12.799   4.293  1.00  0.00     0.038 A 
HETATM   13  C   UNL     1      42.358 -11.895   5.353  1.00  0.00     0.020 A 
HETATM   14  C   UNL     1      41.105 -11.641   5.929  1.00  0.00     0.033 A 
HETATM   15  C   UNL     1      39.976 -12.297   5.426  1.00  0.00     0.020 A 
HETATM   16  C   UNL     1      40.109 -13.198   4.364  1.00  0.00     0.038 A 
BRANCH  14  17
HETATM   17  C   UNL     1      41.046 -10.711   7.092  1.00  0.00     0.270 C 
HETATM   18  N   UNL     1      42.228 -10.451   7.753  1.00  0.00    -0.263 N 
HETATM   19  H   UNL     1      43.113 -10.921   7.586  1.00  0.00     0.190 HD
HETATM   20  O   UNL     1      39.979 -10.210   7.439  1.00  0.00    -0.266 OA
BRANCH  18  21
HETATM   21  N   UNL     1      42.189  -9.564   8.832  1.00  0.00    -0.262 N 
HETATM   22  C   UNL     1      43.015  -9.780   9.913  1.00  0.00     0.286 C 
HETATM   23  O   UNL     1      43.744 -10.770   9.985  1.00  0.00    -0.264 OA
HETATM   24  H   UNL     1      41.588  -8.751   8.731  1.00  0.00     0.190 HD
BRANCH  22  25
HETATM   25  C   UNL     1      42.966  -8.769  10.946  1.00  0.00     0.102 A 
HETATM   26  N   UNL     1      42.454  -7.511  10.697  1.00  0.00    -0.361 N 
HETATM   27  H   UNL     1      42.091  -7.221   9.796  1.00  0.00     0.165 HD
HETATM   28  C   UNL     1      42.513  -6.741  11.826  1.00  0.00     0.088 A 
HETATM   29  C   UNL     1      43.065  -7.504  12.828  1.00  0.00     0.019 A 
HETATM   30  C   UNL     1      43.352  -8.777  12.278  1.00  0.00     0.036 A 
ENDBRANCH  22  25
ENDBRANCH  18  21
ENDBRANCH  14  17
ENDBRANCH  10  11
ENDBRANCH   9  10
ENDBRANCH   3   9
TORSDOF 6
ENDMDL
MODEL 10
REMARK VINA RESULT:      -7.6      6.573     14.035
REMARK  6 active torsions:
REMARK  status: ('A' for Active; 'I' for Inactive)
REMARK    1  A    between atoms: C_3  and  C_4 
REMARK    2  A    between atoms: C_4  and  O_5 
REMARK    3  A    between atoms: O_5  and  C_6 
REMARK    4  A    between atoms: C_9  and  C_10 
REMARK       I    between atoms: C_10  and  N_11 
REMARK    5  A    between atoms: N_11  and  N_12 
REMARK       I    between atoms: N_12  and  C_13 
REMARK    6  A    between atoms: C_13  and  C_14 
ROOT
HETATM    1  C   UNL     1      41.195  -4.215  20.016  1.00  0.00     0.001 A 
HETATM    2  C   UNL     1      41.480  -5.078  18.957  1.00  0.00     0.011 A 
HETATM    3  C   UNL     1      41.136  -6.441  19.020  1.00  0.00    -0.013 A 
HETATM    4  C   UNL     1      40.457  -6.908  20.164  1.00  0.00     0.053 A 
HETATM    5  C   UNL     1      40.026  -8.273  20.279  1.00  0.00     0.100 C 
HETATM    6  N   UNL     1      39.677  -9.378  20.350  1.00  0.00    -0.191 NA
HETATM    7  C   UNL     1      40.177  -6.033  21.226  1.00  0.00     0.023 A 
HETATM    8  C   UNL     1      40.548  -4.692  21.153  1.00  0.00     0.002 A 
ENDROOT
BRANCH   3   9
HETATM    9  C   UNL     1      41.438  -7.362  17.850  1.00  0.00     0.216 C 
BRANCH   9  10
HETATM   10  O   UNL     1      42.078  -6.632  16.798  1.00  0.00    -0.347 OA
BRANCH  10  11
HETATM   11  C   UNL     1      42.191  -7.285  15.600  1.00  0.00     0.069 A 
HETATM   12  C   UNL     1      43.139  -7.005  14.617  1.00  0.00     0.038 A 
HETATM   13  C   UNL     1      43.130  -7.722  13.415  1.00  0.00     0.020 A 
HETATM   14  C   UNL     1      42.186  -8.735  13.193  1.00  0.00     0.033 A 
HETATM   15  C   UNL     1      41.252  -9.029  14.193  1.00  0.00     0.020 A 
HETATM   16  C   UNL     1      41.267  -8.311  15.394  1.00  0.00     0.038 A 
BRANCH  14  17
HETATM   17  C   UNL     1      42.194  -9.421  11.870  1.00  0.00     0.270 C 
HETATM   18  N   UNL     1      43.422  -9.774  11.350  1.00  0.00    -0.263 N 
HETATM   19  H   UNL     1      44.324  -9.510  11.736  1.00  0.00     0.190 HD
HETATM   20  O   UNL     1      41.142  -9.651  11.278  1.00  0.00    -0.266 OA
BRANCH  18  21
HETATM   21  N   UNL     1      43.442 -10.437  10.121  1.00  0.00    -0.262 N 
HETATM   22  C   UNL     1      44.524 -10.276   9.284  1.00  0.00     0.286 C 
HETATM   23  O   UNL     1      45.450  -9.513   9.561  1.00  0.00    -0.264 OA
HETATM   24  H   UNL     1      42.669 -11.070   9.933  1.00  0.00     0.190 HD
BRANCH  22  25
HETATM   25  C   UNL     1      44.496 -11.062   8.071  1.00  0.00     0.102 A 
HETATM   26  N   UNL     1      43.596 -12.094   7.904  1.00  0.00    -0.361 N 
HETATM   27  H   UNL     1      42.915 -12.364   8.605  1.00  0.00     0.165 HD
HETATM   28  C   UNL     1      43.763 -12.680   6.679  1.00  0.00     0.088 A 
HETATM   29  C   UNL     1      44.782 -12.020   6.033  1.00  0.00     0.019 A 
HETATM   30  C   UNL     1      45.245 -11.004   6.905  1.00  0.00     0.036 A 
ENDBRANCH  22  25
ENDBRANCH  18  21
ENDBRANCH  14  17
ENDBRANCH  10  11
ENDBRANCH   9  10
ENDBRANCH   3   9
TORSDOF 6
ENDMDL
