MODEL 1
REMARK VINA RESULT:      -7.9      0.000      0.000
REMARK  5 active torsions:
REMARK  status: ('A' for Active; 'I' for Inactive)
REMARK    1  A    between atoms: C_8  and  C_9 
REMARK    2  A    between atoms: C_9  and  C_10 
REMARK       I    between atoms: C_10  and  N_11 
REMARK    3  A    between atoms: N_11  and  C_12 
REMARK    4  A    between atoms: C_12  and  C_13 
REMARK    5  A    between atoms: C_13  and  C_14 
ROOT
HETATM    1  C   UNL     1      42.717 -14.786   2.460  1.00  0.00     0.226 C 
HETATM    2  N   UNL     1      42.166 -13.654   3.023  1.00  0.00    -0.360 N 
HETATM    3  O   UNL     1      43.679 -14.723   1.695  1.00  0.00    -0.273 OA
HETATM    4  H   UNL     1      41.394 -13.724   3.670  1.00  0.00     0.162 HD
ENDROOT
BRANCH   2   5
HETATM    5  C   UNL     1      42.720 -12.336   2.766  1.00  0.00     0.127 C 
BRANCH   5   6
HETATM    6  C   UNL     1      43.850 -11.968   3.733  1.00  0.00     0.060 C 
BRANCH   6   7
HETATM    7  C   UNL     1      43.328 -11.496   5.053  1.00  0.00    -0.029 A 
HETATM    8  C   UNL     1      44.110 -11.152   6.203  1.00  0.00    -0.002 A 
HETATM    9  C   UNL     1      43.224 -10.773   7.212  1.00  0.00     0.044 A 
HETATM   10  C   UNL     1      45.493 -11.132   6.474  1.00  0.00     0.016 A 
HETATM   11  C   UNL     1      43.652 -10.377   8.486  1.00  0.00     0.054 A 
HETATM   12  N   UNL     1      41.954 -10.876   6.696  1.00  0.00    -0.365 N 
HETATM   13  C   UNL     1      45.029 -10.370   8.727  1.00  0.00     0.036 A 
HETATM   14 CL   UNL     1      45.607  -9.893  10.279  1.00  0.00    -0.084 Cl
HETATM   15  C   UNL     1      45.941 -10.740   7.742  1.00  0.00     0.025 A 
HETATM   16  H   UNL     1      41.109 -10.658   7.205  1.00  0.00     0.165 HD
HETATM   17  C   UNL     1      42.003 -11.310   5.398  1.00  0.00     0.096 A 
ENDBRANCH   6   7
ENDBRANCH   5   6
ENDBRANCH   2   5
BRANCH   1  18
HETATM   18  C   UNL     1      42.098 -16.134   2.862  1.00  0.00     0.111 C 
HETATM   19  C   UNL     1      40.704 -16.051   3.482  1.00  0.00     0.025 C 
BRANCH  18  20
HETATM   20  C   UNL     1      43.043 -16.956   3.698  1.00  0.00     0.004 A 
HETATM   21  C   UNL     1      43.531 -18.218   3.392  1.00  0.00     0.033 A 
HETATM   22  C   UNL     1      43.318 -19.103   2.223  1.00  0.00     0.070 C 
HETATM   23  N   UNL     1      44.349 -18.570   4.427  1.00  0.00    -0.282 N 
HETATM   24  H   UNL     1      44.889 -19.420   4.538  1.00  0.00     0.189 HD
HETATM   25  N   UNL     1      44.413 -17.652   5.396  1.00  0.00    -0.179 NA
HETATM   26  C   UNL     1      43.638 -16.653   4.960  1.00  0.00     0.060 A 
HETATM   27  C   UNL     1      43.506 -15.431   5.792  1.00  0.00     0.073 C 
ENDBRANCH  18  20
ENDBRANCH   1  18
TORSDOF 5
ENDMDL
MODEL 2
REMARK VINA RESULT:      -7.9      5.096      8.047
REMARK  5 active torsions:
REMARK  status: ('A' for Active; 'I' for Inactive)
REMARK    1  A    between atoms: C_8  and  C_9 
REMARK    2  A    between atoms: C_9  and  C_10 
REMARK       I    between atoms: C_10  and  N_11 
REMARK    3  A    between atoms: N_11  and  C_12 
REMARK    4  A    between atoms: C_12  and  C_13 
REMARK    5  A    between atoms: C_13  and  C_14 
ROOT
HETATM    1  C   UNL     1      40.644 -13.134  -0.445  1.00  0.00     0.226 C 
HETATM    2  N   UNL     1      40.935 -14.449  -0.152  1.00  0.00    -0.360 N 
HETATM    3  O   UNL     1      40.577 -12.276   0.435  1.00  0.00    -0.273 OA
HETATM    4  H   UNL     1      41.013 -15.136  -0.888  1.00  0.00     0.162 HD
ENDROOT
BRANCH   2   5
HETATM    5  C   UNL     1      41.213 -14.876   1.208  1.00  0.00     0.127 C 
BRANCH   5   6
HETATM    6  C   UNL     1      42.677 -15.275   1.419  1.00  0.00     0.060 C 
BRANCH   6   7
HETATM    7  C   UNL     1      42.935 -15.751   2.813  1.00  0.00    -0.029 A 
HETATM    8  C   UNL     1      43.293 -17.081   3.206  1.00  0.00    -0.002 A 
HETATM    9  C   UNL     1      43.429 -17.084   4.594  1.00  0.00     0.044 A 
HETATM   10  C   UNL     1      43.510 -18.283   2.502  1.00  0.00     0.016 A 
HETATM   11  C   UNL     1      43.770 -18.234   5.319  1.00  0.00     0.054 A 
HETATM   12  N   UNL     1      43.171 -15.805   5.029  1.00  0.00    -0.365 N 
HETATM   13  C   UNL     1      43.977 -19.411   4.594  1.00  0.00     0.036 A 
HETATM   14 CL   UNL     1      44.396 -20.854   5.440  1.00  0.00    -0.084 Cl
HETATM   15  C   UNL     1      43.852 -19.443   3.208  1.00  0.00     0.025 A 
HETATM   16  H   UNL     1      43.202 -15.512   5.996  1.00  0.00     0.165 HD
HETATM   17  C   UNL     1      42.871 -14.995   3.968  1.00  0.00     0.096 A 
ENDBRANCH   6   7
ENDBRANCH   5   6
ENDBRANCH   2   5
BRANCH   1  18
HETATM   18  C   UNL     1      40.444 -12.779  -1.927  1.00  0.00     0.111 C 
HETATM   19  C   UNL     1      41.283 -11.608  -2.434  1.00  0.00     0.025 C 
BRANCH  18  20
HETATM   20  C   UNL     1      38.986 -12.625  -2.274  1.00  0.00     0.004 A 
HETATM   21  C   UNL     1      38.171 -13.585  -2.854  1.00  0.00     0.033 A 
HETATM   22  C   UNL     1      38.432 -14.981  -3.277  1.00  0.00     0.070 C 
HETATM   23  N   UNL     1      36.939 -13.010  -2.981  1.00  0.00    -0.282 N 
HETATM   24  H   UNL     1      36.090 -13.421  -3.351  1.00  0.00     0.189 HD
HETATM   25  N   UNL     1      36.891 -11.744  -2.555  1.00  0.00    -0.179 NA
HETATM   26  C   UNL     1      38.127 -11.499  -2.104  1.00  0.00     0.060 A 
HETATM   27  C   UNL     1      38.425 -10.168  -1.517  1.00  0.00     0.073 C 
ENDBRANCH  18  20
ENDBRANCH   1  18
TORSDOF 5
ENDMDL
MODEL 3
REMARK VINA RESULT:      -7.9      0.167      1.665
REMARK  5 active torsions:
REMARK  status: ('A' for Active; 'I' for Inactive)
REMARK    1  A    between atoms: C_8  and  C_9 
REMARK    2  A    between atoms: C_9  and  C_10 
REMARK       I    between atoms: C_10  and  N_11 
REMARK    3  A    between atoms: N_11  and  C_12 
REMARK    4  A    between atoms: C_12  and  C_13 
REMARK    5  A    between atoms: C_13  and  C_14 
ROOT
HETATM    1  C   UNL     1      42.737 -14.906   2.400  1.00  0.00     0.226 C 
HETATM    2  N   UNL     1      42.161 -13.782   2.953  1.00  0.00    -0.360 N 
HETATM    3  O   UNL     1      43.720 -14.831   1.664  1.00  0.00    -0.273 OA
HETATM    4  H   UNL     1      41.371 -13.863   3.578  1.00  0.00     0.162 HD
ENDROOT
BRANCH   2   5
HETATM    5  C   UNL     1      42.711 -12.458   2.721  1.00  0.00     0.127 C 
BRANCH   5   6
HETATM    6  C   UNL     1      43.840 -12.105   3.694  1.00  0.00     0.060 C 
BRANCH   6   7
HETATM    7  C   UNL     1      43.317 -11.606   5.004  1.00  0.00    -0.029 A 
HETATM    8  C   UNL     1      44.099 -11.225   6.142  1.00  0.00    -0.002 A 
HETATM    9  C   UNL     1      43.213 -10.831   7.144  1.00  0.00     0.044 A 
HETATM   10  C   UNL     1      45.483 -11.184   6.408  1.00  0.00     0.016 A 
HETATM   11  C   UNL     1      43.641 -10.399   8.407  1.00  0.00     0.054 A 
HETATM   12  N   UNL     1      41.942 -10.960   6.635  1.00  0.00    -0.365 N 
HETATM   13  C   UNL     1      45.018 -10.371   8.642  1.00  0.00     0.036 A 
HETATM   14 CL   UNL     1      45.595  -9.849  10.180  1.00  0.00    -0.084 Cl
HETATM   15  C   UNL     1      45.931 -10.755   7.664  1.00  0.00     0.025 A 
HETATM   16  H   UNL     1      41.096 -10.739   7.142  1.00  0.00     0.165 HD
HETATM   17  C   UNL     1      41.992 -11.426   5.349  1.00  0.00     0.096 A 
ENDBRANCH   6   7
ENDBRANCH   5   6
ENDBRANCH   2   5
BRANCH   1  18
HETATM   18  C   UNL     1      42.118 -16.261   2.776  1.00  0.00     0.111 C 
HETATM   19  C   UNL     1      40.733 -16.189   3.418  1.00  0.00     0.025 C 
BRANCH  18  20
HETATM   20  C   UNL     1      43.071 -17.109   3.577  1.00  0.00     0.004 A 
HETATM   21  C   UNL     1      43.662 -16.770   4.785  1.00  0.00     0.033 A 
HETATM   22  C   UNL     1      43.549 -15.562   5.636  1.00  0.00     0.070 C 
HETATM   23  N   UNL     1      44.440 -17.834   5.139  1.00  0.00    -0.282 N 
HETATM   24  H   UNL     1      45.008 -17.947   5.971  1.00  0.00     0.189 HD
HETATM   25  N   UNL     1      44.426 -18.830   4.247  1.00  0.00    -0.179 NA
HETATM   26  C   UNL     1      43.581 -18.413   3.297  1.00  0.00     0.060 A 
HETATM   27  C   UNL     1      43.300 -19.305   2.145  1.00  0.00     0.073 C 
ENDBRANCH  18  20
ENDBRANCH   1  18
TORSDOF 5
ENDMDL
MODEL 4
REMARK VINA RESULT:      -7.8      4.507      7.521
REMARK  5 active torsions:
REMARK  status: ('A' for Active; 'I' for Inactive)
REMARK    1  A    between atoms: C_8  and  C_9 
REMARK    2  A    between atoms: C_9  and  C_10 
REMARK       I    between atoms: C_10  and  N_11 
REMARK    3  A    between atoms: N_11  and  C_12 
REMARK    4  A    between atoms: C_12  and  C_13 
REMARK    5  A    between atoms: C_13  and  C_14 
ROOT
HETATM    1  C   UNL     1      40.035 -12.382   1.002  1.00  0.00     0.226 C 
HETATM    2  N   UNL     1      41.393 -12.618   0.987  1.00  0.00    -0.360 N 
HETATM    3  O   UNL     1      39.341 -12.667   1.979  1.00  0.00    -0.273 OA
HETATM    4  H   UNL     1      41.952 -12.353   0.189  1.00  0.00     0.162 HD
ENDROOT
BRANCH   2   5
HETATM    5  C   UNL     1      42.076 -13.181   2.139  1.00  0.00     0.127 C 
BRANCH   5   6
HETATM    6  C   UNL     1      42.443 -14.655   1.950  1.00  0.00     0.060 C 
BRANCH   6   7
HETATM    7  C   UNL     1      42.845 -15.303   3.237  1.00  0.00    -0.029 A 
HETATM    8  C   UNL     1      43.241 -16.669   3.415  1.00  0.00    -0.002 A 
HETATM    9  C   UNL     1      43.520 -16.849   4.770  1.00  0.00     0.044 A 
HETATM   10  C   UNL     1      43.383 -17.767   2.542  1.00  0.00     0.016 A 
HETATM   11  C   UNL     1      43.934 -18.079   5.300  1.00  0.00     0.054 A 
HETATM   12  N   UNL     1      43.310 -15.641   5.391  1.00  0.00    -0.365 N 
HETATM   13  C   UNL     1      44.063 -19.150   4.411  1.00  0.00     0.036 A 
HETATM   14 CL   UNL     1      44.567 -20.684   5.015  1.00  0.00    -0.084 Cl
HETATM   15  C   UNL     1      43.795 -19.004   3.053  1.00  0.00     0.025 A 
HETATM   16  H   UNL     1      43.441 -15.475   6.380  1.00  0.00     0.165 HD
HETATM   17  C   UNL     1      42.902 -14.704   4.480  1.00  0.00     0.096 A 
ENDBRANCH   6   7
ENDBRANCH   5   6
ENDBRANCH   2   5
BRANCH   1  18
HETATM   18  C   UNL     1      39.431 -11.712  -0.241  1.00  0.00     0.111 C 
HETATM   19  C   UNL     1      37.905 -11.743  -0.321  1.00  0.00     0.025 C 
BRANCH  18  20
HETATM   20  C   UNL     1      40.076 -12.202  -1.511  1.00  0.00     0.004 A 
HETATM   21  C   UNL     1      40.881 -11.465  -2.366  1.00  0.00     0.033 A 
HETATM   22  C   UNL     1      41.356 -10.062  -2.312  1.00  0.00     0.070 C 
HETATM   23  N   UNL     1      41.238 -12.311  -3.376  1.00  0.00    -0.282 N 
HETATM   24  H   UNL     1      41.835 -12.121  -4.172  1.00  0.00     0.189 HD
HETATM   25  N   UNL     1      40.709 -13.534  -3.263  1.00  0.00    -0.179 NA
HETATM   26  C   UNL     1      40.013 -13.491  -2.122  1.00  0.00     0.060 A 
HETATM   27  C   UNL     1      39.309 -14.715  -1.665  1.00  0.00     0.073 C 
ENDBRANCH  18  20
ENDBRANCH   1  18
TORSDOF 5
ENDMDL
MODEL 5
REMARK VINA RESULT:      -7.7      3.322      6.042
REMARK  5 active torsions:
REMARK  status: ('A' for Active; 'I' for Inactive)
REMARK    1  A    between atoms: C_8  and  C_9 
REMARK    2  A    between atoms: C_9  and  C_10 
REMARK       I    between atoms: C_10  and  N_11 
REMARK    3  A    between atoms: N_11  and  C_12 
REMARK    4  A    between atoms: C_12  and  C_13 
REMARK    5  A    between atoms: C_13  and  C_14 
ROOT
HETATM    1  C   UNL     1      43.025 -11.931   4.270  1.00  0.00     0.226 C 
HETATM    2  N   UNL     1      41.954 -11.419   3.570  1.00  0.00    -0.360 N 
HETATM    3  O   UNL     1      44.135 -12.056   3.752  1.00  0.00    -0.273 OA
HETATM    4  H   UNL     1      41.057 -11.297   4.017  1.00  0.00     0.162 HD
ENDROOT
BRANCH   2   5
HETATM    5  C   UNL     1      42.096 -10.966   2.197  1.00  0.00     0.127 C 
BRANCH   5   6
HETATM    6  C   UNL     1      41.142 -11.681   1.234  1.00  0.00     0.060 C 
BRANCH   6   7
HETATM    7  C   UNL     1      40.695 -13.005   1.766  1.00  0.00    -0.029 A 
HETATM    8  C   UNL     1      41.485 -14.197   1.855  1.00  0.00    -0.002 A 
HETATM    9  C   UNL     1      40.677 -15.194   2.400  1.00  0.00     0.044 A 
HETATM   10  C   UNL     1      42.816 -14.515   1.515  1.00  0.00     0.016 A 
HETATM   11  C   UNL     1      41.132 -16.501   2.622  1.00  0.00     0.054 A 
HETATM   12  N   UNL     1      39.445 -14.631   2.641  1.00  0.00    -0.365 N 
HETATM   13  C   UNL     1      42.455 -16.787   2.274  1.00  0.00     0.036 A 
HETATM   14 CL   UNL     1      43.062 -18.381   2.526  1.00  0.00    -0.084 Cl
HETATM   15  C   UNL     1      43.290 -15.816   1.730  1.00  0.00     0.025 A 
HETATM   16  H   UNL     1      38.659 -15.123   3.042  1.00  0.00     0.165 HD
HETATM   17  C   UNL     1      39.444 -13.315   2.263  1.00  0.00     0.096 A 
ENDBRANCH   6   7
ENDBRANCH   5   6
ENDBRANCH   2   5
BRANCH   1  18
HETATM   18  C   UNL     1      42.780 -12.305   5.740  1.00  0.00     0.111 C 
HETATM   19  C   UNL     1      44.042 -12.497   6.582  1.00  0.00     0.025 C 
BRANCH  18  20
HETATM   20  C   UNL     1      41.829 -13.465   5.872  1.00  0.00     0.004 A 
HETATM   21  C   UNL     1      40.457 -13.390   6.058  1.00  0.00     0.033 A 
HETATM   22  C   UNL     1      39.535 -12.235   6.163  1.00  0.00     0.070 C 
HETATM   23  N   UNL     1      40.011 -14.679   6.119  1.00  0.00    -0.282 N 
HETATM   24  H   UNL     1      39.059 -15.009   6.234  1.00  0.00     0.189 HD
HETATM   25  N   UNL     1      40.984 -15.590   6.015  1.00  0.00    -0.179 NA
HETATM   26  C   UNL     1      42.097 -14.867   5.845  1.00  0.00     0.060 A 
HETATM   27  C   UNL     1      43.389 -15.574   5.658  1.00  0.00     0.073 C 
ENDBRANCH  18  20
ENDBRANCH   1  18
TORSDOF 5
ENDMDL
MODEL 6
REMARK VINA RESULT:      -7.7      3.933      7.082
REMARK  5 active torsions:
REMARK  status: ('A' for Active; 'I' for Inactive)
REMARK    1  A    between atoms: C_8  and  C_9 
REMARK    2  A    between atoms: C_9  and  C_10 
REMARK       I    between atoms: C_10  and  N_11 
REMARK    3  A    between atoms: N_11  and  C_12 
REMARK    4  A    between atoms: C_12  and  C_13 
REMARK    5  A    between atoms: C_13  and  C_14 
ROOT
HETATM    1  C   UNL     1      41.886 -13.096   2.671  1.00  0.00     0.226 C 
HETATM    2  N   UNL     1      41.712 -13.182   4.035  1.00  0.00    -0.360 N 
HETATM    3  O   UNL     1      42.883 -13.560   2.117  1.00  0.00    -0.273 OA
HETATM    4  H   UNL     1      40.876 -12.821   4.472  1.00  0.00     0.162 HD
ENDROOT
BRANCH   2   5
HETATM    5  C   UNL     1      42.682 -13.858   4.880  1.00  0.00     0.127 C 
BRANCH   5   6
HETATM    6  C   UNL     1      42.039 -14.878   5.824  1.00  0.00     0.060 C 
BRANCH   6   7
HETATM    7  C   UNL     1      42.740 -16.198   5.786  1.00  0.00    -0.029 A 
HETATM    8  C   UNL     1      42.921 -17.033   4.636  1.00  0.00    -0.002 A 
HETATM    9  C   UNL     1      43.618 -18.168   5.049  1.00  0.00     0.044 A 
HETATM   10  C   UNL     1      42.550 -16.922   3.280  1.00  0.00     0.016 A 
HETATM   11  C   UNL     1      43.962 -19.206   4.172  1.00  0.00     0.054 A 
HETATM   12  N   UNL     1      43.858 -18.029   6.395  1.00  0.00    -0.365 N 
HETATM   13  C   UNL     1      43.579 -19.070   2.834  1.00  0.00     0.036 A 
HETATM   14 CL   UNL     1      43.977 -20.320   1.717  1.00  0.00    -0.084 Cl
HETATM   15  C   UNL     1      42.885 -17.949   2.388  1.00  0.00     0.025 A 
HETATM   16  H   UNL     1      44.353 -18.703   6.962  1.00  0.00     0.165 HD
HETATM   17  C   UNL     1      43.334 -16.849   6.850  1.00  0.00     0.096 A 
ENDBRANCH   6   7
ENDBRANCH   5   6
ENDBRANCH   2   5
BRANCH   1  18
HETATM   18  C   UNL     1      40.760 -12.428   1.866  1.00  0.00     0.111 C 
HETATM   19  C   UNL     1      39.429 -12.286   2.605  1.00  0.00     0.025 C 
BRANCH  18  20
HETATM   20  C   UNL     1      40.591 -13.059   0.509  1.00  0.00     0.004 A 
HETATM   21  C   UNL     1      40.761 -12.435  -0.718  1.00  0.00     0.033 A 
HETATM   22  C   UNL     1      41.154 -11.053  -1.078  1.00  0.00     0.070 C 
HETATM   23  N   UNL     1      40.508 -13.385  -1.665  1.00  0.00    -0.282 N 
HETATM   24  H   UNL     1      40.551 -13.292  -2.673  1.00  0.00     0.189 HD
HETATM   25  N   UNL     1      40.160 -14.571  -1.156  1.00  0.00    -0.179 NA
HETATM   26  C   UNL     1      40.223 -14.396   0.169  1.00  0.00     0.060 A 
HETATM   27  C   UNL     1      39.924 -15.545   1.060  1.00  0.00     0.073 C 
ENDBRANCH  18  20
ENDBRANCH   1  18
TORSDOF 5
ENDMDL
MODEL 7
REMARK VINA RESULT:      -7.6      3.690      8.260
REMARK  5 active torsions:
REMARK  status: ('A' for Active; 'I' for Inactive)
REMARK    1  A    between atoms: C_8  and  C_9 
REMARK    2  A    between atoms: C_9  and  C_10 
REMARK       I    between atoms: C_10  and  N_11 
REMARK    3  A    between atoms: N_11  and  C_12 
REMARK    4  A    between atoms: C_12  and  C_13 
REMARK    5  A    between atoms: C_13  and  C_14 
ROOT
HETATM    1  C   UNL     1      44.350 -10.798   8.073  1.00  0.00     0.226 C 
HETATM    2  N   UNL     1      43.584 -11.656   7.312  1.00  0.00    -0.360 N 
HETATM    3  O   UNL     1      45.491 -11.095   8.428  1.00  0.00    -0.273 OA
HETATM    4  H   UNL     1      42.661 -11.386   7.005  1.00  0.00     0.162 HD
ENDROOT
BRANCH   2   5
HETATM    5  C   UNL     1      44.104 -12.936   6.862  1.00  0.00     0.127 C 
BRANCH   5   6
HETATM    6  C   UNL     1      43.008 -13.989   6.673  1.00  0.00     0.060 C 
BRANCH   6   7
HETATM    7  C   UNL     1      42.946 -14.489   5.265  1.00  0.00    -0.029 A 
HETATM    8  C   UNL     1      43.222 -15.824   4.823  1.00  0.00    -0.002 A 
HETATM    9  C   UNL     1      43.053 -15.849   3.439  1.00  0.00     0.044 A 
HETATM   10  C   UNL     1      43.604 -17.011   5.480  1.00  0.00     0.016 A 
HETATM   11  C   UNL     1      43.250 -17.005   2.673  1.00  0.00     0.054 A 
HETATM   12  N   UNL     1      42.682 -14.582   3.053  1.00  0.00    -0.365 N 
HETATM   13  C   UNL     1      43.630 -18.167   3.351  1.00  0.00     0.036 A 
HETATM   14 CL   UNL     1      43.887 -19.616   2.454  1.00  0.00    -0.084 Cl
HETATM   15  C   UNL     1      43.806 -18.178   4.732  1.00  0.00     0.025 A 
HETATM   16  H   UNL     1      42.485 -14.308   2.100  1.00  0.00     0.165 HD
HETATM   17  C   UNL     1      42.615 -13.755   4.142  1.00  0.00     0.096 A 
ENDBRANCH   6   7
ENDBRANCH   5   6
ENDBRANCH   2   5
BRANCH   1  18
HETATM   18  C   UNL     1      43.728  -9.438   8.426  1.00  0.00     0.111 C 
HETATM   19  C   UNL     1      44.727  -8.348   8.814  1.00  0.00     0.025 C 
BRANCH  18  20
HETATM   20  C   UNL     1      42.618  -9.575   9.434  1.00  0.00     0.004 A 
HETATM   21  C   UNL     1      42.722 -10.109  10.710  1.00  0.00     0.033 A 
HETATM   22  C   UNL     1      43.874 -10.664  11.458  1.00  0.00     0.070 C 
HETATM   23  N   UNL     1      41.475 -10.027  11.259  1.00  0.00    -0.282 N 
HETATM   24  H   UNL     1      41.178 -10.309  12.186  1.00  0.00     0.189 HD
HETATM   25  N   UNL     1      40.559  -9.507  10.435  1.00  0.00    -0.179 NA
HETATM   26  C   UNL     1      41.242  -9.209   9.325  1.00  0.00     0.060 A 
HETATM   27  C   UNL     1      40.526  -8.571   8.191  1.00  0.00     0.073 C 
ENDBRANCH  18  20
ENDBRANCH   1  18
TORSDOF 5
ENDMDL
MODEL 8
REMARK VINA RESULT:      -7.5      4.605      7.775
REMARK  5 active torsions:
REMARK  status: ('A' for Active; 'I' for Inactive)
REMARK    1  A    between atoms: C_8  and  C_9 
REMARK    2  A    between atoms: C_9  and  C_10 
REMARK       I    between atoms: C_10  and  N_11 
REMARK    3  A    between atoms: N_11  and  C_12 
REMARK    4  A    between atoms: C_12  and  C_13 
REMARK    5  A    between atoms: C_13  and  C_14 
ROOT
HETATM    1  C   UNL     1      39.359 -14.062  -0.585  1.00  0.00     0.226 C 
HETATM    2  N   UNL     1      39.853 -14.139   0.700  1.00  0.00    -0.360 N 
HETATM    3  O   UNL     1      39.426 -15.017  -1.360  1.00  0.00    -0.273 OA
HETATM    4  H   UNL     1      39.765 -13.356   1.333  1.00  0.00     0.162 HD
ENDROOT
BRANCH   2   5
HETATM    5  C   UNL     1      40.446 -15.363   1.211  1.00  0.00     0.127 C 
BRANCH   5   6
HETATM    6  C   UNL     1      41.976 -15.322   1.224  1.00  0.00     0.060 C 
BRANCH   6   7
HETATM    7  C   UNL     1      42.538 -15.721   2.552  1.00  0.00    -0.029 A 
HETATM    8  C   UNL     1      43.006 -17.023   2.921  1.00  0.00    -0.002 A 
HETATM    9  C   UNL     1      43.435 -16.953   4.246  1.00  0.00     0.044 A 
HETATM   10  C   UNL     1      43.100 -18.257   2.244  1.00  0.00     0.016 A 
HETATM   11  C   UNL     1      43.952 -18.058   4.935  1.00  0.00     0.054 A 
HETATM   12  N   UNL     1      43.242 -15.658   4.666  1.00  0.00    -0.365 N 
HETATM   13  C   UNL     1      44.031 -19.268   4.239  1.00  0.00     0.036 A 
HETATM   14 CL   UNL     1      44.658 -20.658   5.042  1.00  0.00    -0.084 Cl
HETATM   15  C   UNL     1      43.615 -19.373   2.915  1.00  0.00     0.025 A 
HETATM   16  H   UNL     1      43.470 -15.314   5.589  1.00  0.00     0.165 HD
HETATM   17  C   UNL     1      42.701 -14.908   3.656  1.00  0.00     0.096 A 
ENDBRANCH   6   7
ENDBRANCH   5   6
ENDBRANCH   2   5
BRANCH   1  18
HETATM   18  C   UNL     1      38.684 -12.744  -0.993  1.00  0.00     0.111 C 
HETATM   19  C   UNL     1      37.800 -12.825  -2.237  1.00  0.00     0.025 C 
BRANCH  18  20
HETATM   20  C   UNL     1      39.672 -11.610  -1.072  1.00  0.00     0.004 A 
HETATM   21  C   UNL     1      40.725 -11.493  -1.966  1.00  0.00     0.033 A 
HETATM   22  C   UNL     1      41.185 -12.366  -3.071  1.00  0.00     0.070 C 
HETATM   23  N   UNL     1      41.344 -10.313  -1.671  1.00  0.00    -0.282 N 
HETATM   24  H   UNL     1      42.145  -9.893  -2.130  1.00  0.00     0.189 HD
HETATM   25  N   UNL     1      40.797  -9.663  -0.639  1.00  0.00    -0.179 NA
HETATM   26  C   UNL     1      39.764 -10.430  -0.273  1.00  0.00     0.060 A 
HETATM   27  C   UNL     1      38.899  -9.983   0.847  1.00  0.00     0.073 C 
ENDBRANCH  18  20
ENDBRANCH   1  18
TORSDOF 5
ENDMDL
MODEL 9
REMARK VINA RESULT:      -7.4      1.746      2.502
REMARK  5 active torsions:
REMARK  status: ('A' for Active; 'I' for Inactive)
REMARK    1  A    between atoms: C_8  and  C_9 
REMARK    2  A    between atoms: C_9  and  C_10 
REMARK       I    between atoms: C_10  and  N_11 
REMARK    3  A    between atoms: N_11  and  C_12 
REMARK    4  A    between atoms: C_12  and  C_13 
REMARK    5  A    between atoms: C_13  and  C_14 
ROOT
HETATM    1  C   UNL     1      42.053 -15.362   2.078  1.00  0.00     0.226 C 
HETATM    2  N   UNL     1      41.025 -14.648   1.501  1.00  0.00    -0.360 N 
HETATM    3  O   UNL     1      43.233 -15.067   1.882  1.00  0.00    -0.273 OA
HETATM    4  H   UNL     1      40.062 -14.885   1.693  1.00  0.00     0.162 HD
ENDROOT
BRANCH   2   5
HETATM    5  C   UNL     1      41.286 -13.489   0.664  1.00  0.00     0.127 C 
BRANCH   5   6
HETATM    6  C   UNL     1      40.764 -12.185   1.275  1.00  0.00     0.060 C 
BRANCH   6   7
HETATM    7  C   UNL     1      40.785 -12.218   2.770  1.00  0.00    -0.029 A 
HETATM    8  C   UNL     1      41.930 -12.025   3.609  1.00  0.00    -0.002 A 
HETATM    9  C   UNL     1      41.503 -12.145   4.932  1.00  0.00     0.044 A 
HETATM   10  C   UNL     1      43.292 -11.761   3.359  1.00  0.00     0.016 A 
HETATM   11  C   UNL     1      42.374 -12.018   6.023  1.00  0.00     0.054 A 
HETATM   12  N   UNL     1      40.151 -12.394   4.901  1.00  0.00    -0.365 N 
HETATM   13  C   UNL     1      43.719 -11.760   5.743  1.00  0.00     0.036 A 
HETATM   14 CL   UNL     1      44.830 -11.597   7.051  1.00  0.00    -0.084 Cl
HETATM   15  C   UNL     1      44.178 -11.631   4.436  1.00  0.00     0.025 A 
HETATM   16  H   UNL     1      39.573 -12.521   5.720  1.00  0.00     0.165 HD
HETATM   17  C   UNL     1      39.708 -12.441   3.606  1.00  0.00     0.096 A 
ENDBRANCH   6   7
ENDBRANCH   5   6
ENDBRANCH   2   5
BRANCH   1  18
HETATM   18  C   UNL     1      41.660 -16.521   3.006  1.00  0.00     0.111 C 
HETATM   19  C   UNL     1      40.568 -16.196   4.025  1.00  0.00     0.025 C 
BRANCH  18  20
HETATM   20  C   UNL     1      42.864 -17.157   3.649  1.00  0.00     0.004 A 
HETATM   21  C   UNL     1      43.485 -18.333   3.255  1.00  0.00     0.033 A 
HETATM   22  C   UNL     1      43.207 -19.274   2.145  1.00  0.00     0.070 C 
HETATM   23  N   UNL     1      44.527 -18.520   4.117  1.00  0.00    -0.282 N 
HETATM   24  H   UNL     1      45.210 -19.269   4.124  1.00  0.00     0.189 HD
HETATM   25  N   UNL     1      44.619 -17.576   5.060  1.00  0.00    -0.179 NA
HETATM   26  C   UNL     1      43.625 -16.727   4.778  1.00  0.00     0.060 A 
HETATM   27  C   UNL     1      43.452 -15.519   5.623  1.00  0.00     0.073 C 
ENDBRANCH  18  20
ENDBRANCH   1  18
TORSDOF 5
ENDMDL
MODEL 10
REMARK VINA RESULT:      -7.3      3.442      8.014
REMARK  5 active torsions:
REMARK  status: ('A' for Active; 'I' for Inactive)
REMARK    1  A    between atoms: C_8  and  C_9 
REMARK    2  A    between atoms: C_9  and  C_10 
REMARK       I    between atoms: C_10  and  N_11 
REMARK    3  A    between atoms: N_11  and  C_12 
REMARK    4  A    between atoms: C_12  and  C_13 
REMARK    5  A    between atoms: C_13  and  C_14 
ROOT
HETATM    1  C   UNL     1      44.267 -10.976   7.126  1.00  0.00     0.226 C 
HETATM    2  N   UNL     1      43.546 -11.125   5.961  1.00  0.00    -0.360 N 
HETATM    3  O   UNL     1      44.995 -11.873   7.553  1.00  0.00    -0.273 OA
HETATM    4  H   UNL     1      42.974 -10.371   5.609  1.00  0.00     0.162 HD
ENDROOT
BRANCH   2   5
HETATM    5  C   UNL     1      43.639 -12.336   5.163  1.00  0.00     0.127 C 
BRANCH   5   6
HETATM    6  C   UNL     1      42.619 -13.400   5.575  1.00  0.00     0.060 C 
BRANCH   6   7
HETATM    7  C   UNL     1      43.234 -14.760   5.673  1.00  0.00    -0.029 A 
HETATM    8  C   UNL     1      43.207 -15.780   4.668  1.00  0.00    -0.002 A 
HETATM    9  C   UNL     1      43.890 -16.885   5.175  1.00  0.00     0.044 A 
HETATM   10  C   UNL     1      42.658 -15.861   3.371  1.00  0.00     0.016 A 
HETATM   11  C   UNL     1      44.051 -18.074   4.451  1.00  0.00     0.054 A 
HETATM   12  N   UNL     1      44.322 -16.550   6.437  1.00  0.00    -0.365 N 
HETATM   13  C   UNL     1      43.495 -18.125   3.170  1.00  0.00     0.036 A 
HETATM   14 CL   UNL     1      43.664 -19.567   2.239  1.00  0.00    -0.084 Cl
HETATM   15  C   UNL     1      42.809 -17.041   2.631  1.00  0.00     0.025 A 
HETATM   16  H   UNL     1      44.853 -17.161   7.042  1.00  0.00     0.165 HD
HETATM   17  C   UNL     1      43.932 -15.275   6.748  1.00  0.00     0.096 A 
ENDBRANCH   6   7
ENDBRANCH   5   6
ENDBRANCH   2   5
BRANCH   1  18
HETATM   18  C   UNL     1      44.152  -9.625   7.847  1.00  0.00     0.111 C 
HETATM   19  C   UNL     1      45.475  -9.027   8.324  1.00  0.00     0.025 C 
BRANCH  18  20
HETATM   20  C   UNL     1      43.119  -9.661   8.943  1.00  0.00     0.004 A 
HETATM   21  C   UNL     1      41.778  -9.327   8.824  1.00  0.00     0.033 A 
HETATM   22  C   UNL     1      40.970  -8.876   7.666  1.00  0.00     0.070 C 
HETATM   23  N   UNL     1      41.230  -9.511  10.060  1.00  0.00    -0.282 N 
HETATM   24  H   UNL     1      40.266  -9.379  10.345  1.00  0.00     0.189 HD
HETATM   25  N   UNL     1      42.110  -9.912  10.983  1.00  0.00    -0.179 NA
HETATM   26  C   UNL     1      43.263 -10.027  10.315  1.00  0.00     0.060 A 
HETATM   27  C   UNL     1      44.470 -10.493  11.042  1.00  0.00     0.073 C 
ENDBRANCH  18  20
ENDBRANCH   1  18
TORSDOF 5
ENDMDL
