MODEL 1
REMARK VINA RESULT:      -8.0      0.000      0.000
REMARK  7 active torsions:
REMARK  status: ('A' for Active; 'I' for Inactive)
REMARK       I    between atoms: C_2  and  N_3 
REMARK    1  A    between atoms: N_3  and  C_4 
REMARK    2  A    between atoms: C_7  and  N_8 
REMARK       I    between atoms: N_8  and  C_9 
REMARK    3  A    between atoms: C_9  and  C_10 
REMARK    4  A    between atoms: C_11  and  C_12 
REMARK    5  A    between atoms: C_13  and  O_14 
REMARK    6  A    between atoms: N_20  and  C_21 
REMARK    7  A    between atoms: C_24  and  O_25 
ROOT
HETATM    1  C   UNL     1      40.205 -11.237   6.761  1.00  0.00     0.106 C 
HETATM    2  C   UNL     1      41.221 -10.361   5.965  1.00  0.00     0.142 C 
HETATM    3  N   UNL     1      40.627  -9.873   4.700  1.00  0.00    -0.308 N 
HETATM    4  C   UNL     1      39.460  -9.118   4.891  1.00  0.00     0.225 C 
HETATM    5  O   UNL     1      39.307  -7.955   4.536  1.00  0.00    -0.273 OA
HETATM    6  C   UNL     1      38.356  -9.948   5.509  1.00  0.00     0.104 C 
HETATM    7  C   UNL     1      38.808 -10.586   6.812  1.00  0.00     0.026 C 
ENDROOT
BRANCH   1   8
HETATM    8  C   UNL     1      40.156 -12.690   6.285  1.00  0.00     0.228 C 
HETATM    9  N   UNL     1      41.423 -13.236   6.186  1.00  0.00    -0.327 N 
HETATM   10  H   UNL     1      42.180 -12.665   6.551  1.00  0.00     0.169 HD
HETATM   11  O   UNL     1      39.102 -13.259   6.026  1.00  0.00    -0.273 OA
BRANCH   9  12
HETATM   12  C   UNL     1      41.831 -14.438   5.588  1.00  0.00     0.034 A 
HETATM   13  C   UNL     1      41.746 -15.689   6.190  1.00  0.00     0.032 A 
HETATM   14  C   UNL     1      42.094 -16.844   5.472  1.00  0.00     0.032 A 
HETATM   15  C   UNL     1      42.537 -16.759   4.149  1.00  0.00     0.034 A 
HETATM   16  C   UNL     1      42.655 -15.498   3.561  1.00  0.00     0.032 A 
HETATM   17  C   UNL     1      42.298 -14.350   4.272  1.00  0.00     0.032 A 
BRANCH  15  18
HETATM   18  N   UNL     1      42.866 -17.867   3.344  1.00  0.00    -0.328 N 
HETATM   19  C   UNL     1      43.940 -18.724   3.487  1.00  0.00     0.218 C 
HETATM   20  C   UNL     1      43.918 -19.830   2.460  1.00  0.00     0.117 C 
HETATM   21  O   UNL     1      44.814 -18.678   4.344  1.00  0.00    -0.274 OA
HETATM   22  H   UNL     1      42.210 -18.086   2.606  1.00  0.00     0.169 HD
ENDBRANCH  15  18
ENDBRANCH   9  12
ENDBRANCH   1   8
BRANCH   2  23
HETATM   23  C   UNL     1      42.729 -10.701   5.958  1.00  0.00    -0.001 C 
HETATM   24  C   UNL     1      43.576 -10.497   7.067  1.00  0.00     0.076 C 
HETATM   25  C   UNL     1      44.920 -10.904   7.052  1.00  0.00     0.037 C 
HETATM   26  C   UNL     1      45.484 -11.424   5.895  1.00  0.00     0.003 C 
HETATM   27  C   UNL     1      44.716 -11.503   4.744  1.00  0.00     0.001 C 
HETATM   28  C   UNL     1      43.370 -11.121   4.772  1.00  0.00     0.012 C 
BRANCH  24  29
HETATM   29  O   UNL     1      43.063  -9.930   8.208  1.00  0.00    -0.355 OA
HETATM   30  C   UNL     1      43.768 -10.334   9.386  1.00  0.00     0.210 C 
ENDBRANCH  24  29
ENDBRANCH   2  23
BRANCH   3  31
HETATM   31  C   UNL     1      40.741 -10.512   3.413  1.00  0.00     0.038 A 
HETATM   32  C   UNL     1      40.027 -11.700   3.182  1.00  0.00     0.032 A 
HETATM   33  C   UNL     1      40.073 -12.353   1.947  1.00  0.00     0.039 A 
HETATM   34  C   UNL     1      40.842 -11.843   0.906  1.00  0.00     0.068 A 
HETATM   35  C   UNL     1      41.561 -10.669   1.116  1.00  0.00     0.039 A 
HETATM   36  C   UNL     1      41.503 -10.006   2.354  1.00  0.00     0.032 A 
BRANCH  34  37
HETATM   37  O   UNL     1      40.795 -12.574  -0.247  1.00  0.00    -0.356 OA
HETATM   38  C   UNL     1      40.216 -13.869  -0.163  1.00  0.00     0.210 C 
ENDBRANCH  34  37
ENDBRANCH   3  31
TORSDOF 7
ENDMDL
MODEL 2
REMARK VINA RESULT:      -7.6      2.998      7.756
REMARK  7 active torsions:
REMARK  status: ('A' for Active; 'I' for Inactive)
REMARK       I    between atoms: C_2  and  N_3 
REMARK    1  A    between atoms: N_3  and  C_4 
REMARK    2  A    between atoms: C_7  and  N_8 
REMARK       I    between atoms: N_8  and  C_9 
REMARK    3  A    between atoms: C_9  and  C_10 
REMARK    4  A    between atoms: C_11  and  C_12 
REMARK    5  A    between atoms: C_13  and  O_14 
REMARK    6  A    between atoms: N_20  and  C_21 
REMARK    7  A    between atoms: C_24  and  O_25 
ROOT
HETATM    1  C   UNL     1      39.879 -13.068   2.795  1.00  0.00     0.106 C 
HETATM    2  C   UNL     1      40.482 -13.960   3.925  1.00  0.00     0.142 C 
HETATM    3  N   UNL     1      40.879 -13.143   5.094  1.00  0.00    -0.308 N 
HETATM    4  C   UNL     1      39.817 -12.407   5.642  1.00  0.00     0.225 C 
HETATM    5  O   UNL     1      39.413 -12.505   6.795  1.00  0.00    -0.273 OA
HETATM    6  C   UNL     1      39.280 -11.390   4.659  1.00  0.00     0.104 C 
HETATM    7  C   UNL     1      38.866 -12.048   3.354  1.00  0.00     0.026 C 
ENDROOT
BRANCH   1   8
HETATM    8  C   UNL     1      40.940 -12.414   1.910  1.00  0.00     0.228 C 
HETATM    9  N   UNL     1      40.463 -11.264   1.308  1.00  0.00    -0.327 N 
HETATM   10  H   UNL     1      39.550 -10.947   1.622  1.00  0.00     0.169 HD
HETATM   11  O   UNL     1      42.061 -12.889   1.772  1.00  0.00    -0.273 OA
BRANCH   9  12
HETATM   12  C   UNL     1      41.023 -10.503   0.270  1.00  0.00     0.034 A 
HETATM   13  C   UNL     1      41.188 -10.950  -1.036  1.00  0.00     0.032 A 
HETATM   14  C   UNL     1      41.672 -10.078  -2.026  1.00  0.00     0.032 A 
HETATM   15  C   UNL     1      42.001  -8.756  -1.716  1.00  0.00     0.034 A 
HETATM   16  C   UNL     1      41.867  -8.323  -0.395  1.00  0.00     0.032 A 
HETATM   17  C   UNL     1      41.376  -9.186   0.586  1.00  0.00     0.032 A 
BRANCH  15  18
HETATM   18  N   UNL     1      42.453  -7.805  -2.652  1.00  0.00    -0.328 N 
HETATM   19  C   UNL     1      41.726  -7.203  -3.660  1.00  0.00     0.218 C 
HETATM   20  C   UNL     1      42.547  -6.189  -4.419  1.00  0.00     0.117 C 
HETATM   21  O   UNL     1      40.546  -7.388  -3.933  1.00  0.00    -0.274 OA
HETATM   22  H   UNL     1      43.409  -7.493  -2.537  1.00  0.00     0.169 HD
ENDBRANCH  15  18
ENDBRANCH   9  12
ENDBRANCH   1   8
BRANCH   2  23
HETATM   23  C   UNL     1      41.356 -15.189   3.586  1.00  0.00    -0.001 C 
HETATM   24  C   UNL     1      40.994 -16.157   2.627  1.00  0.00     0.076 C 
HETATM   25  C   UNL     1      41.858 -17.210   2.281  1.00  0.00     0.037 C 
HETATM   26  C   UNL     1      43.056 -17.388   2.961  1.00  0.00     0.003 C 
HETATM   27  C   UNL     1      43.373 -16.536   4.008  1.00  0.00     0.001 C 
HETATM   28  C   UNL     1      42.522 -15.474   4.330  1.00  0.00     0.012 C 
BRANCH  24  29
HETATM   29  O   UNL     1      39.789 -16.043   1.979  1.00  0.00    -0.355 OA
HETATM   30  C   UNL     1      39.940 -15.691   0.600  1.00  0.00     0.210 C 
ENDBRANCH  24  29
ENDBRANCH   2  23
BRANCH   3  31
HETATM   31  C   UNL     1      42.192 -12.600   5.336  1.00  0.00     0.038 A 
HETATM   32  C   UNL     1      42.859 -12.950   6.522  1.00  0.00     0.032 A 
HETATM   33  C   UNL     1      44.146 -12.480   6.803  1.00  0.00     0.039 A 
HETATM   34  C   UNL     1      44.801 -11.637   5.912  1.00  0.00     0.068 A 
HETATM   35  C   UNL     1      44.155 -11.275   4.733  1.00  0.00     0.039 A 
HETATM   36  C   UNL     1      42.866 -11.759   4.445  1.00  0.00     0.032 A 
BRANCH  34  37
HETATM   37  O   UNL     1      46.052 -11.255   6.305  1.00  0.00    -0.356 OA
HETATM   38  C   UNL     1      46.167 -10.654   7.588  1.00  0.00     0.210 C 
ENDBRANCH  34  37
ENDBRANCH   3  31
TORSDOF 7
ENDMDL
MODEL 3
REMARK VINA RESULT:      -7.4      3.410      5.017
REMARK  7 active torsions:
REMARK  status: ('A' for Active; 'I' for Inactive)
REMARK       I    between atoms: C_2  and  N_3 
REMARK    1  A    between atoms: N_3  and  C_4 
REMARK    2  A    between atoms: C_7  and  N_8 
REMARK       I    between atoms: N_8  and  C_9 
REMARK    3  A    between atoms: C_9  and  C_10 
REMARK    4  A    between atoms: C_11  and  C_12 
REMARK    5  A    between atoms: C_13  and  O_14 
REMARK    6  A    between atoms: N_20  and  C_21 
REMARK    7  A    between atoms: C_24  and  O_25 
ROOT
HETATM    1  C   UNL     1      40.457  -9.972   2.528  1.00  0.00     0.106 C 
HETATM    2  C   UNL     1      40.035  -9.274   1.198  1.00  0.00     0.142 C 
HETATM    3  N   UNL     1      38.874  -9.957   0.583  1.00  0.00    -0.308 N 
HETATM    4  C   UNL     1      37.751 -10.004   1.424  1.00  0.00     0.225 C 
HETATM    5  O   UNL     1      36.654  -9.524   1.161  1.00  0.00    -0.273 OA
HETATM    6  C   UNL     1      38.025 -10.814   2.671  1.00  0.00     0.104 C 
HETATM    7  C   UNL     1      39.237 -10.286   3.419  1.00  0.00     0.026 C 
ENDROOT
BRANCH   1   8
HETATM    8  C   UNL     1      41.355 -11.191   2.314  1.00  0.00     0.228 C 
HETATM    9  N   UNL     1      40.656 -12.373   2.476  1.00  0.00    -0.327 N 
HETATM   10  H   UNL     1      39.649 -12.280   2.585  1.00  0.00     0.169 HD
HETATM   11  O   UNL     1      42.545 -11.087   2.042  1.00  0.00    -0.273 OA
BRANCH   9  12
HETATM   12  C   UNL     1      41.138 -13.686   2.586  1.00  0.00     0.034 A 
HETATM   13  C   UNL     1      40.697 -14.615   3.523  1.00  0.00     0.032 A 
HETATM   14  C   UNL     1      41.175 -15.935   3.490  1.00  0.00     0.032 A 
HETATM   15  C   UNL     1      42.105 -16.335   2.526  1.00  0.00     0.034 A 
HETATM   16  C   UNL     1      42.572 -15.390   1.611  1.00  0.00     0.032 A 
HETATM   17  C   UNL     1      42.088 -14.080   1.637  1.00  0.00     0.032 A 
BRANCH  15  18
HETATM   18  N   UNL     1      42.605 -17.645   2.396  1.00  0.00    -0.328 N 
HETATM   19  C   UNL     1      43.563 -18.264   3.176  1.00  0.00     0.218 C 
HETATM   20  C   UNL     1      43.790 -19.697   2.759  1.00  0.00     0.117 C 
HETATM   21  O   UNL     1      44.163 -17.784   4.130  1.00  0.00    -0.274 OA
HETATM   22  H   UNL     1      42.175 -18.212   1.676  1.00  0.00     0.169 HD
ENDBRANCH  15  18
ENDBRANCH   9  12
ENDBRANCH   1   8
BRANCH   2  23
HETATM   23  C   UNL     1      41.094  -8.674   0.245  1.00  0.00    -0.001 C 
HETATM   24  C   UNL     1      41.360  -7.292   0.152  1.00  0.00     0.076 C 
HETATM   25  C   UNL     1      42.394  -6.795  -0.659  1.00  0.00     0.037 C 
HETATM   26  C   UNL     1      43.115  -7.650  -1.481  1.00  0.00     0.003 C 
HETATM   27  C   UNL     1      42.781  -8.995  -1.520  1.00  0.00     0.001 C 
HETATM   28  C   UNL     1      41.769  -9.489  -0.690  1.00  0.00     0.012 C 
BRANCH  24  29
HETATM   29  O   UNL     1      40.623  -6.414   0.907  1.00  0.00    -0.355 OA
HETATM   30  C   UNL     1      41.136  -5.079   0.851  1.00  0.00     0.210 C 
ENDBRANCH  24  29
ENDBRANCH   2  23
BRANCH   3  31
HETATM   31  C   UNL     1      38.937 -10.993  -0.417  1.00  0.00     0.038 A 
HETATM   32  C   UNL     1      38.715 -10.648  -1.761  1.00  0.00     0.032 A 
HETATM   33  C   UNL     1      38.790 -11.601  -2.782  1.00  0.00     0.039 A 
HETATM   34  C   UNL     1      39.080 -12.929  -2.489  1.00  0.00     0.068 A 
HETATM   35  C   UNL     1      39.298 -13.291  -1.163  1.00  0.00     0.039 A 
HETATM   36  C   UNL     1      39.236 -12.330  -0.138  1.00  0.00     0.032 A 
BRANCH  34  37
HETATM   37  O   UNL     1      39.127 -13.754  -3.577  1.00  0.00    -0.356 OA
HETATM   38  C   UNL     1      38.119 -14.751  -3.672  1.00  0.00     0.210 C 
ENDBRANCH  34  37
ENDBRANCH   3  31
TORSDOF 7
ENDMDL
MODEL 4
REMARK VINA RESULT:      -7.2     17.456     20.270
REMARK  7 active torsions:
REMARK  status: ('A' for Active; 'I' for Inactive)
REMARK       I    between atoms: C_2  and  N_3 
REMARK    1  A    between atoms: N_3  and  C_4 
REMARK    2  A    between atoms: C_7  and  N_8 
REMARK       I    between atoms: N_8  and  C_9 
REMARK    3  A    between atoms: C_9  and  C_10 
REMARK    4  A    between atoms: C_11  and  C_12 
REMARK    5  A    between atoms: C_13  and  O_14 
REMARK    6  A    between atoms: N_20  and  C_21 
REMARK    7  A    between atoms: C_24  and  O_25 
ROOT
HETATM    1  C   UNL     1      47.649 -30.443  -1.594  1.00  0.00     0.106 C 
HETATM    2  C   UNL     1      46.142 -30.631  -1.948  1.00  0.00     0.142 C 
HETATM    3  N   UNL     1      45.319 -29.546  -1.369  1.00  0.00    -0.308 N 
HETATM    4  C   UNL     1      45.708 -28.267  -1.795  1.00  0.00     0.225 C 
HETATM    5  O   UNL     1      44.989 -27.474  -2.391  1.00  0.00    -0.273 OA
HETATM    6  C   UNL     1      47.112 -27.934  -1.342  1.00  0.00     0.104 C 
HETATM    7  C   UNL     1      48.107 -28.985  -1.805  1.00  0.00     0.026 C 
ENDROOT
BRANCH   1   8
HETATM    8  C   UNL     1      48.017 -30.976  -0.209  1.00  0.00     0.228 C 
HETATM    9  N   UNL     1      48.500 -29.974   0.611  1.00  0.00    -0.327 N 
HETATM   10  H   UNL     1      48.429 -29.029   0.243  1.00  0.00     0.169 HD
HETATM   11  O   UNL     1      47.891 -32.158   0.091  1.00  0.00    -0.273 OA
BRANCH   9  12
HETATM   12  C   UNL     1      49.144 -30.072   1.854  1.00  0.00     0.034 A 
HETATM   13  C   UNL     1      48.490 -30.150   3.079  1.00  0.00     0.032 A 
HETATM   14  C   UNL     1      49.223 -30.341   4.261  1.00  0.00     0.032 A 
HETATM   15  C   UNL     1      50.616 -30.448   4.231  1.00  0.00     0.034 A 
HETATM   16  C   UNL     1      51.270 -30.333   3.003  1.00  0.00     0.032 A 
HETATM   17  C   UNL     1      50.541 -30.154   1.826  1.00  0.00     0.032 A 
BRANCH  15  18
HETATM   18  N   UNL     1      51.424 -30.681   5.360  1.00  0.00    -0.328 N 
HETATM   19  C   UNL     1      51.974 -31.880   5.772  1.00  0.00     0.218 C 
HETATM   20  C   UNL     1      52.833 -31.713   7.002  1.00  0.00     0.117 C 
HETATM   21  O   UNL     1      51.857 -32.972   5.229  1.00  0.00    -0.274 OA
HETATM   22  H   UNL     1      51.668 -29.863   5.904  1.00  0.00     0.169 HD
ENDBRANCH  15  18
ENDBRANCH   9  12
ENDBRANCH   1   8
BRANCH   2  23
HETATM   23  C   UNL     1      45.512 -32.041  -2.019  1.00  0.00    -0.001 C 
HETATM   24  C   UNL     1      46.082 -33.109  -2.744  1.00  0.00     0.076 C 
HETATM   25  C   UNL     1      45.528 -34.400  -2.708  1.00  0.00     0.037 C 
HETATM   26  C   UNL     1      44.333 -34.634  -2.041  1.00  0.00     0.003 C 
HETATM   27  C   UNL     1      43.674 -33.573  -1.440  1.00  0.00     0.001 C 
HETATM   28  C   UNL     1      44.243 -32.296  -1.456  1.00  0.00     0.012 C 
BRANCH  24  29
HETATM   29  O   UNL     1      47.231 -32.896  -3.462  1.00  0.00    -0.355 OA
HETATM   30  C   UNL     1      48.274 -33.812  -3.113  1.00  0.00     0.210 C 
ENDBRANCH  24  29
ENDBRANCH   2  23
BRANCH   3  31
HETATM   31  C   UNL     1      44.640 -29.589  -0.098  1.00  0.00     0.038 A 
HETATM   32  C   UNL     1      43.265 -29.301  -0.056  1.00  0.00     0.032 A 
HETATM   33  C   UNL     1      42.543 -29.354   1.140  1.00  0.00     0.039 A 
HETATM   34  C   UNL     1      43.176 -29.686   2.333  1.00  0.00     0.068 A 
HETATM   35  C   UNL     1      44.538 -29.971   2.314  1.00  0.00     0.039 A 
HETATM   36  C   UNL     1      45.261 -29.931   1.108  1.00  0.00     0.032 A 
BRANCH  34  37
HETATM   37  O   UNL     1      42.355 -29.706   3.426  1.00  0.00    -0.356 OA
HETATM   38  C   UNL     1      41.422 -30.774   3.510  1.00  0.00     0.210 C 
ENDBRANCH  34  37
ENDBRANCH   3  31
TORSDOF 7
ENDMDL
MODEL 5
REMARK VINA RESULT:      -7.2      6.039      9.040
REMARK  7 active torsions:
REMARK  status: ('A' for Active; 'I' for Inactive)
REMARK       I    between atoms: C_2  and  N_3 
REMARK    1  A    between atoms: N_3  and  C_4 
REMARK    2  A    between atoms: C_7  and  N_8 
REMARK       I    between atoms: N_8  and  C_9 
REMARK    3  A    between atoms: C_9  and  C_10 
REMARK    4  A    between atoms: C_11  and  C_12 
REMARK    5  A    between atoms: C_13  and  O_14 
REMARK    6  A    between atoms: N_20  and  C_21 
REMARK    7  A    between atoms: C_24  and  O_25 
ROOT
HETATM    1  C   UNL     1      39.919  -6.199  13.310  1.00  0.00     0.106 C 
HETATM    2  C   UNL     1      39.785  -4.919  12.428  1.00  0.00     0.142 C 
HETATM    3  N   UNL     1      38.635  -5.028  11.503  1.00  0.00    -0.308 N 
HETATM    4  C   UNL     1      37.412  -5.231  12.160  1.00  0.00     0.225 C 
HETATM    5  O   UNL     1      36.439  -4.490  12.085  1.00  0.00    -0.273 OA
HETATM    6  C   UNL     1      37.396  -6.546  12.909  1.00  0.00     0.104 C 
HETATM    7  C   UNL     1      38.557  -6.641  13.884  1.00  0.00     0.026 C 
ENDROOT
BRANCH   1   8
HETATM    8  C   UNL     1      40.658  -7.340  12.611  1.00  0.00     0.228 C 
HETATM    9  N   UNL     1      41.940  -6.971  12.251  1.00  0.00    -0.327 N 
HETATM   10  H   UNL     1      42.256  -6.070  12.599  1.00  0.00     0.169 HD
HETATM   11  O   UNL     1      40.135  -8.430  12.407  1.00  0.00    -0.273 OA
BRANCH   9  12
HETATM   12  C   UNL     1      42.855  -7.627  11.411  1.00  0.00     0.034 A 
HETATM   13  C   UNL     1      43.634  -8.715  11.789  1.00  0.00     0.032 A 
HETATM   14  C   UNL     1      44.450  -9.360  10.846  1.00  0.00     0.032 A 
HETATM   15  C   UNL     1      44.500  -8.920   9.521  1.00  0.00     0.034 A 
HETATM   16  C   UNL     1      43.743  -7.805   9.156  1.00  0.00     0.032 A 
HETATM   17  C   UNL     1      42.923  -7.169  10.090  1.00  0.00     0.032 A 
BRANCH  15  18
HETATM   18  N   UNL     1      45.257  -9.532   8.503  1.00  0.00    -0.328 N 
HETATM   19  C   UNL     1      45.098 -10.801   7.981  1.00  0.00     0.218 C 
HETATM   20  C   UNL     1      46.068 -11.074   6.857  1.00  0.00     0.117 C 
HETATM   21  O   UNL     1      44.265 -11.637   8.310  1.00  0.00    -0.274 OA
HETATM   22  H   UNL     1      45.969  -8.954   8.074  1.00  0.00     0.169 HD
ENDBRANCH  15  18
ENDBRANCH   9  12
ENDBRANCH   1   8
BRANCH   2  23
HETATM   23  C   UNL     1      41.038  -4.169  11.921  1.00  0.00    -0.001 C 
HETATM   24  C   UNL     1      41.947  -3.511  12.776  1.00  0.00     0.076 C 
HETATM   25  C   UNL     1      43.122  -2.920  12.285  1.00  0.00     0.037 C 
HETATM   26  C   UNL     1      43.367  -2.870  10.919  1.00  0.00     0.003 C 
HETATM   27  C   UNL     1      42.420  -3.380  10.043  1.00  0.00     0.001 C 
HETATM   28  C   UNL     1      41.265  -3.992  10.539  1.00  0.00     0.012 C 
BRANCH  24  29
HETATM   29  O   UNL     1      41.704  -3.491  14.127  1.00  0.00    -0.355 OA
HETATM   30  C   UNL     1      41.369  -2.183  14.603  1.00  0.00     0.210 C 
ENDBRANCH  24  29
ENDBRANCH   2  23
BRANCH   3  31
HETATM   31  C   UNL     1      38.688  -5.504  10.144  1.00  0.00     0.038 A 
HETATM   32  C   UNL     1      38.256  -4.653   9.112  1.00  0.00     0.032 A 
HETATM   33  C   UNL     1      38.309  -5.045   7.771  1.00  0.00     0.039 A 
HETATM   34  C   UNL     1      38.787  -6.304   7.421  1.00  0.00     0.068 A 
HETATM   35  C   UNL     1      39.215  -7.163   8.428  1.00  0.00     0.039 A 
HETATM   36  C   UNL     1      39.174  -6.763   9.776  1.00  0.00     0.032 A 
BRANCH  34  37
HETATM   37  O   UNL     1      38.789  -6.558   6.078  1.00  0.00    -0.356 OA
HETATM   38  C   UNL     1      38.312  -7.831   5.664  1.00  0.00     0.210 C 
ENDBRANCH  34  37
ENDBRANCH   3  31
TORSDOF 7
ENDMDL
MODEL 6
REMARK VINA RESULT:      -7.2      3.544      6.240
REMARK  7 active torsions:
REMARK  status: ('A' for Active; 'I' for Inactive)
REMARK       I    between atoms: C_2  and  N_3 
REMARK    1  A    between atoms: N_3  and  C_4 
REMARK    2  A    between atoms: C_7  and  N_8 
REMARK       I    between atoms: N_8  and  C_9 
REMARK    3  A    between atoms: C_9  and  C_10 
REMARK    4  A    between atoms: C_11  and  C_12 
REMARK    5  A    between atoms: C_13  and  O_14 
REMARK    6  A    between atoms: N_20  and  C_21 
REMARK    7  A    between atoms: C_24  and  O_25 
ROOT
HETATM    1  C   UNL     1      39.007  -8.034   8.421  1.00  0.00     0.106 C 
HETATM    2  C   UNL     1      40.111  -7.584   9.428  1.00  0.00     0.142 C 
HETATM    3  N   UNL     1      41.350  -7.192   8.720  1.00  0.00    -0.308 N 
HETATM    4  C   UNL     1      41.155  -6.153   7.796  1.00  0.00     0.225 C 
HETATM    5  O   UNL     1      41.722  -5.067   7.826  1.00  0.00    -0.273 OA
HETATM    6  C   UNL     1      40.221  -6.569   6.681  1.00  0.00     0.104 C 
HETATM    7  C   UNL     1      38.892  -7.062   7.229  1.00  0.00     0.026 C 
ENDROOT
BRANCH   1   8
HETATM    8  C   UNL     1      39.151  -9.490   7.978  1.00  0.00     0.228 C 
HETATM    9  N   UNL     1      39.608  -9.583   6.676  1.00  0.00    -0.327 N 
HETATM   10  H   UNL     1      39.900  -8.710   6.247  1.00  0.00     0.169 HD
HETATM   11  O   UNL     1      38.874 -10.429   8.715  1.00  0.00    -0.273 OA
BRANCH   9  12
HETATM   12  C   UNL     1      39.664 -10.701   5.828  1.00  0.00     0.034 A 
HETATM   13  C   UNL     1      39.990 -11.988   6.239  1.00  0.00     0.032 A 
HETATM   14  C   UNL     1      39.925 -13.057   5.330  1.00  0.00     0.032 A 
HETATM   15  C   UNL     1      39.542 -12.847   4.003  1.00  0.00     0.034 A 
HETATM   16  C   UNL     1      39.251 -11.546   3.587  1.00  0.00     0.032 A 
HETATM   17  C   UNL     1      39.304 -10.485   4.493  1.00  0.00     0.032 A 
BRANCH  15  18
HETATM   18  N   UNL     1      39.411 -13.865   3.039  1.00  0.00    -0.328 N 
HETATM   19  C   UNL     1      40.411 -14.656   2.505  1.00  0.00     0.218 C 
HETATM   20  C   UNL     1      39.865 -15.679   1.539  1.00  0.00     0.117 C 
HETATM   21  O   UNL     1      41.606 -14.616   2.770  1.00  0.00    -0.274 OA
HETATM   22  H   UNL     1      38.466 -14.071   2.740  1.00  0.00     0.169 HD
ENDBRANCH  15  18
ENDBRANCH   9  12
ENDBRANCH   1   8
BRANCH   2  23
HETATM   23  C   UNL     1      40.265  -8.277  10.801  1.00  0.00    -0.001 C 
HETATM   24  C   UNL     1      39.451  -7.984  11.914  1.00  0.00     0.076 C 
HETATM   25  C   UNL     1      39.562  -8.702  13.117  1.00  0.00     0.037 C 
HETATM   26  C   UNL     1      40.561  -9.653  13.278  1.00  0.00     0.003 C 
HETATM   27  C   UNL     1      41.469  -9.861  12.251  1.00  0.00     0.001 C 
HETATM   28  C   UNL     1      41.336  -9.164  11.046  1.00  0.00     0.012 C 
BRANCH  24  29
HETATM   29  O   UNL     1      38.493  -7.007  11.807  1.00  0.00    -0.355 OA
HETATM   30  C   UNL     1      37.699  -6.884  12.992  1.00  0.00     0.210 C 
ENDBRANCH  24  29
ENDBRANCH   2  23
BRANCH   3  31
HETATM   31  C   UNL     1      42.474  -8.051   8.449  1.00  0.00     0.038 A 
HETATM   32  C   UNL     1      43.744  -7.670   8.915  1.00  0.00     0.032 A 
HETATM   33  C   UNL     1      44.870  -8.473   8.710  1.00  0.00     0.039 A 
HETATM   34  C   UNL     1      44.763  -9.678   8.023  1.00  0.00     0.068 A 
HETATM   35  C   UNL     1      43.515 -10.072   7.549  1.00  0.00     0.039 A 
HETATM   36  C   UNL     1      42.380  -9.270   7.769  1.00  0.00     0.032 A 
BRANCH  34  37
HETATM   37  O   UNL     1      45.936 -10.367   7.897  1.00  0.00    -0.356 OA
HETATM   38  C   UNL     1      46.060 -11.224   6.770  1.00  0.00     0.210 C 
ENDBRANCH  34  37
ENDBRANCH   3  31
TORSDOF 7
ENDMDL
MODEL 7
REMARK VINA RESULT:      -6.9     17.538     20.552
REMARK  7 active torsions:
REMARK  status: ('A' for Active; 'I' for Inactive)
REMARK       I    between atoms: C_2  and  N_3 
REMARK    1  A    between atoms: N_3  and  C_4 
REMARK    2  A    between atoms: C_7  and  N_8 
REMARK       I    between atoms: N_8  and  C_9 
REMARK    3  A    between atoms: C_9  and  C_10 
REMARK    4  A    between atoms: C_11  and  C_12 
REMARK    5  A    between atoms: C_13  and  O_14 
REMARK    6  A    between atoms: N_20  and  C_21 
REMARK    7  A    between atoms: C_24  and  O_25 
ROOT
HETATM    1  C   UNL     1      47.752 -29.174  -1.178  1.00  0.00     0.106 C 
HETATM    2  C   UNL     1      47.046 -30.281  -2.021  1.00  0.00     0.142 C 
HETATM    3  N   UNL     1      45.576 -30.112  -1.996  1.00  0.00    -0.308 N 
HETATM    4  C   UNL     1      45.153 -28.864  -2.478  1.00  0.00     0.225 C 
HETATM    5  O   UNL     1      44.403 -28.694  -3.432  1.00  0.00    -0.273 OA
HETATM    6  C   UNL     1      45.658 -27.733  -1.609  1.00  0.00     0.104 C 
HETATM    7  C   UNL     1      47.171 -27.776  -1.471  1.00  0.00     0.026 C 
ENDROOT
BRANCH   1   8
HETATM    8  C   UNL     1      47.795 -29.488   0.318  1.00  0.00     0.228 C 
HETATM    9  N   UNL     1      49.095 -29.595   0.779  1.00  0.00    -0.327 N 
HETATM   10  H   UNL     1      49.821 -29.333   0.118  1.00  0.00     0.169 HD
HETATM   11  O   UNL     1      46.778 -29.628   0.987  1.00  0.00    -0.273 OA
BRANCH   9  12
HETATM   12  C   UNL     1      49.568 -30.082   2.007  1.00  0.00     0.034 A 
HETATM   13  C   UNL     1      49.400 -29.439   3.229  1.00  0.00     0.032 A 
HETATM   14  C   UNL     1      49.828 -30.055   4.416  1.00  0.00     0.032 A 
HETATM   15  C   UNL     1      50.435 -31.314   4.391  1.00  0.00     0.034 A 
HETATM   16  C   UNL     1      50.634 -31.938   3.158  1.00  0.00     0.032 A 
HETATM   17  C   UNL     1      50.198 -31.331   1.979  1.00  0.00     0.032 A 
BRANCH  15  18
HETATM   18  N   UNL     1      50.856 -32.020   5.535  1.00  0.00    -0.328 N 
HETATM   19  C   UNL     1      52.048 -31.882   6.220  1.00  0.00     0.218 C 
HETATM   20  C   UNL     1      52.106 -32.776   7.435  1.00  0.00     0.117 C 
HETATM   21  O   UNL     1      52.969 -31.118   5.957  1.00  0.00    -0.274 OA
HETATM   22  H   UNL     1      50.184 -32.668   5.925  1.00  0.00     0.169 HD
ENDBRANCH  15  18
ENDBRANCH   9  12
ENDBRANCH   1   8
BRANCH   2  23
HETATM   23  C   UNL     1      47.597 -31.724  -2.056  1.00  0.00    -0.001 C 
HETATM   24  C   UNL     1      47.619 -32.518  -3.222  1.00  0.00     0.076 C 
HETATM   25  C   UNL     1      48.212 -33.791  -3.234  1.00  0.00     0.037 C 
HETATM   26  C   UNL     1      48.697 -34.352  -2.061  1.00  0.00     0.003 C 
HETATM   27  C   UNL     1      48.559 -33.656  -0.870  1.00  0.00     0.001 C 
HETATM   28  C   UNL     1      47.993 -32.377  -0.868  1.00  0.00     0.012 C 
BRANCH  24  29
HETATM   29  O   UNL     1      47.093 -32.015  -4.386  1.00  0.00    -0.355 OA
HETATM   30  C   UNL     1      47.517 -32.749  -5.540  1.00  0.00     0.210 C 
ENDBRANCH  24  29
ENDBRANCH   2  23
BRANCH   3  31
HETATM   31  C   UNL     1      44.669 -30.756  -1.079  1.00  0.00     0.038 A 
HETATM   32  C   UNL     1      43.975 -29.965  -0.148  1.00  0.00     0.032 A 
HETATM   33  C   UNL     1      43.060 -30.526   0.749  1.00  0.00     0.039 A 
HETATM   34  C   UNL     1      42.818 -31.895   0.748  1.00  0.00     0.068 A 
HETATM   35  C   UNL     1      43.499 -32.697  -0.164  1.00  0.00     0.039 A 
HETATM   36  C   UNL     1      44.408 -32.130  -1.075  1.00  0.00     0.032 A 
BRANCH  34  37
HETATM   37  O   UNL     1      41.899 -32.311   1.671  1.00  0.00    -0.356 OA
HETATM   38  C   UNL     1      41.516 -31.370   2.665  1.00  0.00     0.210 C 
ENDBRANCH  34  37
ENDBRANCH   3  31
TORSDOF 7
ENDMDL
MODEL 8
REMARK VINA RESULT:      -6.9      7.966     11.441
REMARK  7 active torsions:
REMARK  status: ('A' for Active; 'I' for Inactive)
REMARK       I    between atoms: C_2  and  N_3 
REMARK    1  A    between atoms: N_3  and  C_4 
REMARK    2  A    between atoms: C_7  and  N_8 
REMARK       I    between atoms: N_8  and  C_9 
REMARK    3  A    between atoms: C_9  and  C_10 
REMARK    4  A    between atoms: C_11  and  C_12 
REMARK    5  A    between atoms: C_13  and  O_14 
REMARK    6  A    between atoms: N_20  and  C_21 
REMARK    7  A    between atoms: C_24  and  O_25 
ROOT
HETATM    1  C   UNL     1      41.018  -5.750  15.211  1.00  0.00     0.106 C 
HETATM    2  C   UNL     1      40.725  -4.242  14.940  1.00  0.00     0.142 C 
HETATM    3  N   UNL     1      39.269  -3.984  14.883  1.00  0.00    -0.308 N 
HETATM    4  C   UNL     1      38.595  -4.352  16.059  1.00  0.00     0.225 C 
HETATM    5  O   UNL     1      37.942  -3.592  16.764  1.00  0.00    -0.273 OA
HETATM    6  C   UNL     1      38.687  -5.842  16.308  1.00  0.00     0.104 C 
HETATM    7  C   UNL     1      40.132  -6.308  16.344  1.00  0.00     0.026 C 
ENDROOT
BRANCH   1   8
HETATM    8  C   UNL     1      40.968  -6.613  13.950  1.00  0.00     0.228 C 
HETATM    9  N   UNL     1      42.225  -7.064  13.591  1.00  0.00    -0.327 N 
HETATM   10  H   UNL     1      42.968  -6.878  14.259  1.00  0.00     0.169 HD
HETATM   11  O   UNL     1      39.921  -6.843  13.356  1.00  0.00    -0.273 OA
BRANCH   9  12
HETATM   12  C   UNL     1      42.645  -7.682  12.403  1.00  0.00     0.034 A 
HETATM   13  C   UNL     1      42.605  -7.087  11.147  1.00  0.00     0.032 A 
HETATM   14  C   UNL     1      43.138  -7.755  10.032  1.00  0.00     0.032 A 
HETATM   15  C   UNL     1      43.706  -9.025  10.162  1.00  0.00     0.034 A 
HETATM   16  C   UNL     1      43.711  -9.632  11.419  1.00  0.00     0.032 A 
HETATM   17  C   UNL     1      43.192  -8.964  12.530  1.00  0.00     0.032 A 
BRANCH  15  18
HETATM   18  N   UNL     1      44.298  -9.746   9.107  1.00  0.00    -0.328 N 
HETATM   19  C   UNL     1      45.323  -9.337   8.275  1.00  0.00     0.218 C 
HETATM   20  C   UNL     1      45.725 -10.418   7.302  1.00  0.00     0.117 C 
HETATM   21  O   UNL     1      45.908  -8.261   8.298  1.00  0.00    -0.274 OA
HETATM   22  H   UNL     1      43.965 -10.693   8.978  1.00  0.00     0.169 HD
ENDBRANCH  15  18
ENDBRANCH   9  12
ENDBRANCH   1   8
BRANCH   2  23
HETATM   23  C   UNL     1      41.631  -3.413  14.001  1.00  0.00    -0.001 C 
HETATM   24  C   UNL     1      42.112  -2.127  14.323  1.00  0.00     0.076 C 
HETATM   25  C   UNL     1      43.008  -1.445  13.483  1.00  0.00     0.037 C 
HETATM   26  C   UNL     1      43.360  -1.977  12.250  1.00  0.00     0.003 C 
HETATM   27  C   UNL     1      42.789  -3.173  11.841  1.00  0.00     0.001 C 
HETATM   28  C   UNL     1      41.919  -3.861  12.693  1.00  0.00     0.012 C 
BRANCH  24  29
HETATM   29  O   UNL     1      41.736  -1.547  15.509  1.00  0.00    -0.355 OA
HETATM   30  C   UNL     1      42.787  -0.775  16.099  1.00  0.00     0.210 C 
ENDBRANCH  24  29
ENDBRANCH   2  23
BRANCH   3  31
HETATM   31  C   UNL     1      38.460  -3.971  13.691  1.00  0.00     0.038 A 
HETATM   32  C   UNL     1      38.563  -2.875  12.817  1.00  0.00     0.032 A 
HETATM   33  C   UNL     1      37.827  -2.816  11.629  1.00  0.00     0.039 A 
HETATM   34  C   UNL     1      36.958  -3.845  11.284  1.00  0.00     0.068 A 
HETATM   35  C   UNL     1      36.838  -4.937  12.139  1.00  0.00     0.039 A 
HETATM   36  C   UNL     1      37.589  -5.003  13.326  1.00  0.00     0.032 A 
BRANCH  34  37
HETATM   37  O   UNL     1      36.305  -3.663  10.097  1.00  0.00    -0.356 OA
HETATM   38  C   UNL     1      37.098  -3.678   8.918  1.00  0.00     0.210 C 
ENDBRANCH  34  37
ENDBRANCH   3  31
TORSDOF 7
ENDMDL
MODEL 9
REMARK VINA RESULT:      -6.9     17.146     19.560
REMARK  7 active torsions:
REMARK  status: ('A' for Active; 'I' for Inactive)
REMARK       I    between atoms: C_2  and  N_3 
REMARK    1  A    between atoms: N_3  and  C_4 
REMARK    2  A    between atoms: C_7  and  N_8 
REMARK       I    between atoms: N_8  and  C_9 
REMARK    3  A    between atoms: C_9  and  C_10 
REMARK    4  A    between atoms: C_11  and  C_12 
REMARK    5  A    between atoms: C_13  and  O_14 
REMARK    6  A    between atoms: N_20  and  C_21 
REMARK    7  A    between atoms: C_24  and  O_25 
ROOT
HETATM    1  C   UNL     1      44.587 -32.126   2.416  1.00  0.00     0.106 C 
HETATM    2  C   UNL     1      44.685 -30.569   2.386  1.00  0.00     0.142 C 
HETATM    3  N   UNL     1      43.830 -30.002   1.319  1.00  0.00    -0.308 N 
HETATM    4  C   UNL     1      42.477 -30.349   1.450  1.00  0.00     0.225 C 
HETATM    5  O   UNL     1      41.554 -29.553   1.575  1.00  0.00    -0.273 OA
HETATM    6  C   UNL     1      42.271 -31.842   1.319  1.00  0.00     0.104 C 
HETATM    7  C   UNL     1      43.125 -32.608   2.316  1.00  0.00     0.026 C 
ENDROOT
BRANCH   1   8
HETATM    8  C   UNL     1      45.499 -32.810   1.396  1.00  0.00     0.228 C 
HETATM    9  N   UNL     1      46.731 -32.188   1.319  1.00  0.00    -0.327 N 
HETATM   10  H   UNL     1      46.908 -31.468   2.014  1.00  0.00     0.169 HD
HETATM   11  O   UNL     1      45.137 -33.781   0.743  1.00  0.00    -0.273 OA
BRANCH   9  12
HETATM   12  C   UNL     1      47.755 -32.353   0.373  1.00  0.00     0.034 A 
HETATM   13  C   UNL     1      47.577 -32.283  -1.004  1.00  0.00     0.032 A 
HETATM   14  C   UNL     1      48.684 -32.368  -1.865  1.00  0.00     0.032 A 
HETATM   15  C   UNL     1      49.975 -32.531  -1.357  1.00  0.00     0.034 A 
HETATM   16  C   UNL     1      50.144 -32.637   0.025  1.00  0.00     0.032 A 
HETATM   17  C   UNL     1      49.046 -32.541   0.881  1.00  0.00     0.032 A 
BRANCH  15  18
HETATM   18  N   UNL     1      51.142 -32.584  -2.144  1.00  0.00    -0.328 N 
HETATM   19  C   UNL     1      51.955 -31.532  -2.519  1.00  0.00     0.218 C 
HETATM   20  C   UNL     1      53.150 -31.999  -3.316  1.00  0.00     0.117 C 
HETATM   21  O   UNL     1      51.810 -30.349  -2.239  1.00  0.00    -0.274 OA
HETATM   22  H   UNL     1      51.443 -33.509  -2.425  1.00  0.00     0.169 HD
ENDBRANCH  15  18
ENDBRANCH   9  12
ENDBRANCH   1   8
BRANCH   2  23
HETATM   23  C   UNL     1      46.021 -29.852   2.685  1.00  0.00    -0.001 C 
HETATM   24  C   UNL     1      46.883 -30.224   3.737  1.00  0.00     0.076 C 
HETATM   25  C   UNL     1      48.132 -29.606   3.919  1.00  0.00     0.037 C 
HETATM   26  C   UNL     1      48.505 -28.529   3.127  1.00  0.00     0.003 C 
HETATM   27  C   UNL     1      47.616 -28.046   2.178  1.00  0.00     0.001 C 
HETATM   28  C   UNL     1      46.386 -28.682   1.983  1.00  0.00     0.012 C 
BRANCH  24  29
HETATM   29  O   UNL     1      46.517 -31.247   4.576  1.00  0.00    -0.355 OA
HETATM   30  C   UNL     1      47.618 -32.094   4.921  1.00  0.00     0.210 C 
ENDBRANCH  24  29
ENDBRANCH   2  23
BRANCH   3  31
HETATM   31  C   UNL     1      44.255 -29.681  -0.020  1.00  0.00     0.038 A 
HETATM   32  C   UNL     1      44.268 -30.701  -0.988  1.00  0.00     0.032 A 
HETATM   33  C   UNL     1      44.642 -30.449  -2.311  1.00  0.00     0.039 A 
HETATM   34  C   UNL     1      45.025 -29.171  -2.706  1.00  0.00     0.068 A 
HETATM   35  C   UNL     1      45.024 -28.149  -1.762  1.00  0.00     0.039 A 
HETATM   36  C   UNL     1      44.634 -28.400  -0.434  1.00  0.00     0.032 A 
BRANCH  34  37
HETATM   37  O   UNL     1      45.362 -29.061  -4.026  1.00  0.00    -0.356 OA
HETATM   38  C   UNL     1      44.679 -29.912  -4.936  1.00  0.00     0.210 C 
ENDBRANCH  34  37
ENDBRANCH   3  31
TORSDOF 7
ENDMDL
MODEL 10
REMARK VINA RESULT:      -6.8      3.664      6.215
REMARK  7 active torsions:
REMARK  status: ('A' for Active; 'I' for Inactive)
REMARK       I    between atoms: C_2  and  N_3 
REMARK    1  A    between atoms: N_3  and  C_4 
REMARK    2  A    between atoms: C_7  and  N_8 
REMARK       I    between atoms: N_8  and  C_9 
REMARK    3  A    between atoms: C_9  and  C_10 
REMARK    4  A    between atoms: C_11  and  C_12 
REMARK    5  A    between atoms: C_13  and  O_14 
REMARK    6  A    between atoms: N_20  and  C_21 
REMARK    7  A    between atoms: C_24  and  O_25 
ROOT
HETATM    1  C   UNL     1      38.015 -12.054  -0.526  1.00  0.00     0.106 C 
HETATM    2  C   UNL     1      37.961 -10.559  -0.083  1.00  0.00     0.142 C 
HETATM    3  N   UNL     1      38.427  -9.666  -1.168  1.00  0.00    -0.308 N 
HETATM    4  C   UNL     1      37.682  -9.795  -2.351  1.00  0.00     0.225 C 
HETATM    5  O   UNL     1      37.059  -8.891  -2.894  1.00  0.00    -0.273 OA
HETATM    6  C   UNL     1      37.818 -11.180  -2.943  1.00  0.00     0.104 C 
HETATM    7  C   UNL     1      37.430 -12.252  -1.939  1.00  0.00     0.026 C 
ENDROOT
BRANCH   1   8
HETATM    8  C   UNL     1      39.401 -12.680  -0.374  1.00  0.00     0.228 C 
HETATM    9  N   UNL     1      39.400 -13.699   0.562  1.00  0.00    -0.327 N 
HETATM   10  H   UNL     1      38.488 -13.973   0.916  1.00  0.00     0.169 HD
HETATM   11  O   UNL     1      40.370 -12.290  -1.015  1.00  0.00    -0.273 OA
BRANCH   9  12
HETATM   12  C   UNL     1      40.484 -14.368   1.153  1.00  0.00     0.034 A 
HETATM   13  C   UNL     1      41.686 -13.766   1.505  1.00  0.00     0.032 A 
HETATM   14  C   UNL     1      42.674 -14.503   2.179  1.00  0.00     0.032 A 
HETATM   15  C   UNL     1      42.472 -15.848   2.497  1.00  0.00     0.034 A 
HETATM   16  C   UNL     1      41.277 -16.457   2.109  1.00  0.00     0.032 A 
HETATM   17  C   UNL     1      40.290 -15.722   1.449  1.00  0.00     0.032 A 
BRANCH  15  18
HETATM   18  N   UNL     1      43.390 -16.648   3.205  1.00  0.00    -0.328 N 
HETATM   19  C   UNL     1      43.302 -17.074   4.517  1.00  0.00     0.218 C 
HETATM   20  C   UNL     1      44.456 -17.969   4.897  1.00  0.00     0.117 C 
HETATM   21  O   UNL     1      42.405 -16.831   5.315  1.00  0.00    -0.274 OA
HETATM   22  H   UNL     1      44.180 -16.989   2.673  1.00  0.00     0.169 HD
ENDBRANCH  15  18
ENDBRANCH   9  12
ENDBRANCH   1   8
BRANCH   2  23
HETATM   23  C   UNL     1      38.293 -10.148   1.369  1.00  0.00    -0.001 C 
HETATM   24  C   UNL     1      37.686  -9.056   2.025  1.00  0.00     0.076 C 
HETATM   25  C   UNL     1      37.947  -8.771   3.375  1.00  0.00     0.037 C 
HETATM   26  C   UNL     1      38.901  -9.497   4.075  1.00  0.00     0.003 C 
HETATM   27  C   UNL     1      39.620 -10.483   3.416  1.00  0.00     0.001 C 
HETATM   28  C   UNL     1      39.336 -10.781   2.079  1.00  0.00     0.012 C 
BRANCH  24  29
HETATM   29  O   UNL     1      36.781  -8.282   1.342  1.00  0.00    -0.355 OA
HETATM   30  C   UNL     1      37.270  -6.959   1.093  1.00  0.00     0.210 C 
ENDBRANCH  24  29
ENDBRANCH   2  23
BRANCH   3  31
HETATM   31  C   UNL     1      39.772  -9.178  -1.339  1.00  0.00     0.038 A 
HETATM   32  C   UNL     1      40.398  -8.529  -0.261  1.00  0.00     0.032 A 
HETATM   33  C   UNL     1      41.711  -8.059  -0.354  1.00  0.00     0.039 A 
HETATM   34  C   UNL     1      42.435  -8.213  -1.531  1.00  0.00     0.068 A 
HETATM   35  C   UNL     1      41.832  -8.848  -2.612  1.00  0.00     0.039 A 
HETATM   36  C   UNL     1      40.516  -9.334  -2.513  1.00  0.00     0.032 A 
BRANCH  34  37
HETATM   37  O   UNL     1      43.707  -7.712  -1.486  1.00  0.00    -0.356 OA
HETATM   38  C   UNL     1      43.866  -6.334  -1.793  1.00  0.00     0.210 C 
ENDBRANCH  34  37
ENDBRANCH   3  31
TORSDOF 7
ENDMDL
