MODEL 1
REMARK VINA RESULT:      -9.8      0.000      0.000
REMARK  5 active torsions:
REMARK  status: ('A' for Active; 'I' for Inactive)
REMARK    1  A    between atoms: N_4  and  C_5 
REMARK    2  A    between atoms: C_16  and  N_17 
REMARK       I    between atoms: N_17  and  C_18 
REMARK    3  A    between atoms: C_18  and  C_19 
REMARK       I    between atoms: C_19  and  N_20 
REMARK    4  A    between atoms: N_20  and  C_21 
REMARK    5  A    between atoms: C_21  and  C_22 
ROOT
HETATM    1  C   UNL     1      45.840 -11.157   6.979  1.00  0.00     0.072 C 
HETATM    2  C   UNL     1      44.651 -11.925   6.532  1.00  0.00     0.055 C 
HETATM    3  N   UNL     1      44.478 -12.213   5.239  1.00  0.00    -0.156 NA
HETATM    4  N   UNL     1      43.295 -12.914   5.199  1.00  0.00    -0.045 N 
HETATM    5  C   UNL     1      42.825 -13.189   6.484  1.00  0.00     0.152 C 
HETATM    6  C   UNL     1      43.618 -12.450   7.335  1.00  0.00     0.079 C 
ENDROOT
BRANCH   5   7
HETATM    7  N   UNL     1      41.739 -13.971   6.843  1.00  0.00    -0.303 N 
HETATM    8  C   UNL     1      41.674 -15.354   6.819  1.00  0.00     0.315 C 
HETATM    9  O   UNL     1      40.615 -15.952   7.003  1.00  0.00    -0.262 OA
HETATM   10  H   UNL     1      40.975 -13.541   7.348  1.00  0.00     0.171 HD
BRANCH   8  11
HETATM   11  C   UNL     1      42.974 -16.186   6.719  1.00  0.00     0.310 C 
HETATM   12  N   UNL     1      43.263 -16.620   5.446  1.00  0.00    -0.349 N 
HETATM   13  H   UNL     1      42.582 -16.414   4.721  1.00  0.00     0.163 HD
HETATM   14  O   UNL     1      43.633 -16.456   7.714  1.00  0.00    -0.262 OA
BRANCH  12  15
HETATM   15  C   UNL     1      44.312 -17.571   5.188  1.00  0.00     0.163 C 
BRANCH  15  16
HETATM   16  C   UNL     1      43.948 -18.530   4.087  1.00  0.00    -0.019 A 
HETATM   17  C   UNL     1      43.987 -19.923   4.249  1.00  0.00     0.042 A 
HETATM   18 CL   UNL     1      44.395 -20.653   5.761  1.00  0.00    -0.084 Cl
HETATM   19  C   UNL     1      43.689 -20.772   3.177  1.00  0.00     0.024 A 
HETATM   20  C   UNL     1      43.335 -20.241   1.937  1.00  0.00     0.002 A 
HETATM   21  C   UNL     1      43.257 -18.861   1.772  1.00  0.00     0.001 A 
HETATM   22  C   UNL     1      43.556 -18.012   2.839  1.00  0.00     0.010 A 
ENDBRANCH  15  16
ENDBRANCH  12  15
ENDBRANCH   8  11
ENDBRANCH   5   7
BRANCH   4  23
HETATM   23  C   UNL     1      42.670 -13.100   3.946  1.00  0.00     0.732 A 
HETATM   24  N   UNL     1      42.158 -14.220   3.550  1.00  0.00    -0.067 NA
HETATM   25  C   UNL     1      41.545 -14.218   2.319  1.00  0.00     0.065 A 
HETATM   26  C   UNL     1      41.428 -13.130   1.534  1.00  0.00     0.036 A 
HETATM   27  C   UNL     1      40.951 -15.544   1.902  1.00  0.00     0.060 C 
HETATM   28  C   UNL     1      40.724 -13.111   0.210  1.00  0.00     0.046 C 
HETATM   29  C   UNL     1      42.029 -11.862   2.014  1.00  0.00     0.268 A 
HETATM   30  C   UNL     1      40.376 -14.504  -0.317  1.00  0.00     0.005 C 
HETATM   31  C   UNL     1      39.898 -15.423   0.799  1.00  0.00     0.006 C 
HETATM   32  O   UNL     1      41.972 -10.824   1.364  1.00  0.00    -0.267 OA
HETATM   33  N   UNL     1      42.639 -11.937   3.226  1.00  0.00    -0.152 N 
HETATM   34  H   UNL     1      43.045 -11.101   3.632  1.00  0.00     0.188 HD
ENDBRANCH   4  23
TORSDOF 5
ENDMDL
MODEL 2
REMARK VINA RESULT:      -9.1      3.169      4.633
REMARK  5 active torsions:
REMARK  status: ('A' for Active; 'I' for Inactive)
REMARK    1  A    between atoms: N_4  and  C_5 
REMARK    2  A    between atoms: C_16  and  N_17 
REMARK       I    between atoms: N_17  and  C_18 
REMARK    3  A    between atoms: C_18  and  C_19 
REMARK       I    between atoms: C_19  and  N_20 
REMARK    4  A    between atoms: N_20  and  C_21 
REMARK    5  A    between atoms: C_21  and  C_22 
ROOT
HETATM    1  C   UNL     1      42.616 -16.082   7.563  1.00  0.00     0.072 C 
HETATM    2  C   UNL     1      41.764 -15.490   6.502  1.00  0.00     0.055 C 
HETATM    3  N   UNL     1      41.612 -14.166   6.416  1.00  0.00    -0.156 NA
HETATM    4  N   UNL     1      40.772 -13.985   5.343  1.00  0.00    -0.045 N 
HETATM    5  C   UNL     1      40.534 -15.188   4.677  1.00  0.00     0.152 C 
HETATM    6  C   UNL     1      41.060 -16.171   5.488  1.00  0.00     0.079 C 
ENDROOT
BRANCH   5   7
HETATM    7  N   UNL     1      39.842 -15.383   3.493  1.00  0.00    -0.303 N 
HETATM    8  C   UNL     1      40.393 -15.523   2.230  1.00  0.00     0.315 C 
HETATM    9  O   UNL     1      39.691 -15.532   1.219  1.00  0.00    -0.262 OA
HETATM   10  H   UNL     1      38.864 -15.636   3.535  1.00  0.00     0.171 HD
BRANCH   8  11
HETATM   11  C   UNL     1      41.899 -15.837   2.075  1.00  0.00     0.310 C 
HETATM   12  N   UNL     1      42.212 -17.167   2.242  1.00  0.00    -0.349 N 
HETATM   13  H   UNL     1      41.456 -17.790   2.507  1.00  0.00     0.163 HD
HETATM   14  O   UNL     1      42.715 -14.949   1.873  1.00  0.00    -0.262 OA
BRANCH  12  15
HETATM   15  C   UNL     1      43.575 -17.619   2.337  1.00  0.00     0.163 C 
BRANCH  15  16
HETATM   16  C   UNL     1      43.740 -18.704   3.366  1.00  0.00    -0.019 A 
HETATM   17  C   UNL     1      43.763 -20.068   3.035  1.00  0.00     0.042 A 
HETATM   18 CL   UNL     1      43.669 -20.608   1.397  1.00  0.00    -0.084 Cl
HETATM   19  C   UNL     1      43.866 -21.040   4.035  1.00  0.00     0.024 A 
HETATM   20  C   UNL     1      43.962 -20.664   5.375  1.00  0.00     0.002 A 
HETATM   21  C   UNL     1      43.978 -19.315   5.715  1.00  0.00     0.001 A 
HETATM   22  C   UNL     1      43.873 -18.342   4.720  1.00  0.00     0.010 A 
ENDBRANCH  15  16
ENDBRANCH  12  15
ENDBRANCH   8  11
ENDBRANCH   5   7
BRANCH   4  23
HETATM   23  C   UNL     1      40.167 -12.720   5.173  1.00  0.00     0.732 A 
HETATM   24  N   UNL     1      39.964 -12.162   4.023  1.00  0.00    -0.067 NA
HETATM   25  C   UNL     1      39.320 -10.947   4.031  1.00  0.00     0.065 A 
HETATM   26  C   UNL     1      38.875 -10.334   5.144  1.00  0.00     0.036 A 
HETATM   27  C   UNL     1      39.096 -10.336   2.666  1.00  0.00     0.060 C 
HETATM   28  C   UNL     1      38.135  -9.030   5.158  1.00  0.00     0.046 C 
HETATM   29  C   UNL     1      39.125 -10.998   6.447  1.00  0.00     0.268 A 
HETATM   30  C   UNL     1      38.160  -8.301   3.813  1.00  0.00     0.005 C 
HETATM   31  C   UNL     1      38.002  -9.267   2.647  1.00  0.00     0.006 C 
HETATM   32  O   UNL     1      38.756 -10.512   7.510  1.00  0.00    -0.267 OA
HETATM   33  N   UNL     1      39.785 -12.183   6.371  1.00  0.00    -0.152 N 
HETATM   34  H   UNL     1      39.964 -12.709   7.220  1.00  0.00     0.188 HD
ENDBRANCH   4  23
TORSDOF 5
ENDMDL
MODEL 3
REMARK VINA RESULT:      -8.9      2.508      5.413
REMARK  5 active torsions:
REMARK  status: ('A' for Active; 'I' for Inactive)
REMARK    1  A    between atoms: N_4  and  C_5 
REMARK    2  A    between atoms: C_16  and  N_17 
REMARK       I    between atoms: N_17  and  C_18 
REMARK    3  A    between atoms: C_18  and  C_19 
REMARK       I    between atoms: C_19  and  N_20 
REMARK    4  A    between atoms: N_20  and  C_21 
REMARK    5  A    between atoms: C_21  and  C_22 
ROOT
HETATM    1  C   UNL     1      38.892 -10.520   2.773  1.00  0.00     0.072 C 
HETATM    2  C   UNL     1      39.627 -11.119   3.915  1.00  0.00     0.055 C 
HETATM    3  N   UNL     1      40.506 -10.394   4.611  1.00  0.00    -0.156 NA
HETATM    4  N   UNL     1      40.984 -11.258   5.567  1.00  0.00    -0.045 N 
HETATM    5  C   UNL     1      40.284 -12.465   5.556  1.00  0.00     0.152 C 
HETATM    6  C   UNL     1      39.505 -12.431   4.420  1.00  0.00     0.079 C 
ENDROOT
BRANCH   5   7
HETATM    7  N   UNL     1      40.398 -13.523   6.443  1.00  0.00    -0.303 N 
HETATM    8  C   UNL     1      41.110 -14.693   6.244  1.00  0.00     0.315 C 
HETATM    9  O   UNL     1      41.021 -15.642   7.022  1.00  0.00    -0.262 OA
HETATM   10  H   UNL     1      40.105 -13.389   7.402  1.00  0.00     0.171 HD
BRANCH   8  11
HETATM   11  C   UNL     1      42.165 -14.772   5.116  1.00  0.00     0.310 C 
HETATM   12  N   UNL     1      41.947 -15.790   4.216  1.00  0.00    -0.349 N 
HETATM   13  H   UNL     1      41.171 -16.417   4.407  1.00  0.00     0.163 HD
HETATM   14  O   UNL     1      43.123 -14.012   5.088  1.00  0.00    -0.262 OA
BRANCH  12  15
HETATM   15  C   UNL     1      42.925 -16.149   3.223  1.00  0.00     0.163 C 
BRANCH  15  16
HETATM   16  C   UNL     1      43.235 -17.621   3.241  1.00  0.00    -0.019 A 
HETATM   17  C   UNL     1      43.928 -18.238   4.293  1.00  0.00     0.042 A 
HETATM   18 CL   UNL     1      44.425 -17.360   5.695  1.00  0.00    -0.084 Cl
HETATM   19  C   UNL     1      44.238 -19.601   4.237  1.00  0.00     0.024 A 
HETATM   20  C   UNL     1      43.847 -20.366   3.139  1.00  0.00     0.002 A 
HETATM   21  C   UNL     1      43.127 -19.775   2.105  1.00  0.00     0.001 A 
HETATM   22  C   UNL     1      42.819 -18.415   2.157  1.00  0.00     0.010 A 
ENDBRANCH  15  16
ENDBRANCH  12  15
ENDBRANCH   8  11
ENDBRANCH   5   7
BRANCH   4  23
HETATM   23  C   UNL     1      42.154 -10.895   6.271  1.00  0.00     0.732 A 
HETATM   24  N   UNL     1      42.156 -10.389   7.462  1.00  0.00    -0.067 NA
HETATM   25  C   UNL     1      43.385 -10.135   8.023  1.00  0.00     0.065 A 
HETATM   26  C   UNL     1      44.561 -10.405   7.424  1.00  0.00     0.036 A 
HETATM   27  C   UNL     1      43.341  -9.553   9.418  1.00  0.00     0.060 C 
HETATM   28  C   UNL     1      45.905 -10.169   8.046  1.00  0.00     0.046 C 
HETATM   29  C   UNL     1      44.525 -10.981   6.058  1.00  0.00     0.268 A 
HETATM   30  C   UNL     1      45.847  -9.336   9.328  1.00  0.00     0.005 C 
HETATM   31  C   UNL     1      44.651  -9.715  10.191  1.00  0.00     0.006 C 
HETATM   32  O   UNL     1      45.546 -11.257   5.438  1.00  0.00    -0.267 OA
HETATM   33  N   UNL     1      43.281 -11.186   5.553  1.00  0.00    -0.152 N 
HETATM   34  H   UNL     1      43.178 -11.608   4.636  1.00  0.00     0.188 HD
ENDBRANCH   4  23
TORSDOF 5
ENDMDL
MODEL 4
REMARK VINA RESULT:      -8.9      2.973      6.698
REMARK  5 active torsions:
REMARK  status: ('A' for Active; 'I' for Inactive)
REMARK    1  A    between atoms: N_4  and  C_5 
REMARK    2  A    between atoms: C_16  and  N_17 
REMARK       I    between atoms: N_17  and  C_18 
REMARK    3  A    between atoms: C_18  and  C_19 
REMARK       I    between atoms: C_19  and  N_20 
REMARK    4  A    between atoms: N_20  and  C_21 
REMARK    5  A    between atoms: C_21  and  C_22 
ROOT
HETATM    1  C   UNL     1      38.924 -10.380   6.942  1.00  0.00     0.072 C 
HETATM    2  C   UNL     1      39.298 -11.486   6.025  1.00  0.00     0.055 C 
HETATM    3  N   UNL     1      39.892 -12.585   6.497  1.00  0.00    -0.156 NA
HETATM    4  N   UNL     1      40.091 -13.372   5.387  1.00  0.00    -0.045 N 
HETATM    5  C   UNL     1      39.478 -12.822   4.260  1.00  0.00     0.152 C 
HETATM    6  C   UNL     1      39.083 -11.556   4.634  1.00  0.00     0.079 C 
ENDROOT
BRANCH   5   7
HETATM    7  N   UNL     1      39.359 -13.382   2.998  1.00  0.00    -0.303 N 
HETATM    8  C   UNL     1      40.065 -13.017   1.865  1.00  0.00     0.315 C 
HETATM    9  O   UNL     1      39.776 -13.463   0.755  1.00  0.00    -0.262 OA
HETATM   10  H   UNL     1      38.861 -14.257   2.898  1.00  0.00     0.171 HD
BRANCH   8  11
HETATM   11  C   UNL     1      41.345 -12.159   1.995  1.00  0.00     0.310 C 
HETATM   12  N   UNL     1      42.289 -12.689   2.845  1.00  0.00    -0.349 N 
HETATM   13  H   UNL     1      42.038 -13.537   3.344  1.00  0.00     0.163 HD
HETATM   14  O   UNL     1      41.452 -11.086   1.418  1.00  0.00    -0.262 OA
BRANCH  12  15
HETATM   15  C   UNL     1      43.450 -11.942   3.251  1.00  0.00     0.163 C 
BRANCH  15  16
HETATM   16  C   UNL     1      43.453 -11.661   4.730  1.00  0.00    -0.019 A 
HETATM   17  C   UNL     1      42.792 -10.560   5.295  1.00  0.00     0.042 A 
HETATM   18 CL   UNL     1      41.859  -9.467   4.336  1.00  0.00    -0.084 Cl
HETATM   19  C   UNL     1      42.870 -10.314   6.670  1.00  0.00     0.024 A 
HETATM   20  C   UNL     1      43.594 -11.172   7.498  1.00  0.00     0.002 A 
HETATM   21  C   UNL     1      44.224 -12.288   6.956  1.00  0.00     0.001 A 
HETATM   22  C   UNL     1      44.150 -12.534   5.585  1.00  0.00     0.010 A 
ENDBRANCH  15  16
ENDBRANCH  12  15
ENDBRANCH   8  11
ENDBRANCH   5   7
BRANCH   4  23
HETATM   23  C   UNL     1      40.973 -14.469   5.494  1.00  0.00     0.732 A 
HETATM   24  N   UNL     1      41.290 -15.244   4.507  1.00  0.00    -0.067 NA
HETATM   25  C   UNL     1      42.200 -16.240   4.773  1.00  0.00     0.065 A 
HETATM   26  C   UNL     1      42.787 -16.432   5.970  1.00  0.00     0.036 A 
HETATM   27  C   UNL     1      42.550 -17.115   3.589  1.00  0.00     0.060 C 
HETATM   28  C   UNL     1      43.810 -17.489   6.255  1.00  0.00     0.046 C 
HETATM   29  C   UNL     1      42.399 -15.530   7.082  1.00  0.00     0.268 A 
HETATM   30  C   UNL     1      43.945 -18.525   5.137  1.00  0.00     0.005 C 
HETATM   31  C   UNL     1      43.862 -17.880   3.761  1.00  0.00     0.006 C 
HETATM   32  O   UNL     1      42.880 -15.632   8.204  1.00  0.00    -0.267 OA
HETATM   33  N   UNL     1      41.480 -14.583   6.760  1.00  0.00    -0.152 N 
HETATM   34  H   UNL     1      41.190 -13.910   7.462  1.00  0.00     0.188 HD
ENDBRANCH   4  23
TORSDOF 5
ENDMDL
MODEL 5
REMARK VINA RESULT:      -8.8      3.508      7.710
REMARK  5 active torsions:
REMARK  status: ('A' for Active; 'I' for Inactive)
REMARK    1  A    between atoms: N_4  and  C_5 
REMARK    2  A    between atoms: C_16  and  N_17 
REMARK       I    between atoms: N_17  and  C_18 
REMARK    3  A    between atoms: C_18  and  C_19 
REMARK       I    between atoms: C_19  and  N_20 
REMARK    4  A    between atoms: N_20  and  C_21 
REMARK    5  A    between atoms: C_21  and  C_22 
ROOT
HETATM    1  C   UNL     1      38.995 -11.680   6.295  1.00  0.00     0.072 C 
HETATM    2  C   UNL     1      40.284 -12.171   5.750  1.00  0.00     0.055 C 
HETATM    3  N   UNL     1      40.426 -13.451   5.394  1.00  0.00    -0.156 NA
HETATM    4  N   UNL     1      41.723 -13.542   4.947  1.00  0.00    -0.045 N 
HETATM    5  C   UNL     1      42.327 -12.286   4.884  1.00  0.00     0.152 C 
HETATM    6  C   UNL     1      41.457 -11.424   5.517  1.00  0.00     0.079 C 
ENDROOT
BRANCH   5   7
HETATM    7  N   UNL     1      43.574 -11.966   4.373  1.00  0.00    -0.303 N 
HETATM    8  C   UNL     1      44.670 -11.519   5.092  1.00  0.00     0.315 C 
HETATM    9  O   UNL     1      45.685 -11.109   4.530  1.00  0.00    -0.262 OA
HETATM   10  H   UNL     1      43.801 -12.247   3.428  1.00  0.00     0.171 HD
BRANCH   8  11
HETATM   11  C   UNL     1      44.702 -11.680   6.630  1.00  0.00     0.310 C 
HETATM   12  N   UNL     1      44.865 -10.496   7.312  1.00  0.00    -0.349 N 
HETATM   13  H   UNL     1      45.009  -9.658   6.756  1.00  0.00     0.163 HD
HETATM   14  O   UNL     1      44.636 -12.783   7.154  1.00  0.00    -0.262 OA
BRANCH  12  15
HETATM   15  C   UNL     1      45.121 -10.465   8.728  1.00  0.00     0.163 C 
BRANCH  15  16
HETATM   16  C   UNL     1      44.387  -9.343   9.411  1.00  0.00    -0.019 A 
HETATM   17  C   UNL     1      43.766  -9.492  10.660  1.00  0.00     0.042 A 
HETATM   18 CL   UNL     1      43.853 -10.970  11.550  1.00  0.00    -0.084 Cl
HETATM   19  C   UNL     1      43.051  -8.433  11.229  1.00  0.00     0.024 A 
HETATM   20  C   UNL     1      42.960  -7.210  10.566  1.00  0.00     0.002 A 
HETATM   21  C   UNL     1      43.602  -7.036   9.344  1.00  0.00     0.001 A 
HETATM   22  C   UNL     1      44.314  -8.091   8.772  1.00  0.00     0.010 A 
ENDBRANCH  15  16
ENDBRANCH  12  15
ENDBRANCH   8  11
ENDBRANCH   5   7
BRANCH   4  23
HETATM   23  C   UNL     1      42.286 -14.827   4.786  1.00  0.00     0.732 A 
HETATM   24  N   UNL     1      42.050 -15.601   3.777  1.00  0.00    -0.067 NA
HETATM   25  C   UNL     1      42.716 -16.804   3.752  1.00  0.00     0.065 A 
HETATM   26  C   UNL     1      43.603 -17.198   4.686  1.00  0.00     0.036 A 
HETATM   27  C   UNL     1      42.418 -17.672   2.550  1.00  0.00     0.060 C 
HETATM   28  C   UNL     1      44.364 -18.489   4.644  1.00  0.00     0.046 C 
HETATM   29  C   UNL     1      43.849 -16.290   5.833  1.00  0.00     0.268 A 
HETATM   30  C   UNL     1      43.853 -19.464   3.582  1.00  0.00     0.005 C 
HETATM   31  C   UNL     1      43.477 -18.746   2.293  1.00  0.00     0.006 C 
HETATM   32  O   UNL     1      44.638 -16.568   6.729  1.00  0.00    -0.267 OA
HETATM   33  N   UNL     1      43.143 -15.129   5.809  1.00  0.00    -0.152 N 
HETATM   34  H   UNL     1      43.283 -14.445   6.545  1.00  0.00     0.188 HD
ENDBRANCH   4  23
TORSDOF 5
ENDMDL
MODEL 6
REMARK VINA RESULT:      -8.8      2.639      7.033
REMARK  5 active torsions:
REMARK  status: ('A' for Active; 'I' for Inactive)
REMARK    1  A    between atoms: N_4  and  C_5 
REMARK    2  A    between atoms: C_16  and  N_17 
REMARK       I    between atoms: N_17  and  C_18 
REMARK    3  A    between atoms: C_18  and  C_19 
REMARK       I    between atoms: C_19  and  N_20 
REMARK    4  A    between atoms: N_20  and  C_21 
REMARK    5  A    between atoms: C_21  and  C_22 
ROOT
HETATM    1  C   UNL     1      41.298 -12.221   0.120  1.00  0.00     0.072 C 
HETATM    2  C   UNL     1      41.220 -13.078   1.330  1.00  0.00     0.055 C 
HETATM    3  N   UNL     1      42.138 -14.023   1.551  1.00  0.00    -0.156 NA
HETATM    4  N   UNL     1      41.753 -14.607   2.734  1.00  0.00    -0.045 N 
HETATM    5  C   UNL     1      40.689 -13.917   3.317  1.00  0.00     0.152 C 
HETATM    6  C   UNL     1      40.261 -13.020   2.362  1.00  0.00     0.079 C 
ENDROOT
BRANCH   5   7
HETATM    7  N   UNL     1      40.113 -14.133   4.558  1.00  0.00    -0.303 N 
HETATM    8  C   UNL     1      40.674 -13.839   5.789  1.00  0.00     0.315 C 
HETATM    9  O   UNL     1      40.154 -14.213   6.840  1.00  0.00    -0.262 OA
HETATM   10  H   UNL     1      39.125 -14.348   4.607  1.00  0.00     0.171 HD
BRANCH   8  11
HETATM   11  C   UNL     1      41.890 -12.887   5.876  1.00  0.00     0.310 C 
HETATM   12  N   UNL     1      41.562 -11.591   6.200  1.00  0.00    -0.349 N 
HETATM   13  H   UNL     1      40.575 -11.371   6.286  1.00  0.00     0.163 HD
HETATM   14  O   UNL     1      43.021 -13.278   5.623  1.00  0.00    -0.262 OA
BRANCH  12  15
HETATM   15  C   UNL     1      42.526 -10.524   6.128  1.00  0.00     0.163 C 
BRANCH  15  16
HETATM   16  C   UNL     1      43.191 -10.273   7.454  1.00  0.00    -0.019 A 
HETATM   17  C   UNL     1      44.536 -10.592   7.701  1.00  0.00     0.042 A 
HETATM   18 CL   UNL     1      45.558 -11.242   6.470  1.00  0.00    -0.084 Cl
HETATM   19  C   UNL     1      45.093 -10.387   8.967  1.00  0.00     0.024 A 
HETATM   20  C   UNL     1      44.322  -9.848   9.997  1.00  0.00     0.002 A 
HETATM   21  C   UNL     1      42.998  -9.493   9.755  1.00  0.00     0.001 A 
HETATM   22  C   UNL     1      42.438  -9.698   8.494  1.00  0.00     0.010 A 
ENDBRANCH  15  16
ENDBRANCH  12  15
ENDBRANCH   8  11
ENDBRANCH   5   7
BRANCH   4  23
HETATM   23  C   UNL     1      42.335 -15.843   3.091  1.00  0.00     0.732 A 
HETATM   24  N   UNL     1      42.190 -16.935   2.413  1.00  0.00    -0.067 NA
HETATM   25  C   UNL     1      42.864 -18.042   2.874  1.00  0.00     0.065 A 
HETATM   26  C   UNL     1      43.669 -18.043   3.953  1.00  0.00     0.036 A 
HETATM   27  C   UNL     1      42.674 -19.293   2.046  1.00  0.00     0.060 C 
HETATM   28  C   UNL     1      44.439 -19.235   4.438  1.00  0.00     0.046 C 
HETATM   29  C   UNL     1      43.811 -16.776   4.712  1.00  0.00     0.268 A 
HETATM   30  C   UNL     1      44.026 -20.544   3.762  1.00  0.00     0.005 C 
HETATM   31  C   UNL     1      43.758 -20.348   2.276  1.00  0.00     0.006 C 
HETATM   32  O   UNL     1      44.522 -16.686   5.707  1.00  0.00    -0.267 OA
HETATM   33  N   UNL     1      43.103 -15.728   4.218  1.00  0.00    -0.152 N 
HETATM   34  H   UNL     1      43.176 -14.821   4.667  1.00  0.00     0.188 HD
ENDBRANCH   4  23
TORSDOF 5
ENDMDL
MODEL 7
REMARK VINA RESULT:      -8.5      2.991      5.232
REMARK  5 active torsions:
REMARK  status: ('A' for Active; 'I' for Inactive)
REMARK    1  A    between atoms: N_4  and  C_5 
REMARK    2  A    between atoms: C_16  and  N_17 
REMARK       I    between atoms: N_17  and  C_18 
REMARK    3  A    between atoms: C_18  and  C_19 
REMARK       I    between atoms: C_19  and  N_20 
REMARK    4  A    between atoms: N_20  and  C_21 
REMARK    5  A    between atoms: C_21  and  C_22 
ROOT
HETATM    1  C   UNL     1      43.231 -16.896   1.895  1.00  0.00     0.072 C 
HETATM    2  C   UNL     1      42.684 -15.527   1.728  1.00  0.00     0.055 C 
HETATM    3  N   UNL     1      41.564 -15.326   1.028  1.00  0.00    -0.156 NA
HETATM    4  N   UNL     1      41.365 -13.966   1.081  1.00  0.00    -0.045 N 
HETATM    5  C   UNL     1      42.276 -13.354   1.942  1.00  0.00     0.152 C 
HETATM    6  C   UNL     1      43.201 -14.327   2.257  1.00  0.00     0.079 C 
ENDROOT
BRANCH   5   7
HETATM    7  N   UNL     1      42.311 -12.028   2.341  1.00  0.00    -0.303 N 
HETATM    8  C   UNL     1      41.666 -11.479   3.436  1.00  0.00     0.315 C 
HETATM    9  O   UNL     1      41.626 -10.262   3.618  1.00  0.00    -0.262 OA
HETATM   10  H   UNL     1      43.003 -11.413   1.933  1.00  0.00     0.171 HD
BRANCH   8  11
HETATM   11  C   UNL     1      41.116 -12.401   4.550  1.00  0.00     0.310 C 
HETATM   12  N   UNL     1      42.077 -12.851   5.426  1.00  0.00    -0.349 N 
HETATM   13  H   UNL     1      43.040 -12.597   5.228  1.00  0.00     0.163 HD
HETATM   14  O   UNL     1      39.936 -12.719   4.586  1.00  0.00    -0.262 OA
BRANCH  12  15
HETATM   15  C   UNL     1      41.796 -13.874   6.399  1.00  0.00     0.163 C 
BRANCH  15  16
HETATM   16  C   UNL     1      42.596 -15.125   6.151  1.00  0.00    -0.019 A 
HETATM   17  C   UNL     1      42.086 -16.224   5.443  1.00  0.00     0.042 A 
HETATM   18 CL   UNL     1      40.510 -16.199   4.736  1.00  0.00    -0.084 Cl
HETATM   19  C   UNL     1      42.851 -17.384   5.285  1.00  0.00     0.024 A 
HETATM   20  C   UNL     1      44.137 -17.456   5.818  1.00  0.00     0.002 A 
HETATM   21  C   UNL     1      44.669 -16.361   6.492  1.00  0.00     0.001 A 
HETATM   22  C   UNL     1      43.908 -15.203   6.653  1.00  0.00     0.010 A 
ENDBRANCH  15  16
ENDBRANCH  12  15
ENDBRANCH   8  11
ENDBRANCH   5   7
BRANCH   4  23
HETATM   23  C   UNL     1      40.438 -13.391   0.184  1.00  0.00     0.732 A 
HETATM   24  N   UNL     1      39.458 -12.627   0.546  1.00  0.00    -0.067 NA
HETATM   25  C   UNL     1      38.674 -12.111  -0.460  1.00  0.00     0.065 A 
HETATM   26  C   UNL     1      38.884 -12.331  -1.771  1.00  0.00     0.036 A 
HETATM   27  C   UNL     1      37.548 -11.216   0.007  1.00  0.00     0.060 C 
HETATM   28  C   UNL     1      38.059 -11.738  -2.874  1.00  0.00     0.046 C 
HETATM   29  C   UNL     1      40.013 -13.214  -2.153  1.00  0.00     0.268 A 
HETATM   30  C   UNL     1      36.774 -11.069  -2.383  1.00  0.00     0.005 C 
HETATM   31  C   UNL     1      37.000 -10.301  -1.089  1.00  0.00     0.006 C 
HETATM   32  O   UNL     1      40.276 -13.470  -3.323  1.00  0.00    -0.267 OA
HETATM   33  N   UNL     1      40.733 -13.709  -1.113  1.00  0.00    -0.152 N 
HETATM   34  H   UNL     1      41.540 -14.295  -1.299  1.00  0.00     0.188 HD
ENDBRANCH   4  23
TORSDOF 5
ENDMDL
MODEL 8
REMARK VINA RESULT:      -8.4      3.540      6.413
REMARK  5 active torsions:
REMARK  status: ('A' for Active; 'I' for Inactive)
REMARK    1  A    between atoms: N_4  and  C_5 
REMARK    2  A    between atoms: C_16  and  N_17 
REMARK       I    between atoms: N_17  and  C_18 
REMARK    3  A    between atoms: C_18  and  C_19 
REMARK       I    between atoms: C_19  and  N_20 
REMARK    4  A    between atoms: N_20  and  C_21 
REMARK    5  A    between atoms: C_21  and  C_22 
ROOT
HETATM    1  C   UNL     1      40.602  -8.570   2.979  1.00  0.00     0.072 C 
HETATM    2  C   UNL     1      40.673  -9.383   4.218  1.00  0.00     0.055 C 
HETATM    3  N   UNL     1      41.135  -8.851   5.353  1.00  0.00    -0.156 NA
HETATM    4  N   UNL     1      41.061  -9.874   6.268  1.00  0.00    -0.045 N 
HETATM    5  C   UNL     1      40.410 -10.986   5.734  1.00  0.00     0.152 C 
HETATM    6  C   UNL     1      40.276 -10.726   4.387  1.00  0.00     0.079 C 
ENDROOT
BRANCH   5   7
HETATM    7  N   UNL     1      40.043 -12.152   6.386  1.00  0.00    -0.303 N 
HETATM    8  C   UNL     1      40.618 -13.402   6.227  1.00  0.00     0.315 C 
HETATM    9  O   UNL     1      40.121 -14.409   6.730  1.00  0.00    -0.262 OA
HETATM   10  H   UNL     1      39.432 -12.090   7.190  1.00  0.00     0.171 HD
BRANCH   8  11
HETATM   11  C   UNL     1      41.999 -13.534   5.543  1.00  0.00     0.310 C 
HETATM   12  N   UNL     1      41.979 -14.275   4.383  1.00  0.00    -0.349 N 
HETATM   13  H   UNL     1      41.097 -14.708   4.126  1.00  0.00     0.163 HD
HETATM   14  O   UNL     1      43.005 -13.052   6.044  1.00  0.00    -0.262 OA
BRANCH  12  15
HETATM   15  C   UNL     1      43.191 -14.679   3.720  1.00  0.00     0.163 C 
BRANCH  15  16
HETATM   16  C   UNL     1      43.304 -16.175   3.610  1.00  0.00    -0.019 A 
HETATM   17  C   UNL     1      43.863 -16.970   4.623  1.00  0.00     0.042 A 
HETATM   18 CL   UNL     1      44.409 -16.293   6.115  1.00  0.00    -0.084 Cl
HETATM   19  C   UNL     1      43.994 -18.352   4.450  1.00  0.00     0.024 A 
HETATM   20  C   UNL     1      43.555 -18.959   3.274  1.00  0.00     0.002 A 
HETATM   21  C   UNL     1      42.965 -18.188   2.277  1.00  0.00     0.001 A 
HETATM   22  C   UNL     1      42.836 -16.808   2.445  1.00  0.00     0.010 A 
ENDBRANCH  15  16
ENDBRANCH  12  15
ENDBRANCH   8  11
ENDBRANCH   5   7
BRANCH   4  23
HETATM   23  C   UNL     1      41.759  -9.732   7.488  1.00  0.00     0.732 A 
HETATM   24  N   UNL     1      41.351  -9.003   8.476  1.00  0.00    -0.067 NA
HETATM   25  C   UNL     1      42.128  -9.012   9.611  1.00  0.00     0.065 A 
HETATM   26  C   UNL     1      43.250  -9.742   9.755  1.00  0.00     0.036 A 
HETATM   27  C   UNL     1      41.609  -8.155  10.744  1.00  0.00     0.060 C 
HETATM   28  C   UNL     1      44.079  -9.788  11.004  1.00  0.00     0.046 C 
HETATM   29  C   UNL     1      43.694 -10.564   8.602  1.00  0.00     0.268 A 
HETATM   30  C   UNL     1      43.699  -8.718  12.028  1.00  0.00     0.005 C 
HETATM   31  C   UNL     1      42.190  -8.528  12.109  1.00  0.00     0.006 C 
HETATM   32  O   UNL     1      44.703 -11.258   8.644  1.00  0.00    -0.267 OA
HETATM   33  N   UNL     1      42.895 -10.494   7.505  1.00  0.00    -0.152 N 
HETATM   34  H   UNL     1      43.119 -11.054   6.689  1.00  0.00     0.188 HD
ENDBRANCH   4  23
TORSDOF 5
ENDMDL
MODEL 9
REMARK VINA RESULT:      -8.3      3.397      6.433
REMARK  5 active torsions:
REMARK  status: ('A' for Active; 'I' for Inactive)
REMARK    1  A    between atoms: N_4  and  C_5 
REMARK    2  A    between atoms: C_16  and  N_17 
REMARK       I    between atoms: N_17  and  C_18 
REMARK    3  A    between atoms: C_18  and  C_19 
REMARK       I    between atoms: C_19  and  N_20 
REMARK    4  A    between atoms: N_20  and  C_21 
REMARK    5  A    between atoms: C_21  and  C_22 
ROOT
HETATM    1  C   UNL     1      44.291 -16.330   6.140  1.00  0.00     0.072 C 
HETATM    2  C   UNL     1      43.160 -15.525   5.614  1.00  0.00     0.055 C 
HETATM    3  N   UNL     1      42.964 -15.411   4.298  1.00  0.00    -0.156 NA
HETATM    4  N   UNL     1      41.855 -14.606   4.184  1.00  0.00    -0.045 N 
HETATM    5  C   UNL     1      41.281 -14.355   5.430  1.00  0.00     0.152 C 
HETATM    6  C   UNL     1      42.183 -14.831   6.357  1.00  0.00     0.079 C 
ENDROOT
BRANCH   5   7
HETATM    7  N   UNL     1      40.095 -13.692   5.702  1.00  0.00    -0.303 N 
HETATM    8  C   UNL     1      39.958 -12.362   6.061  1.00  0.00     0.315 C 
HETATM    9  O   UNL     1      38.880 -11.904   6.438  1.00  0.00    -0.262 OA
HETATM   10  H   UNL     1      39.220 -14.132   5.448  1.00  0.00     0.171 HD
BRANCH   8  11
HETATM   11  C   UNL     1      41.130 -11.377   5.838  1.00  0.00     0.310 C 
HETATM   12  N   UNL     1      41.982 -11.270   6.913  1.00  0.00    -0.349 N 
HETATM   13  H   UNL     1      41.733 -11.783   7.753  1.00  0.00     0.163 HD
HETATM   14  O   UNL     1      41.229 -10.732   4.804  1.00  0.00    -0.262 OA
BRANCH  12  15
HETATM   15  C   UNL     1      43.005 -10.260   6.973  1.00  0.00     0.163 C 
BRANCH  15  16
HETATM   16  C   UNL     1      43.431  -9.969   8.386  1.00  0.00    -0.019 A 
HETATM   17  C   UNL     1      44.737 -10.195   8.848  1.00  0.00     0.042 A 
HETATM   18 CL   UNL     1      45.986 -10.767   7.801  1.00  0.00    -0.084 Cl
HETATM   19  C   UNL     1      45.069  -9.957  10.186  1.00  0.00     0.024 A 
HETATM   20  C   UNL     1      44.107  -9.478  11.074  1.00  0.00     0.002 A 
HETATM   21  C   UNL     1      42.817  -9.215  10.622  1.00  0.00     0.001 A 
HETATM   22  C   UNL     1      42.483  -9.454   9.289  1.00  0.00     0.010 A 
ENDBRANCH  15  16
ENDBRANCH  12  15
ENDBRANCH   8  11
ENDBRANCH   5   7
BRANCH   4  23
HETATM   23  C   UNL     1      41.566 -14.041   2.922  1.00  0.00     0.732 A 
HETATM   24  N   UNL     1      40.901 -14.645   1.991  1.00  0.00    -0.067 NA
HETATM   25  C   UNL     1      40.667 -13.934   0.838  1.00  0.00     0.065 A 
HETATM   26  C   UNL     1      41.061 -12.661   0.640  1.00  0.00     0.036 A 
HETATM   27  C   UNL     1      39.878 -14.675  -0.218  1.00  0.00     0.060 C 
HETATM   28  C   UNL     1      40.774 -11.866  -0.598  1.00  0.00     0.046 C 
HETATM   29  C   UNL     1      41.826 -11.997   1.724  1.00  0.00     0.268 A 
HETATM   30  C   UNL     1      40.224 -12.708  -1.750  1.00  0.00     0.005 C 
HETATM   31  C   UNL     1      39.235 -13.756  -1.258  1.00  0.00     0.006 C 
HETATM   32  O   UNL     1      42.225 -10.842   1.630  1.00  0.00    -0.267 OA
HETATM   33  N   UNL     1      42.042 -12.762   2.827  1.00  0.00    -0.152 N 
HETATM   34  H   UNL     1      42.531 -12.363   3.621  1.00  0.00     0.188 HD
ENDBRANCH   4  23
TORSDOF 5
ENDMDL
MODEL 10
REMARK VINA RESULT:      -8.1      4.125      7.910
REMARK  5 active torsions:
REMARK  status: ('A' for Active; 'I' for Inactive)
REMARK    1  A    between atoms: N_4  and  C_5 
REMARK    2  A    between atoms: C_16  and  N_17 
REMARK       I    between atoms: N_17  and  C_18 
REMARK    3  A    between atoms: C_18  and  C_19 
REMARK       I    between atoms: C_19  and  N_20 
REMARK    4  A    between atoms: N_20  and  C_21 
REMARK    5  A    between atoms: C_21  and  C_22 
ROOT
HETATM    1  C   UNL     1      39.509  -9.881   5.381  1.00  0.00     0.072 C 
HETATM    2  C   UNL     1      40.789 -10.616   5.531  1.00  0.00     0.055 C 
HETATM    3  N   UNL     1      40.837 -11.939   5.351  1.00  0.00    -0.156 NA
HETATM    4  N   UNL     1      42.153 -12.269   5.571  1.00  0.00    -0.045 N 
HETATM    5  C   UNL     1      42.941 -11.129   5.733  1.00  0.00     0.152 C 
HETATM    6  C   UNL     1      42.056 -10.078   5.837  1.00  0.00     0.079 C 
ENDROOT
BRANCH   5   7
HETATM    7  N   UNL     1      44.320 -11.058   5.852  1.00  0.00    -0.303 N 
HETATM    8  C   UNL     1      45.032 -10.683   6.978  1.00  0.00     0.315 C 
HETATM    9  O   UNL     1      46.248 -10.497   6.939  1.00  0.00    -0.262 OA
HETATM   10  H   UNL     1      44.894 -11.487   5.137  1.00  0.00     0.171 HD
BRANCH   8  11
HETATM   11  C   UNL     1      44.333 -10.648   8.357  1.00  0.00     0.310 C 
HETATM   12  N   UNL     1      44.074  -9.378   8.819  1.00  0.00    -0.349 N 
HETATM   13  H   UNL     1      44.414  -8.603   8.258  1.00  0.00     0.163 HD
HETATM   14  O   UNL     1      44.094 -11.676   8.974  1.00  0.00    -0.262 OA
BRANCH  12  15
HETATM   15  C   UNL     1      43.619  -9.138  10.163  1.00  0.00     0.163 C 
BRANCH  15  16
HETATM   16  C   UNL     1      42.129  -9.305  10.294  1.00  0.00    -0.019 A 
HETATM   17  C   UNL     1      41.512  -9.713  11.486  1.00  0.00     0.042 A 
HETATM   18 CL   UNL     1      42.418  -9.993  12.930  1.00  0.00    -0.084 Cl
HETATM   19  C   UNL     1      40.127  -9.905  11.541  1.00  0.00     0.024 A 
HETATM   20  C   UNL     1      39.341  -9.677  10.412  1.00  0.00     0.002 A 
HETATM   21  C   UNL     1      39.935  -9.237   9.233  1.00  0.00     0.001 A 
HETATM   22  C   UNL     1      41.316  -9.048   9.174  1.00  0.00     0.010 A 
ENDBRANCH  15  16
ENDBRANCH  12  15
ENDBRANCH   8  11
ENDBRANCH   5   7
BRANCH   4  23
HETATM   23  C   UNL     1      42.478 -13.630   5.761  1.00  0.00     0.732 A 
HETATM   24  N   UNL     1      42.646 -14.478   4.798  1.00  0.00    -0.067 NA
HETATM   25  C   UNL     1      43.005 -15.756   5.155  1.00  0.00     0.065 A 
HETATM   26  C   UNL     1      43.214 -16.157   6.423  1.00  0.00     0.036 A 
HETATM   27  C   UNL     1      43.200 -16.709   3.997  1.00  0.00     0.060 C 
HETATM   28  C   UNL     1      43.646 -17.538   6.817  1.00  0.00     0.046 C 
HETATM   29  C   UNL     1      43.009 -15.164   7.506  1.00  0.00     0.268 A 
HETATM   30  C   UNL     1      43.571 -18.550   5.673  1.00  0.00     0.005 C 
HETATM   31  C   UNL     1      44.030 -17.943   4.355  1.00  0.00     0.006 C 
HETATM   32  O   UNL     1      43.176 -15.441   8.688  1.00  0.00    -0.267 OA
HETATM   33  N   UNL     1      42.634 -13.927   7.088  1.00  0.00    -0.152 N 
HETATM   34  H   UNL     1      42.506 -13.187   7.770  1.00  0.00     0.188 HD
ENDBRANCH   4  23
TORSDOF 5
ENDMDL
