MODEL 1
REMARK VINA RESULT:      -8.6      0.000      0.000
REMARK  8 active torsions:
REMARK  status: ('A' for Active; 'I' for Inactive)
REMARK    1  A    between atoms: C_8  and  N_9 
REMARK    2  A    between atoms: C_10  and  S_11 
REMARK    3  A    between atoms: S_11  and  C_12 
REMARK    4  A    between atoms: C_12  and  C_13 
REMARK       I    between atoms: C_13  and  N_14 
REMARK    5  A    between atoms: N_14  and  C_15 
REMARK    6  A    between atoms: C_15  and  C_16 
REMARK    7  A    between atoms: C_16  and  C_17 
REMARK    8  A    between atoms: C_27  and  N_28 
ROOT
HETATM    1  N   UNL     1      43.213 -16.218   3.822  1.00  0.00    -0.275 N 
HETATM    2  C   UNL     1      43.522 -16.438   5.190  1.00  0.00     0.177 A 
HETATM    3  N   UNL     1      43.856 -17.586   5.730  1.00  0.00    -0.204 NA
HETATM    4  C   UNL     1      43.913 -18.604   4.843  1.00  0.00     0.162 A 
HETATM    5  C   UNL     1      43.670 -18.600   3.497  1.00  0.00     0.081 A 
HETATM    6  C   UNL     1      43.309 -17.345   2.909  1.00  0.00     0.124 A 
HETATM    7  N   UNL     1      44.228 -19.896   5.145  1.00  0.00    -0.260 N 
HETATM    8  H   UNL     1      44.478 -20.278   6.050  1.00  0.00     0.191 HD
HETATM    9  N   UNL     1      44.166 -20.720   4.075  1.00  0.00    -0.177 NA
HETATM   10  C   UNL     1      43.816 -19.922   3.053  1.00  0.00     0.068 A 
HETATM   11  C   UNL     1      43.626 -20.506   1.705  1.00  0.00     0.073 C 
ENDROOT
BRANCH   2  12
HETATM   12  S   UNL     1      43.413 -15.084   6.337  1.00  0.00    -0.082 SA
BRANCH  12  13
HETATM   13  C   UNL     1      41.683 -15.235   6.852  1.00  0.00     0.185 C 
BRANCH  13  14
HETATM   14  C   UNL     1      40.866 -13.977   6.569  1.00  0.00     0.227 C 
HETATM   15  N   UNL     1      41.654 -12.859   6.350  1.00  0.00    -0.360 N 
HETATM   16  H   UNL     1      42.621 -12.889   6.649  1.00  0.00     0.162 HD
HETATM   17  O   UNL     1      39.641 -13.947   6.499  1.00  0.00    -0.273 OA
BRANCH  15  18
HETATM   18  C   UNL     1      41.062 -11.550   6.115  1.00  0.00     0.127 C 
BRANCH  18  19
HETATM   19  C   UNL     1      42.104 -10.548   5.619  1.00  0.00     0.058 C 
BRANCH  19  20
HETATM   20  C   UNL     1      43.408 -10.654   6.367  1.00  0.00    -0.057 A 
HETATM   21  C   UNL     1      43.538 -10.113   7.653  1.00  0.00     0.007 A 
HETATM   22  C   UNL     1      44.748 -10.212   8.342  1.00  0.00     0.001 A 
HETATM   23  C   UNL     1      45.839 -10.847   7.750  1.00  0.00     0.000 A 
HETATM   24  C   UNL     1      45.722 -11.381   6.469  1.00  0.00     0.001 A 
HETATM   25  C   UNL     1      44.513 -11.283   5.778  1.00  0.00     0.007 A 
ENDBRANCH  19  20
ENDBRANCH  18  19
ENDBRANCH  15  18
ENDBRANCH  13  14
ENDBRANCH  12  13
ENDBRANCH   2  12
BRANCH   1  26
HETATM   26  C   UNL     1      42.637 -14.986   3.384  1.00  0.00     0.051 A 
HETATM   27  C   UNL     1      41.241 -14.812   3.255  1.00  0.00    -0.013 A 
HETATM   28  C   UNL     1      40.284 -15.946   3.520  1.00  0.00     0.052 C 
HETATM   29  C   UNL     1      40.764 -13.561   2.816  1.00  0.00     0.042 A 
HETATM   30 CL   UNL     1      39.078 -13.266   2.564  1.00  0.00    -0.084 Cl
HETATM   31  C   UNL     1      41.641 -12.501   2.564  1.00  0.00     0.024 A 
HETATM   32  C   UNL     1      43.011 -12.670   2.729  1.00  0.00     0.004 A 
HETATM   33  C   UNL     1      43.506 -13.906   3.135  1.00  0.00     0.031 A 
ENDBRANCH   1  26
BRANCH   6  34
HETATM   34  N   UNL     1      43.075 -17.231   1.615  1.00  0.00    -0.384 N 
HETATM   35  H   UNL     1      42.149 -17.055   1.256  1.00  0.00     0.157 HD
HETATM   36  H   UNL     1      43.835 -17.353   0.958  1.00  0.00     0.157 HD
ENDBRANCH   6  34
TORSDOF 8
ENDMDL
MODEL 2
REMARK VINA RESULT:      -8.3      3.004      8.168
REMARK  8 active torsions:
REMARK  status: ('A' for Active; 'I' for Inactive)
REMARK    1  A    between atoms: C_8  and  N_9 
REMARK    2  A    between atoms: C_10  and  S_11 
REMARK    3  A    between atoms: S_11  and  C_12 
REMARK    4  A    between atoms: C_12  and  C_13 
REMARK       I    between atoms: C_13  and  N_14 
REMARK    5  A    between atoms: N_14  and  C_15 
REMARK    6  A    between atoms: C_15  and  C_16 
REMARK    7  A    between atoms: C_16  and  C_17 
REMARK    8  A    between atoms: C_27  and  N_28 
ROOT
HETATM    1  N   UNL     1      41.723 -11.750   5.281  1.00  0.00    -0.275 N 
HETATM    2  C   UNL     1      42.241 -11.436   3.997  1.00  0.00     0.177 A 
HETATM    3  N   UNL     1      42.205 -10.259   3.417  1.00  0.00    -0.204 NA
HETATM    4  C   UNL     1      41.629  -9.301   4.177  1.00  0.00     0.162 A 
HETATM    5  C   UNL     1      41.088  -9.392   5.430  1.00  0.00     0.081 A 
HETATM    6  C   UNL     1      41.131 -10.677   6.062  1.00  0.00     0.124 A 
HETATM    7  N   UNL     1      41.461  -7.999   3.809  1.00  0.00    -0.260 N 
HETATM    8  H   UNL     1      41.749  -7.557   2.943  1.00  0.00     0.191 HD
HETATM    9  N   UNL     1      40.815  -7.264   4.741  1.00  0.00    -0.177 NA
HETATM   10  C   UNL     1      40.577  -8.125   5.745  1.00  0.00     0.068 A 
HETATM   11  C   UNL     1      39.846  -7.659   6.946  1.00  0.00     0.073 C 
ENDROOT
BRANCH   2  12
HETATM   12  S   UNL     1      42.969 -12.724   3.012  1.00  0.00    -0.082 SA
BRANCH  12  13
HETATM   13  C   UNL     1      41.633 -13.019   1.824  1.00  0.00     0.185 C 
BRANCH  13  14
HETATM   14  C   UNL     1      41.385 -14.501   1.562  1.00  0.00     0.227 C 
HETATM   15  N   UNL     1      41.907 -15.320   2.550  1.00  0.00    -0.360 N 
HETATM   16  H   UNL     1      42.604 -14.931   3.175  1.00  0.00     0.162 HD
HETATM   17  O   UNL     1      40.757 -14.941   0.604  1.00  0.00    -0.273 OA
BRANCH  15  18
HETATM   18  C   UNL     1      41.821 -16.769   2.457  1.00  0.00     0.127 C 
BRANCH  18  19
HETATM   19  C   UNL     1      43.184 -17.390   2.153  1.00  0.00     0.058 C 
BRANCH  19  20
HETATM   20  C   UNL     1      43.513 -18.539   3.072  1.00  0.00    -0.057 A 
HETATM   21  C   UNL     1      43.551 -19.852   2.585  1.00  0.00     0.007 A 
HETATM   22  C   UNL     1      43.855 -20.913   3.441  1.00  0.00     0.001 A 
HETATM   23  C   UNL     1      44.119 -20.672   4.788  1.00  0.00     0.000 A 
HETATM   24  C   UNL     1      44.076 -19.371   5.282  1.00  0.00     0.001 A 
HETATM   25  C   UNL     1      43.773 -18.307   4.430  1.00  0.00     0.007 A 
ENDBRANCH  19  20
ENDBRANCH  18  19
ENDBRANCH  15  18
ENDBRANCH  13  14
ENDBRANCH  12  13
ENDBRANCH   2  12
BRANCH   1  26
HETATM   26  C   UNL     1      41.603 -13.105   5.717  1.00  0.00     0.051 A 
HETATM   27  C   UNL     1      42.631 -13.761   6.430  1.00  0.00    -0.013 A 
HETATM   28  C   UNL     1      43.942 -13.075   6.719  1.00  0.00     0.052 C 
HETATM   29  C   UNL     1      42.423 -15.099   6.818  1.00  0.00     0.042 A 
HETATM   30 CL   UNL     1      43.643 -16.010   7.638  1.00  0.00    -0.084 Cl
HETATM   31  C   UNL     1      41.213 -15.748   6.555  1.00  0.00     0.024 A 
HETATM   32  C   UNL     1      40.191 -15.084   5.885  1.00  0.00     0.004 A 
HETATM   33  C   UNL     1      40.386 -13.771   5.467  1.00  0.00     0.031 A 
ENDBRANCH   1  26
BRANCH   6  34
HETATM   34  N   UNL     1      40.654 -10.863   7.278  1.00  0.00    -0.384 N 
HETATM   35  H   UNL     1      41.254 -10.877   8.088  1.00  0.00     0.157 HD
HETATM   36  H   UNL     1      39.664 -11.028   7.405  1.00  0.00     0.157 HD
ENDBRANCH   6  34
TORSDOF 8
ENDMDL
MODEL 3
REMARK VINA RESULT:      -8.2      3.365      5.332
REMARK  8 active torsions:
REMARK  status: ('A' for Active; 'I' for Inactive)
REMARK    1  A    between atoms: C_8  and  N_9 
REMARK    2  A    between atoms: C_10  and  S_11 
REMARK    3  A    between atoms: S_11  and  C_12 
REMARK    4  A    between atoms: C_12  and  C_13 
REMARK       I    between atoms: C_13  and  N_14 
REMARK    5  A    between atoms: N_14  and  C_15 
REMARK    6  A    between atoms: C_15  and  C_16 
REMARK    7  A    between atoms: C_16  and  C_17 
REMARK    8  A    between atoms: C_27  and  N_28 
ROOT
HETATM    1  N   UNL     1      40.912 -14.305   1.510  1.00  0.00    -0.275 N 
HETATM    2  C   UNL     1      41.473 -13.018   1.298  1.00  0.00     0.177 A 
HETATM    3  N   UNL     1      41.359 -12.297   0.209  1.00  0.00    -0.204 NA
HETATM    4  C   UNL     1      40.608 -12.883  -0.750  1.00  0.00     0.162 A 
HETATM    5  C   UNL     1      39.974 -14.095  -0.740  1.00  0.00     0.081 A 
HETATM    6  C   UNL     1      40.097 -14.879   0.452  1.00  0.00     0.124 A 
HETATM    7  N   UNL     1      40.340 -12.350  -1.976  1.00  0.00    -0.260 N 
HETATM    8  H   UNL     1      40.638 -11.452  -2.341  1.00  0.00     0.191 HD
HETATM    9  N   UNL     1      39.600 -13.167  -2.759  1.00  0.00    -0.177 NA
HETATM   10  C   UNL     1      39.376 -14.251  -1.998  1.00  0.00     0.068 A 
HETATM   11  C   UNL     1      38.605 -15.386  -2.557  1.00  0.00     0.073 C 
ENDROOT
BRANCH   2  12
HETATM   12  S   UNL     1      42.477 -12.285   2.570  1.00  0.00    -0.082 SA
BRANCH  12  13
HETATM   13  C   UNL     1      41.190 -11.618   3.655  1.00  0.00     0.185 C 
BRANCH  13  14
HETATM   14  C   UNL     1      41.544 -11.724   5.136  1.00  0.00     0.227 C 
HETATM   15  N   UNL     1      42.639 -12.540   5.372  1.00  0.00    -0.360 N 
HETATM   16  H   UNL     1      42.926 -13.180   4.640  1.00  0.00     0.162 HD
HETATM   17  O   UNL     1      40.960 -11.127   6.034  1.00  0.00    -0.273 OA
BRANCH  15  18
HETATM   18  C   UNL     1      43.103 -12.812   6.724  1.00  0.00     0.127 C 
BRANCH  18  19
HETATM   19  C   UNL     1      44.595 -12.512   6.872  1.00  0.00     0.058 C 
BRANCH  19  20
HETATM   20  C   UNL     1      44.854 -11.155   7.472  1.00  0.00    -0.057 A 
HETATM   21  C   UNL     1      43.805 -10.406   8.021  1.00  0.00     0.007 A 
HETATM   22  C   UNL     1      44.050  -9.148   8.575  1.00  0.00     0.001 A 
HETATM   23  C   UNL     1      45.342  -8.626   8.581  1.00  0.00     0.000 A 
HETATM   24  C   UNL     1      46.390  -9.360   8.031  1.00  0.00     0.001 A 
HETATM   25  C   UNL     1      46.149 -10.618   7.476  1.00  0.00     0.007 A 
ENDBRANCH  19  20
ENDBRANCH  18  19
ENDBRANCH  15  18
ENDBRANCH  13  14
ENDBRANCH  12  13
ENDBRANCH   2  12
BRANCH   1  26
HETATM   26  C   UNL     1      41.290 -15.099   2.636  1.00  0.00     0.051 A 
HETATM   27  C   UNL     1      42.460 -15.892   2.640  1.00  0.00    -0.013 A 
HETATM   28  C   UNL     1      43.345 -15.985   1.423  1.00  0.00     0.052 C 
HETATM   29  C   UNL     1      42.751 -16.643   3.795  1.00  0.00     0.042 A 
HETATM   30 CL   UNL     1      44.123 -17.693   3.877  1.00  0.00    -0.084 Cl
HETATM   31  C   UNL     1      41.938 -16.568   4.930  1.00  0.00     0.024 A 
HETATM   32  C   UNL     1      40.809 -15.756   4.932  1.00  0.00     0.004 A 
HETATM   33  C   UNL     1      40.485 -15.028   3.791  1.00  0.00     0.031 A 
ENDBRANCH   1  26
BRANCH   6  34
HETATM   34  N   UNL     1      39.507 -16.053   0.569  1.00  0.00    -0.384 N 
HETATM   35  H   UNL     1      39.275 -16.445   1.469  1.00  0.00     0.157 HD
HETATM   36  H   UNL     1      39.304 -16.594  -0.262  1.00  0.00     0.157 HD
ENDBRANCH   6  34
TORSDOF 8
ENDMDL
MODEL 4
REMARK VINA RESULT:      -8.2      2.251      7.704
REMARK  8 active torsions:
REMARK  status: ('A' for Active; 'I' for Inactive)
REMARK    1  A    between atoms: C_8  and  N_9 
REMARK    2  A    between atoms: C_10  and  S_11 
REMARK    3  A    between atoms: S_11  and  C_12 
REMARK    4  A    between atoms: C_12  and  C_13 
REMARK       I    between atoms: C_13  and  N_14 
REMARK    5  A    between atoms: N_14  and  C_15 
REMARK    6  A    between atoms: C_15  and  C_16 
REMARK    7  A    between atoms: C_16  and  C_17 
REMARK    8  A    between atoms: C_27  and  N_28 
ROOT
HETATM    1  N   UNL     1      42.730 -11.120   6.444  1.00  0.00    -0.275 N 
HETATM    2  C   UNL     1      43.661 -11.940   7.134  1.00  0.00     0.177 A 
HETATM    3  N   UNL     1      44.284 -11.632   8.247  1.00  0.00    -0.204 NA
HETATM    4  C   UNL     1      43.945 -10.419   8.737  1.00  0.00     0.162 A 
HETATM    5  C   UNL     1      43.070  -9.493   8.239  1.00  0.00     0.081 A 
HETATM    6  C   UNL     1      42.389  -9.833   7.026  1.00  0.00     0.124 A 
HETATM    7  N   UNL     1      44.451  -9.859   9.872  1.00  0.00    -0.260 N 
HETATM    8  H   UNL     1      45.125 -10.260  10.515  1.00  0.00     0.191 HD
HETATM    9  N   UNL     1      43.974  -8.616  10.108  1.00  0.00    -0.177 NA
HETATM   10  C   UNL     1      43.122  -8.384   9.095  1.00  0.00     0.068 A 
HETATM   11  C   UNL     1      42.423  -7.080   9.016  1.00  0.00     0.073 C 
ENDROOT
BRANCH   2  12
HETATM   12  S   UNL     1      44.105 -13.520   6.450  1.00  0.00    -0.082 SA
BRANCH  12  13
HETATM   13  C   UNL     1      42.768 -14.547   7.115  1.00  0.00     0.185 C 
BRANCH  13  14
HETATM   14  C   UNL     1      42.273 -15.596   6.122  1.00  0.00     0.227 C 
HETATM   15  N   UNL     1      42.496 -15.238   4.802  1.00  0.00    -0.360 N 
HETATM   16  H   UNL     1      42.694 -14.266   4.597  1.00  0.00     0.162 HD
HETATM   17  O   UNL     1      41.764 -16.667   6.440  1.00  0.00    -0.273 OA
BRANCH  15  18
HETATM   18  C   UNL     1      42.048 -16.081   3.704  1.00  0.00     0.127 C 
BRANCH  18  19
HETATM   19  C   UNL     1      43.229 -16.622   2.900  1.00  0.00     0.058 C 
BRANCH  19  20
HETATM   20  C   UNL     1      43.460 -18.093   3.132  1.00  0.00    -0.057 A 
HETATM   21  C   UNL     1      43.186 -19.026   2.123  1.00  0.00     0.007 A 
HETATM   22  C   UNL     1      43.400 -20.388   2.343  1.00  0.00     0.001 A 
HETATM   23  C   UNL     1      43.885 -20.830   3.573  1.00  0.00     0.000 A 
HETATM   24  C   UNL     1      44.154 -19.911   4.584  1.00  0.00     0.001 A 
HETATM   25  C   UNL     1      43.941 -18.549   4.368  1.00  0.00     0.007 A 
ENDBRANCH  19  20
ENDBRANCH  18  19
ENDBRANCH  15  18
ENDBRANCH  13  14
ENDBRANCH  12  13
ENDBRANCH   2  12
BRANCH   1  26
HETATM   26  C   UNL     1      42.290 -11.451   5.125  1.00  0.00     0.051 A 
HETATM   27  C   UNL     1      41.028 -12.033   4.876  1.00  0.00    -0.013 A 
HETATM   28  C   UNL     1      40.096 -12.391   6.006  1.00  0.00     0.052 C 
HETATM   29  C   UNL     1      40.681 -12.325   3.542  1.00  0.00     0.042 A 
HETATM   30 CL   UNL     1      39.187 -13.097   3.138  1.00  0.00    -0.084 Cl
HETATM   31  C   UNL     1      41.537 -12.001   2.485  1.00  0.00     0.024 A 
HETATM   32  C   UNL     1      42.762 -11.393   2.736  1.00  0.00     0.004 A 
HETATM   33  C   UNL     1      43.138 -11.122   4.048  1.00  0.00     0.031 A 
ENDBRANCH   1  26
BRANCH   6  34
HETATM   34  N   UNL     1      41.510  -9.016   6.477  1.00  0.00    -0.384 N 
HETATM   35  H   UNL     1      41.715  -8.041   6.320  1.00  0.00     0.157 HD
HETATM   36  H   UNL     1      40.592  -9.364   6.230  1.00  0.00     0.157 HD
ENDBRANCH   6  34
TORSDOF 8
ENDMDL
MODEL 5
REMARK VINA RESULT:      -8.1      1.933      2.996
REMARK  8 active torsions:
REMARK  status: ('A' for Active; 'I' for Inactive)
REMARK    1  A    between atoms: C_8  and  N_9 
REMARK    2  A    between atoms: C_10  and  S_11 
REMARK    3  A    between atoms: S_11  and  C_12 
REMARK    4  A    between atoms: C_12  and  C_13 
REMARK       I    between atoms: C_13  and  N_14 
REMARK    5  A    between atoms: N_14  and  C_15 
REMARK    6  A    between atoms: C_15  and  C_16 
REMARK    7  A    between atoms: C_16  and  C_17 
REMARK    8  A    between atoms: C_27  and  N_28 
ROOT
HETATM    1  N   UNL     1      42.324 -15.485   3.887  1.00  0.00    -0.275 N 
HETATM    2  C   UNL     1      42.476 -15.557   5.297  1.00  0.00     0.177 A 
HETATM    3  N   UNL     1      42.969 -16.571   5.968  1.00  0.00    -0.204 NA
HETATM    4  C   UNL     1      43.368 -17.596   5.183  1.00  0.00     0.162 A 
HETATM    5  C   UNL     1      43.323 -17.717   3.821  1.00  0.00     0.081 A 
HETATM    6  C   UNL     1      42.788 -16.608   3.090  1.00  0.00     0.124 A 
HETATM    7  N   UNL     1      43.907 -18.766   5.628  1.00  0.00    -0.260 N 
HETATM    8  H   UNL     1      44.103 -19.034   6.587  1.00  0.00     0.191 HD
HETATM    9  N   UNL     1      44.177 -19.639   4.632  1.00  0.00    -0.177 NA
HETATM   10  C   UNL     1      43.812 -18.994   3.511  1.00  0.00     0.068 A 
HETATM   11  C   UNL     1      43.944 -19.677   2.203  1.00  0.00     0.073 C 
ENDROOT
BRANCH   2  12
HETATM   12  S   UNL     1      41.917 -14.203   6.304  1.00  0.00    -0.082 SA
BRANCH  12  13
HETATM   13  C   UNL     1      43.487 -13.676   7.038  1.00  0.00     0.185 C 
BRANCH  13  14
HETATM   14  C   UNL     1      43.821 -12.216   6.746  1.00  0.00     0.227 C 
HETATM   15  N   UNL     1      45.136 -11.893   7.040  1.00  0.00    -0.360 N 
HETATM   16  H   UNL     1      45.659 -12.517   7.643  1.00  0.00     0.162 HD
HETATM   17  O   UNL     1      43.034 -11.407   6.264  1.00  0.00    -0.273 OA
BRANCH  15  18
HETATM   18  C   UNL     1      45.636 -10.535   6.881  1.00  0.00     0.127 C 
BRANCH  18  19
HETATM   19  C   UNL     1      46.259 -10.015   8.176  1.00  0.00     0.058 C 
BRANCH  19  20
HETATM   20  C   UNL     1      45.246  -9.371   9.086  1.00  0.00    -0.057 A 
HETATM   21  C   UNL     1      44.552  -8.222   8.681  1.00  0.00     0.007 A 
HETATM   22  C   UNL     1      43.615  -7.628   9.528  1.00  0.00     0.001 A 
HETATM   23  C   UNL     1      43.367  -8.172  10.787  1.00  0.00     0.000 A 
HETATM   24  C   UNL     1      44.056  -9.309  11.201  1.00  0.00     0.001 A 
HETATM   25  C   UNL     1      44.994  -9.906  10.357  1.00  0.00     0.007 A 
ENDBRANCH  19  20
ENDBRANCH  18  19
ENDBRANCH  15  18
ENDBRANCH  13  14
ENDBRANCH  12  13
ENDBRANCH   2  12
BRANCH   1  26
HETATM   26  C   UNL     1      41.564 -14.439   3.279  1.00  0.00     0.051 A 
HETATM   27  C   UNL     1      42.158 -13.237   2.834  1.00  0.00    -0.013 A 
HETATM   28  C   UNL     1      43.630 -12.972   3.032  1.00  0.00     0.052 C 
HETATM   29  C   UNL     1      41.329 -12.262   2.247  1.00  0.00     0.042 A 
HETATM   30 CL   UNL     1      41.947 -10.732   1.728  1.00  0.00    -0.084 Cl
HETATM   31  C   UNL     1      39.962 -12.492   2.060  1.00  0.00     0.024 A 
HETATM   32  C   UNL     1      39.391 -13.693   2.467  1.00  0.00     0.004 A 
HETATM   33  C   UNL     1      40.187 -14.660   3.075  1.00  0.00     0.031 A 
ENDBRANCH   1  26
BRANCH   6  34
HETATM   34  N   UNL     1      42.721 -16.619   1.772  1.00  0.00    -0.384 N 
HETATM   35  H   UNL     1      43.213 -17.304   1.220  1.00  0.00     0.157 HD
HETATM   36  H   UNL     1      42.185 -15.905   1.294  1.00  0.00     0.157 HD
ENDBRANCH   6  34
TORSDOF 8
ENDMDL
MODEL 6
REMARK VINA RESULT:      -8.0      5.642      9.189
REMARK  8 active torsions:
REMARK  status: ('A' for Active; 'I' for Inactive)
REMARK    1  A    between atoms: C_8  and  N_9 
REMARK    2  A    between atoms: C_10  and  S_11 
REMARK    3  A    between atoms: S_11  and  C_12 
REMARK    4  A    between atoms: C_12  and  C_13 
REMARK       I    between atoms: C_13  and  N_14 
REMARK    5  A    between atoms: N_14  and  C_15 
REMARK    6  A    between atoms: C_15  and  C_16 
REMARK    7  A    between atoms: C_16  and  C_17 
REMARK    8  A    between atoms: C_27  and  N_28 
ROOT
HETATM    1  N   UNL     1      40.589 -10.456  -1.676  1.00  0.00    -0.275 N 
HETATM    2  C   UNL     1      40.880 -10.220  -0.306  1.00  0.00     0.177 A 
HETATM    3  N   UNL     1      41.634  -9.257   0.167  1.00  0.00    -0.204 NA
HETATM    4  C   UNL     1      42.128  -8.439  -0.789  1.00  0.00     0.162 A 
HETATM    5  C   UNL     1      41.957  -8.483  -2.146  1.00  0.00     0.081 A 
HETATM    6  C   UNL     1      41.131  -9.534  -2.660  1.00  0.00     0.124 A 
HETATM    7  N   UNL     1      42.942  -7.368  -0.566  1.00  0.00    -0.260 N 
HETATM    8  H   UNL     1      43.278  -7.019   0.325  1.00  0.00     0.191 HD
HETATM    9  N   UNL     1      43.326  -6.748  -1.705  1.00  0.00    -0.177 NA
HETATM   10  C   UNL     1      42.722  -7.439  -2.685  1.00  0.00     0.068 A 
HETATM   11  C   UNL     1      42.946  -7.048  -4.096  1.00  0.00     0.073 C 
ENDROOT
BRANCH   2  12
HETATM   12  S   UNL     1      40.237 -11.330   0.925  1.00  0.00    -0.082 SA
BRANCH  12  13
HETATM   13  C   UNL     1      41.771 -12.108   1.493  1.00  0.00     0.185 C 
BRANCH  13  14
HETATM   14  C   UNL     1      41.734 -13.631   1.408  1.00  0.00     0.227 C 
HETATM   15  N   UNL     1      42.886 -14.228   1.894  1.00  0.00    -0.360 N 
HETATM   16  H   UNL     1      43.715 -13.654   1.997  1.00  0.00     0.162 HD
HETATM   17  O   UNL     1      40.778 -14.280   0.994  1.00  0.00    -0.273 OA
BRANCH  15  18
HETATM   18  C   UNL     1      43.067 -15.671   1.851  1.00  0.00     0.127 C 
BRANCH  18  19
HETATM   19  C   UNL     1      43.193 -16.258   3.256  1.00  0.00     0.058 C 
BRANCH  19  20
HETATM   20  C   UNL     1      43.409 -17.750   3.242  1.00  0.00    -0.057 A 
HETATM   21  C   UNL     1      43.024 -18.515   2.133  1.00  0.00     0.007 A 
HETATM   22  C   UNL     1      43.225 -19.897   2.124  1.00  0.00     0.001 A 
HETATM   23  C   UNL     1      43.808 -20.525   3.223  1.00  0.00     0.000 A 
HETATM   24  C   UNL     1      44.188 -19.774   4.333  1.00  0.00     0.001 A 
HETATM   25  C   UNL     1      43.988 -18.392   4.345  1.00  0.00     0.007 A 
ENDBRANCH  19  20
ENDBRANCH  18  19
ENDBRANCH  15  18
ENDBRANCH  13  14
ENDBRANCH  12  13
ENDBRANCH   2  12
BRANCH   1  26
HETATM   26  C   UNL     1      39.954 -11.664  -2.098  1.00  0.00     0.051 A 
HETATM   27  C   UNL     1      38.568 -11.733  -2.367  1.00  0.00    -0.013 A 
HETATM   28  C   UNL     1      37.673 -10.537  -2.164  1.00  0.00     0.052 C 
HETATM   29  C   UNL     1      38.031 -12.968  -2.777  1.00  0.00     0.042 A 
HETATM   30 CL   UNL     1      36.338 -13.173  -3.069  1.00  0.00    -0.084 Cl
HETATM   31  C   UNL     1      38.849 -14.086  -2.967  1.00  0.00     0.024 A 
HETATM   32  C   UNL     1      40.218 -14.001  -2.737  1.00  0.00     0.004 A 
HETATM   33  C   UNL     1      40.766 -12.798  -2.302  1.00  0.00     0.031 A 
ENDBRANCH   1  26
BRANCH   6  34
HETATM   34  N   UNL     1      40.888  -9.650  -3.951  1.00  0.00    -0.384 N 
HETATM   35  H   UNL     1      40.064 -10.117  -4.297  1.00  0.00     0.157 HD
HETATM   36  H   UNL     1      41.557  -9.290  -4.619  1.00  0.00     0.157 HD
ENDBRANCH   6  34
TORSDOF 8
ENDMDL
MODEL 7
REMARK VINA RESULT:      -7.8      2.965      7.467
REMARK  8 active torsions:
REMARK  status: ('A' for Active; 'I' for Inactive)
REMARK    1  A    between atoms: C_8  and  N_9 
REMARK    2  A    between atoms: C_10  and  S_11 
REMARK    3  A    between atoms: S_11  and  C_12 
REMARK    4  A    between atoms: C_12  and  C_13 
REMARK       I    between atoms: C_13  and  N_14 
REMARK    5  A    between atoms: N_14  and  C_15 
REMARK    6  A    between atoms: C_15  and  C_16 
REMARK    7  A    between atoms: C_16  and  C_17 
REMARK    8  A    between atoms: C_27  and  N_28 
ROOT
HETATM    1  N   UNL     1      40.989 -11.397   4.375  1.00  0.00    -0.275 N 
HETATM    2  C   UNL     1      40.278 -12.625   4.453  1.00  0.00     0.177 A 
HETATM    3  N   UNL     1      39.610 -13.193   3.478  1.00  0.00    -0.204 NA
HETATM    4  C   UNL     1      39.663 -12.505   2.315  1.00  0.00     0.162 A 
HETATM    5  C   UNL     1      40.297 -11.327   2.029  1.00  0.00     0.081 A 
HETATM    6  C   UNL     1      41.028 -10.710   3.095  1.00  0.00     0.124 A 
HETATM    7  N   UNL     1      39.051 -12.873   1.154  1.00  0.00    -0.260 N 
HETATM    8  H   UNL     1      38.493 -13.703   0.982  1.00  0.00     0.191 HD
HETATM    9  N   UNL     1      39.230 -11.981   0.154  1.00  0.00    -0.177 NA
HETATM   10  C   UNL     1      39.997 -11.019   0.694  1.00  0.00     0.068 A 
HETATM   11  C   UNL     1      40.376  -9.844  -0.125  1.00  0.00     0.073 C 
ENDROOT
BRANCH   2  12
HETATM   12  S   UNL     1      40.206 -13.492   6.004  1.00  0.00    -0.082 SA
BRANCH  12  13
HETATM   13  C   UNL     1      41.694 -14.516   5.871  1.00  0.00     0.185 C 
BRANCH  13  14
HETATM   14  C   UNL     1      41.515 -15.709   4.937  1.00  0.00     0.227 C 
HETATM   15  N   UNL     1      41.977 -15.465   3.654  1.00  0.00    -0.360 N 
HETATM   16  H   UNL     1      42.126 -14.502   3.374  1.00  0.00     0.162 HD
HETATM   17  O   UNL     1      41.050 -16.793   5.277  1.00  0.00    -0.273 OA
BRANCH  15  18
HETATM   18  C   UNL     1      41.848 -16.460   2.601  1.00  0.00     0.127 C 
BRANCH  18  19
HETATM   19  C   UNL     1      43.211 -17.017   2.190  1.00  0.00     0.058 C 
BRANCH  19  20
HETATM   20  C   UNL     1      43.512 -18.344   2.839  1.00  0.00    -0.057 A 
HETATM   21  C   UNL     1      43.305 -19.541   2.142  1.00  0.00     0.007 A 
HETATM   22  C   UNL     1      43.584 -20.768   2.747  1.00  0.00     0.001 A 
HETATM   23  C   UNL     1      44.068 -20.809   4.054  1.00  0.00     0.000 A 
HETATM   24  C   UNL     1      44.271 -19.624   4.757  1.00  0.00     0.001 A 
HETATM   25  C   UNL     1      43.993 -18.396   4.155  1.00  0.00     0.007 A 
ENDBRANCH  19  20
ENDBRANCH  18  19
ENDBRANCH  15  18
ENDBRANCH  13  14
ENDBRANCH  12  13
ENDBRANCH   2  12
BRANCH   1  26
HETATM   26  C   UNL     1      41.482 -10.753   5.550  1.00  0.00     0.051 A 
HETATM   27  C   UNL     1      42.831 -10.858   5.957  1.00  0.00    -0.013 A 
HETATM   28  C   UNL     1      43.813 -11.710   5.194  1.00  0.00     0.052 C 
HETATM   29  C   UNL     1      43.226 -10.188   7.132  1.00  0.00     0.042 A 
HETATM   30 CL   UNL     1      44.837 -10.305   7.749  1.00  0.00    -0.084 Cl
HETATM   31  C   UNL     1      42.325  -9.397   7.851  1.00  0.00     0.024 A 
HETATM   32  C   UNL     1      41.008  -9.269   7.423  1.00  0.00     0.004 A 
HETATM   33  C   UNL     1      40.588  -9.945   6.281  1.00  0.00     0.031 A 
ENDBRANCH   1  26
BRANCH   6  34
HETATM   34  N   UNL     1      41.690  -9.583   2.914  1.00  0.00    -0.384 N 
HETATM   35  H   UNL     1      42.694  -9.565   2.820  1.00  0.00     0.157 HD
HETATM   36  H   UNL     1      41.186  -8.706   2.899  1.00  0.00     0.157 HD
ENDBRANCH   6  34
TORSDOF 8
ENDMDL
MODEL 8
REMARK VINA RESULT:      -7.8      3.147      4.245
REMARK  8 active torsions:
REMARK  status: ('A' for Active; 'I' for Inactive)
REMARK    1  A    between atoms: C_8  and  N_9 
REMARK    2  A    between atoms: C_10  and  S_11 
REMARK    3  A    between atoms: S_11  and  C_12 
REMARK    4  A    between atoms: C_12  and  C_13 
REMARK       I    between atoms: C_13  and  N_14 
REMARK    5  A    between atoms: N_14  and  C_15 
REMARK    6  A    between atoms: C_15  and  C_16 
REMARK    7  A    between atoms: C_16  and  C_17 
REMARK    8  A    between atoms: C_27  and  N_28 
ROOT
HETATM    1  N   UNL     1      42.341 -14.391   4.170  1.00  0.00    -0.275 N 
HETATM    2  C   UNL     1      42.945 -14.384   5.456  1.00  0.00     0.177 A 
HETATM    3  N   UNL     1      43.616 -15.372   5.998  1.00  0.00    -0.204 NA
HETATM    4  C   UNL     1      43.722 -16.456   5.197  1.00  0.00     0.162 A 
HETATM    5  C   UNL     1      43.233 -16.657   3.935  1.00  0.00     0.081 A 
HETATM    6  C   UNL     1      42.504 -15.575   3.344  1.00  0.00     0.124 A 
HETATM    7  N   UNL     1      44.361 -17.615   5.522  1.00  0.00    -0.260 N 
HETATM    8  H   UNL     1      44.856 -17.832   6.380  1.00  0.00     0.191 HD
HETATM    9  N   UNL     1      44.278 -18.555   4.554  1.00  0.00    -0.177 NA
HETATM   10  C   UNL     1      43.576 -17.967   3.571  1.00  0.00     0.068 A 
HETATM   11  C   UNL     1      43.264 -18.731   2.341  1.00  0.00     0.073 C 
ENDROOT
BRANCH   2  12
HETATM   12  S   UNL     1      42.764 -12.953   6.495  1.00  0.00    -0.082 SA
BRANCH  12  13
HETATM   13  C   UNL     1      44.500 -12.471   6.687  1.00  0.00     0.185 C 
BRANCH  13  14
HETATM   14  C   UNL     1      44.697 -11.338   7.690  1.00  0.00     0.227 C 
HETATM   15  N   UNL     1      43.617 -11.178   8.543  1.00  0.00    -0.360 N 
HETATM   16  H   UNL     1      42.733 -11.598   8.280  1.00  0.00     0.162 HD
HETATM   17  O   UNL     1      45.713 -10.654   7.775  1.00  0.00    -0.273 OA
BRANCH  15  18
HETATM   18  C   UNL     1      43.589 -10.116   9.537  1.00  0.00     0.127 C 
BRANCH  18  19
HETATM   19  C   UNL     1      43.714 -10.675  10.954  1.00  0.00     0.058 C 
BRANCH  19  20
HETATM   20  C   UNL     1      43.144  -9.746  11.994  1.00  0.00    -0.057 A 
HETATM   21  C   UNL     1      42.080 -10.155  12.809  1.00  0.00     0.007 A 
HETATM   22  C   UNL     1      41.554  -9.291  13.771  1.00  0.00     0.001 A 
HETATM   23  C   UNL     1      42.083  -8.010  13.924  1.00  0.00     0.000 A 
HETATM   24  C   UNL     1      43.136  -7.592  13.114  1.00  0.00     0.001 A 
HETATM   25  C   UNL     1      43.664  -8.454  12.151  1.00  0.00     0.007 A 
ENDBRANCH  19  20
ENDBRANCH  18  19
ENDBRANCH  15  18
ENDBRANCH  13  14
ENDBRANCH  12  13
ENDBRANCH   2  12
BRANCH   1  26
HETATM   26  C   UNL     1      41.439 -13.357   3.773  1.00  0.00     0.051 A 
HETATM   27  C   UNL     1      41.882 -12.167   3.153  1.00  0.00    -0.013 A 
HETATM   28  C   UNL     1      43.349 -11.903   2.930  1.00  0.00     0.052 C 
HETATM   29  C   UNL     1      40.919 -11.204   2.797  1.00  0.00     0.042 A 
HETATM   30 CL   UNL     1      41.363  -9.688   2.092  1.00  0.00    -0.084 Cl
HETATM   31  C   UNL     1      39.555 -11.435   3.000  1.00  0.00     0.024 A 
HETATM   32  C   UNL     1      39.123 -12.624   3.577  1.00  0.00     0.004 A 
HETATM   33  C   UNL     1      40.060 -13.579   3.964  1.00  0.00     0.031 A 
ENDBRANCH   1  26
BRANCH   6  34
HETATM   34  N   UNL     1      42.009 -15.663   2.124  1.00  0.00    -0.384 N 
HETATM   35  H   UNL     1      42.579 -15.932   1.337  1.00  0.00     0.157 HD
HETATM   36  H   UNL     1      41.038 -15.427   1.961  1.00  0.00     0.157 HD
ENDBRANCH   6  34
TORSDOF 8
ENDMDL
MODEL 9
REMARK VINA RESULT:      -7.8      2.922      7.572
REMARK  8 active torsions:
REMARK  status: ('A' for Active; 'I' for Inactive)
REMARK    1  A    between atoms: C_8  and  N_9 
REMARK    2  A    between atoms: C_10  and  S_11 
REMARK    3  A    between atoms: S_11  and  C_12 
REMARK    4  A    between atoms: C_12  and  C_13 
REMARK       I    between atoms: C_13  and  N_14 
REMARK    5  A    between atoms: N_14  and  C_15 
REMARK    6  A    between atoms: C_15  and  C_16 
REMARK    7  A    between atoms: C_16  and  C_17 
REMARK    8  A    between atoms: C_27  and  N_28 
ROOT
HETATM    1  N   UNL     1      39.723 -12.812   3.647  1.00  0.00    -0.275 N 
HETATM    2  C   UNL     1      39.775 -12.760   5.065  1.00  0.00     0.177 A 
HETATM    3  N   UNL     1      39.415 -11.745   5.814  1.00  0.00    -0.204 NA
HETATM    4  C   UNL     1      38.940 -10.695   5.107  1.00  0.00     0.162 A 
HETATM    5  C   UNL     1      38.795 -10.551   3.754  1.00  0.00     0.081 A 
HETATM    6  C   UNL     1      39.186 -11.662   2.939  1.00  0.00     0.124 A 
HETATM    7  N   UNL     1      38.507  -9.518   5.640  1.00  0.00    -0.260 N 
HETATM    8  H   UNL     1      38.458  -9.262   6.620  1.00  0.00     0.191 HD
HETATM    9  N   UNL     1      38.126  -8.620   4.704  1.00  0.00    -0.177 NA
HETATM   10  C   UNL     1      38.308  -9.255   3.534  1.00  0.00     0.068 A 
HETATM   11  C   UNL     1      38.012  -8.546   2.268  1.00  0.00     0.073 C 
ENDROOT
BRANCH   2  12
HETATM   12  S   UNL     1      40.428 -14.148   5.964  1.00  0.00    -0.082 SA
BRANCH  12  13
HETATM   13  C   UNL     1      41.907 -13.395   6.692  1.00  0.00     0.185 C 
BRANCH  13  14
HETATM   14  C   UNL     1      43.191 -14.139   6.337  1.00  0.00     0.227 C 
HETATM   15  N   UNL     1      42.956 -15.366   5.737  1.00  0.00    -0.360 N 
HETATM   16  H   UNL     1      42.033 -15.775   5.828  1.00  0.00     0.162 HD
HETATM   17  O   UNL     1      44.322 -13.698   6.518  1.00  0.00    -0.273 OA
BRANCH  15  18
HETATM   18  C   UNL     1      44.051 -16.252   5.371  1.00  0.00     0.127 C 
BRANCH  18  19
HETATM   19  C   UNL     1      43.790 -17.684   5.839  1.00  0.00     0.058 C 
BRANCH  19  20
HETATM   20  C   UNL     1      43.754 -18.667   4.698  1.00  0.00    -0.057 A 
HETATM   21  C   UNL     1      43.973 -20.032   4.926  1.00  0.00     0.007 A 
HETATM   22  C   UNL     1      43.939 -20.939   3.865  1.00  0.00     0.001 A 
HETATM   23  C   UNL     1      43.692 -20.490   2.568  1.00  0.00     0.000 A 
HETATM   24  C   UNL     1      43.481 -19.134   2.331  1.00  0.00     0.001 A 
HETATM   25  C   UNL     1      43.514 -18.224   3.389  1.00  0.00     0.007 A 
ENDBRANCH  19  20
ENDBRANCH  18  19
ENDBRANCH  15  18
ENDBRANCH  13  14
ENDBRANCH  12  13
ENDBRANCH   2  12
BRANCH   1  26
HETATM   26  C   UNL     1      40.356 -13.869   2.923  1.00  0.00     0.051 A 
HETATM   27  C   UNL     1      41.743 -13.873   2.653  1.00  0.00    -0.013 A 
HETATM   28  C   UNL     1      42.623 -12.721   3.071  1.00  0.00     0.052 C 
HETATM   29  C   UNL     1      42.278 -14.957   1.932  1.00  0.00     0.042 A 
HETATM   30 CL   UNL     1      43.950 -15.025   1.495  1.00  0.00    -0.084 Cl
HETATM   31  C   UNL     1      41.473 -16.030   1.537  1.00  0.00     0.024 A 
HETATM   32  C   UNL     1      40.115 -16.037   1.838  1.00  0.00     0.004 A 
HETATM   33  C   UNL     1      39.560 -14.962   2.525  1.00  0.00     0.031 A 
ENDBRANCH   1  26
BRANCH   6  34
HETATM   34  N   UNL     1      39.066 -11.629   1.626  1.00  0.00    -0.384 N 
HETATM   35  H   UNL     1      38.405 -11.022   1.167  1.00  0.00     0.157 HD
HETATM   36  H   UNL     1      39.630 -12.250   1.058  1.00  0.00     0.157 HD
ENDBRANCH   6  34
TORSDOF 8
ENDMDL
MODEL 10
REMARK VINA RESULT:      -7.7      3.421      7.832
REMARK  8 active torsions:
REMARK  status: ('A' for Active; 'I' for Inactive)
REMARK    1  A    between atoms: C_8  and  N_9 
REMARK    2  A    between atoms: C_10  and  S_11 
REMARK    3  A    between atoms: S_11  and  C_12 
REMARK    4  A    between atoms: C_12  and  C_13 
REMARK       I    between atoms: C_13  and  N_14 
REMARK    5  A    between atoms: N_14  and  C_15 
REMARK    6  A    between atoms: C_15  and  C_16 
REMARK    7  A    between atoms: C_16  and  C_17 
REMARK    8  A    between atoms: C_27  and  N_28 
ROOT
HETATM    1  N   UNL     1      42.479 -12.443   6.194  1.00  0.00    -0.275 N 
HETATM    2  C   UNL     1      41.242 -11.746   6.227  1.00  0.00     0.177 A 
HETATM    3  N   UNL     1      41.047 -10.544   6.714  1.00  0.00    -0.204 NA
HETATM    4  C   UNL     1      42.172  -9.966   7.191  1.00  0.00     0.162 A 
HETATM    5  C   UNL     1      43.449 -10.455   7.239  1.00  0.00     0.081 A 
HETATM    6  C   UNL     1      43.660 -11.767   6.704  1.00  0.00     0.124 A 
HETATM    7  N   UNL     1      42.243  -8.727   7.755  1.00  0.00    -0.260 N 
HETATM    8  H   UNL     1      41.490  -8.060   7.884  1.00  0.00     0.191 HD
HETATM    9  N   UNL     1      43.484  -8.412   8.190  1.00  0.00    -0.177 NA
HETATM   10  C   UNL     1      44.232  -9.483   7.877  1.00  0.00     0.068 A 
HETATM   11  C   UNL     1      45.669  -9.497   8.238  1.00  0.00     0.073 C 
ENDROOT
BRANCH   2  12
HETATM   12  S   UNL     1      39.776 -12.544   5.614  1.00  0.00    -0.082 SA
BRANCH  12  13
HETATM   13  C   UNL     1      39.557 -11.660   4.048  1.00  0.00     0.185 C 
BRANCH  13  14
HETATM   14  C   UNL     1      39.187 -12.582   2.890  1.00  0.00     0.227 C 
HETATM   15  N   UNL     1      39.735 -13.849   3.012  1.00  0.00    -0.360 N 
HETATM   16  H   UNL     1      40.508 -13.976   3.655  1.00  0.00     0.162 HD
HETATM   17  O   UNL     1      38.450 -12.268   1.960  1.00  0.00    -0.273 OA
BRANCH  15  18
HETATM   18  C   UNL     1      39.543 -14.859   1.983  1.00  0.00     0.127 C 
BRANCH  18  19
HETATM   19  C   UNL     1      40.663 -14.817   0.944  1.00  0.00     0.058 C 
BRANCH  19  20
HETATM   20  C   UNL     1      40.211 -14.230  -0.369  1.00  0.00    -0.057 A 
HETATM   21  C   UNL     1      39.386 -14.964  -1.231  1.00  0.00     0.007 A 
HETATM   22  C   UNL     1      38.971 -14.417  -2.447  1.00  0.00     0.001 A 
HETATM   23  C   UNL     1      39.380 -13.135  -2.813  1.00  0.00     0.000 A 
HETATM   24  C   UNL     1      40.206 -12.401  -1.965  1.00  0.00     0.001 A 
HETATM   25  C   UNL     1      40.623 -12.945  -0.749  1.00  0.00     0.007 A 
ENDBRANCH  19  20
ENDBRANCH  18  19
ENDBRANCH  15  18
ENDBRANCH  13  14
ENDBRANCH  12  13
ENDBRANCH   2  12
BRANCH   1  26
HETATM   26  C   UNL     1      42.535 -13.831   5.859  1.00  0.00     0.051 A 
HETATM   27  C   UNL     1      42.874 -14.280   4.562  1.00  0.00    -0.013 A 
HETATM   28  C   UNL     1      43.139 -13.305   3.443  1.00  0.00     0.052 C 
HETATM   29  C   UNL     1      42.903 -15.668   4.325  1.00  0.00     0.042 A 
HETATM   30 CL   UNL     1      43.243 -16.317   2.758  1.00  0.00    -0.084 Cl
HETATM   31  C   UNL     1      42.657 -16.582   5.354  1.00  0.00     0.024 A 
HETATM   32  C   UNL     1      42.361 -16.133   6.636  1.00  0.00     0.004 A 
HETATM   33  C   UNL     1      42.298 -14.766   6.887  1.00  0.00     0.031 A 
ENDBRANCH   1  26
BRANCH   6  34
HETATM   34  N   UNL     1      44.858 -12.319   6.685  1.00  0.00    -0.384 N 
HETATM   35  H   UNL     1      45.271 -12.723   7.511  1.00  0.00     0.157 HD
HETATM   36  H   UNL     1      45.396 -12.314   5.827  1.00  0.00     0.157 HD
ENDBRANCH   6  34
TORSDOF 8
ENDMDL
