MODEL 1
REMARK VINA RESULT:      -8.8      0.000      0.000
REMARK  2 active torsions:
REMARK  status: ('A' for Active; 'I' for Inactive)
REMARK    1  A    between atoms: C_5  and  C_6 
REMARK    2  A    between atoms: C_9  and  C_10 
ROOT
HETATM    1  C   UNL     1      42.060 -11.950   5.347  1.00  0.00     0.220 C 
HETATM    2  N   UNL     1      42.406 -13.168   4.633  1.00  0.00    -0.126 NA
HETATM    3  N   UNL     1      41.739 -14.246   5.291  1.00  0.00    -0.126 NA
HETATM    4  C   UNL     1      41.470 -15.263   4.286  1.00  0.00     0.220 C 
HETATM    5  N   UNL     1      41.731 -14.588   3.042  1.00  0.00    -0.324 N 
HETATM    6  C   UNL     1      42.199 -13.304   3.265  1.00  0.00     0.315 C 
HETATM    7  O   UNL     1      42.324 -12.451   2.403  1.00  0.00    -0.252 OA
HETATM    8  C   UNL     1      40.739 -13.711   6.095  1.00  0.00     0.315 C 
HETATM    9  O   UNL     1      39.768 -14.286   6.554  1.00  0.00    -0.252 OA
HETATM   10  N   UNL     1      40.994 -12.356   6.224  1.00  0.00    -0.324 N 
HETATM   11  H   UNL     1      41.442 -14.904   2.131  1.00  0.00     0.165 HD
HETATM   12  H   UNL     1      40.356 -11.734   6.694  1.00  0.00     0.165 HD
ENDROOT
BRANCH   1  13
HETATM   13  C   UNL     1      43.205 -11.370   6.155  1.00  0.00    -0.020 A 
HETATM   14  C   UNL     1      42.997 -10.440   7.187  1.00  0.00     0.011 A 
HETATM   15  C   UNL     1      44.074  -9.869   7.871  1.00  0.00     0.007 A 
HETATM   16  C   UNL     1      45.386 -10.206   7.531  1.00  0.00    -0.062 A 
HETATM   17  C   UNL     1      46.549  -9.581   8.242  1.00  0.00     0.048 C 
HETATM   18  C   UNL     1      45.605 -11.137   6.511  1.00  0.00     0.007 A 
HETATM   19  C   UNL     1      44.528 -11.712   5.828  1.00  0.00     0.011 A 
ENDBRANCH   1  13
BRANCH   4  20
HETATM   20  C   UNL     1      42.359 -16.489   4.402  1.00  0.00    -0.020 A 
HETATM   21  C   UNL     1      42.856 -17.168   3.279  1.00  0.00     0.011 A 
HETATM   22  C   UNL     1      43.604 -18.341   3.417  1.00  0.00     0.007 A 
HETATM   23  C   UNL     1      43.869 -18.866   4.684  1.00  0.00    -0.062 A 
HETATM   24  C   UNL     1      44.638 -20.144   4.841  1.00  0.00     0.048 C 
HETATM   25  C   UNL     1      43.393 -18.188   5.812  1.00  0.00     0.007 A 
HETATM   26  C   UNL     1      42.647 -17.015   5.673  1.00  0.00     0.011 A 
ENDBRANCH   4  20
TORSDOF 2
ENDMDL
MODEL 2
REMARK VINA RESULT:      -8.8      0.891      6.742
REMARK  2 active torsions:
REMARK  status: ('A' for Active; 'I' for Inactive)
REMARK    1  A    between atoms: C_5  and  C_6 
REMARK    2  A    between atoms: C_9  and  C_10 
ROOT
HETATM    1  C   UNL     1      40.970 -14.741   3.864  1.00  0.00     0.220 C 
HETATM    2  N   UNL     1      41.427 -13.952   4.996  1.00  0.00    -0.126 NA
HETATM    3  N   UNL     1      41.942 -12.726   4.474  1.00  0.00    -0.126 NA
HETATM    4  C   UNL     1      41.740 -11.707   5.492  1.00  0.00     0.220 C 
HETATM    5  N   UNL     1      40.848 -12.336   6.430  1.00  0.00    -0.324 N 
HETATM    6  C   UNL     1      40.595 -13.649   6.067  1.00  0.00     0.315 C 
HETATM    7  O   UNL     1      39.739 -14.356   6.570  1.00  0.00    -0.252 OA
HETATM    8  C   UNL     1      41.480 -12.580   3.171  1.00  0.00     0.315 C 
HETATM    9  O   UNL     1      41.423 -11.557   2.513  1.00  0.00    -0.252 OA
HETATM   10  N   UNL     1      41.001 -13.814   2.763  1.00  0.00    -0.324 N 
HETATM   11  H   UNL     1      40.316 -11.863   7.142  1.00  0.00     0.165 HD
HETATM   12  H   UNL     1      40.533 -13.942   1.880  1.00  0.00     0.165 HD
ENDROOT
BRANCH   1  13
HETATM   13  C   UNL     1      41.849 -15.939   3.560  1.00  0.00    -0.020 A 
HETATM   14  C   UNL     1      41.716 -16.683   2.376  1.00  0.00     0.011 A 
HETATM   15  C   UNL     1      42.491 -17.823   2.150  1.00  0.00     0.007 A 
HETATM   16  C   UNL     1      43.412 -18.254   3.108  1.00  0.00    -0.062 A 
HETATM   17  C   UNL     1      44.231 -19.490   2.887  1.00  0.00     0.048 C 
HETATM   18  C   UNL     1      43.559 -17.516   4.288  1.00  0.00     0.007 A 
HETATM   19  C   UNL     1      42.785 -16.373   4.513  1.00  0.00     0.011 A 
ENDBRANCH   1  13
BRANCH   4  20
HETATM   20  C   UNL     1      43.015 -11.284   6.199  1.00  0.00    -0.020 A 
HETATM   21  C   UNL     1      43.013 -10.418   7.304  1.00  0.00     0.011 A 
HETATM   22  C   UNL     1      44.208  -9.982   7.882  1.00  0.00     0.007 A 
HETATM   23  C   UNL     1      45.438 -10.401   7.367  1.00  0.00    -0.062 A 
HETATM   24  C   UNL     1      46.726  -9.910   7.956  1.00  0.00     0.048 C 
HETATM   25  C   UNL     1      45.452 -11.278   6.277  1.00  0.00     0.007 A 
HETATM   26  C   UNL     1      44.256 -11.714   5.700  1.00  0.00     0.011 A 
ENDBRANCH   4  20
TORSDOF 2
ENDMDL
MODEL 3
REMARK VINA RESULT:      -8.7      2.583      4.641
REMARK  2 active torsions:
REMARK  status: ('A' for Active; 'I' for Inactive)
REMARK    1  A    between atoms: C_5  and  C_6 
REMARK    2  A    between atoms: C_9  and  C_10 
ROOT
HETATM    1  C   UNL     1      40.755 -13.223   5.719  1.00  0.00     0.220 C 
HETATM    2  N   UNL     1      41.031 -14.638   5.540  1.00  0.00    -0.126 NA
HETATM    3  N   UNL     1      42.439 -14.770   5.335  1.00  0.00    -0.126 NA
HETATM    4  C   UNL     1      42.828 -16.074   5.847  1.00  0.00     0.220 C 
HETATM    5  N   UNL     1      41.673 -16.505   6.590  1.00  0.00    -0.324 N 
HETATM    6  C   UNL     1      40.641 -15.589   6.475  1.00  0.00     0.315 C 
HETATM    7  O   UNL     1      39.621 -15.604   7.142  1.00  0.00    -0.252 OA
HETATM    8  C   UNL     1      43.050 -13.593   5.753  1.00  0.00     0.315 C 
HETATM    9  O   UNL     1      44.222 -13.426   6.041  1.00  0.00    -0.252 OA
HETATM   10  N   UNL     1      42.059 -12.633   5.874  1.00  0.00    -0.324 N 
HETATM   11  H   UNL     1      41.654 -17.255   7.262  1.00  0.00     0.165 HD
HETATM   12  H   UNL     1      42.244 -11.716   6.248  1.00  0.00     0.165 HD
ENDROOT
BRANCH   1  13
HETATM   13  C   UNL     1      40.035 -12.588   4.545  1.00  0.00    -0.020 A 
HETATM   14  C   UNL     1      39.527 -11.279   4.597  1.00  0.00     0.011 A 
HETATM   15  C   UNL     1      38.808 -10.741   3.527  1.00  0.00     0.007 A 
HETATM   16  C   UNL     1      38.568 -11.504   2.382  1.00  0.00    -0.062 A 
HETATM   17  C   UNL     1      37.776 -10.945   1.237  1.00  0.00     0.048 C 
HETATM   18  C   UNL     1      39.076 -12.806   2.315  1.00  0.00     0.007 A 
HETATM   19  C   UNL     1      39.798 -13.343   3.385  1.00  0.00     0.011 A 
ENDBRANCH   1  13
BRANCH   4  20
HETATM   20  C   UNL     1      43.148 -17.087   4.762  1.00  0.00    -0.020 A 
HETATM   21  C   UNL     1      42.688 -16.949   3.442  1.00  0.00     0.011 A 
HETATM   22  C   UNL     1      42.930 -17.939   2.486  1.00  0.00     0.007 A 
HETATM   23  C   UNL     1      43.637 -19.095   2.828  1.00  0.00    -0.062 A 
HETATM   24  C   UNL     1      43.869 -20.180   1.819  1.00  0.00     0.048 C 
HETATM   25  C   UNL     1      44.114 -19.236   4.135  1.00  0.00     0.007 A 
HETATM   26  C   UNL     1      43.873 -18.245   5.090  1.00  0.00     0.011 A 
ENDBRANCH   4  20
TORSDOF 2
ENDMDL
MODEL 4
REMARK VINA RESULT:      -8.6      2.614      6.856
REMARK  2 active torsions:
REMARK  status: ('A' for Active; 'I' for Inactive)
REMARK    1  A    between atoms: C_5  and  C_6 
REMARK    2  A    between atoms: C_9  and  C_10 
ROOT
HETATM    1  C   UNL     1      42.777 -16.138   5.853  1.00  0.00     0.220 C 
HETATM    2  N   UNL     1      42.394 -14.828   5.354  1.00  0.00    -0.126 NA
HETATM    3  N   UNL     1      40.990 -14.687   5.578  1.00  0.00    -0.126 NA
HETATM    4  C   UNL     1      40.725 -13.270   5.770  1.00  0.00     0.220 C 
HETATM    5  N   UNL     1      42.036 -12.701   5.943  1.00  0.00    -0.324 N 
HETATM    6  C   UNL     1      43.018 -13.664   5.787  1.00  0.00     0.315 C 
HETATM    7  O   UNL     1      44.196 -13.506   6.058  1.00  0.00    -0.252 OA
HETATM    8  C   UNL     1      40.598 -15.650   6.501  1.00  0.00     0.315 C 
HETATM    9  O   UNL     1      39.588 -15.659   7.182  1.00  0.00    -0.252 OA
HETATM   10  N   UNL     1      41.619 -16.582   6.583  1.00  0.00    -0.324 N 
HETATM   11  H   UNL     1      42.234 -11.786   6.316  1.00  0.00     0.165 HD
HETATM   12  H   UNL     1      41.604 -17.335   7.253  1.00  0.00     0.165 HD
ENDROOT
BRANCH   1  13
HETATM   13  C   UNL     1      43.113 -17.133   4.758  1.00  0.00    -0.020 A 
HETATM   14  C   UNL     1      42.642 -16.986   3.443  1.00  0.00     0.011 A 
HETATM   15  C   UNL     1      42.909 -17.952   2.469  1.00  0.00     0.007 A 
HETATM   16  C   UNL     1      43.644 -19.096   2.790  1.00  0.00    -0.062 A 
HETATM   17  C   UNL     1      43.915 -20.151   1.760  1.00  0.00     0.048 C 
HETATM   18  C   UNL     1      44.125 -19.249   4.095  1.00  0.00     0.007 A 
HETATM   19  C   UNL     1      43.861 -18.281   5.069  1.00  0.00     0.011 A 
ENDBRANCH   1  13
BRANCH   4  20
HETATM   20  C   UNL     1      40.030 -12.611   4.592  1.00  0.00    -0.020 A 
HETATM   21  C   UNL     1      39.541 -11.295   4.645  1.00  0.00     0.011 A 
HETATM   22  C   UNL     1      38.834 -10.745   3.573  1.00  0.00     0.007 A 
HETATM   23  C   UNL     1      38.594 -11.498   2.421  1.00  0.00    -0.062 A 
HETATM   24  C   UNL     1      37.803 -10.929   1.281  1.00  0.00     0.048 C 
HETATM   25  C   UNL     1      39.092 -12.804   2.351  1.00  0.00     0.007 A 
HETATM   26  C   UNL     1      39.801 -13.353   3.422  1.00  0.00     0.011 A 
ENDBRANCH   4  20
TORSDOF 2
ENDMDL
MODEL 5
REMARK VINA RESULT:      -8.4      3.257      7.030
REMARK  2 active torsions:
REMARK  status: ('A' for Active; 'I' for Inactive)
REMARK    1  A    between atoms: C_5  and  C_6 
REMARK    2  A    between atoms: C_9  and  C_10 
ROOT
HETATM    1  C   UNL     1      42.639 -13.887   4.235  1.00  0.00     0.220 C 
HETATM    2  N   UNL     1      42.690 -12.895   3.174  1.00  0.00    -0.126 NA
HETATM    3  N   UNL     1      41.342 -12.546   2.857  1.00  0.00    -0.126 NA
HETATM    4  C   UNL     1      41.352 -11.169   2.390  1.00  0.00     0.220 C 
HETATM    5  N   UNL     1      42.666 -10.700   2.744  1.00  0.00    -0.324 N 
HETATM    6  C   UNL     1      43.422 -11.719   3.300  1.00  0.00     0.315 C 
HETATM    7  O   UNL     1      44.495 -11.565   3.856  1.00  0.00    -0.252 OA
HETATM    8  C   UNL     1      40.527 -12.973   3.899  1.00  0.00     0.315 C 
HETATM    9  O   UNL     1      39.399 -12.596   4.163  1.00  0.00    -0.252 OA
HETATM   10  N   UNL     1      41.264 -13.864   4.661  1.00  0.00    -0.324 N 
HETATM   11  H   UNL     1      42.956  -9.736   2.778  1.00  0.00     0.165 HD
HETATM   12  H   UNL     1      40.915 -14.246   5.525  1.00  0.00     0.165 HD
ENDROOT
BRANCH   1  13
HETATM   13  C   UNL     1      43.019 -15.284   3.783  1.00  0.00    -0.020 A 
HETATM   14  C   UNL     1      42.932 -15.686   2.439  1.00  0.00     0.011 A 
HETATM   15  C   UNL     1      43.223 -16.998   2.059  1.00  0.00     0.007 A 
HETATM   16  C   UNL     1      43.597 -17.945   3.015  1.00  0.00    -0.062 A 
HETATM   17  C   UNL     1      43.887 -19.362   2.622  1.00  0.00     0.048 C 
HETATM   18  C   UNL     1      43.695 -17.554   4.355  1.00  0.00     0.007 A 
HETATM   19  C   UNL     1      43.407 -16.240   4.736  1.00  0.00     0.011 A 
ENDBRANCH   1  13
BRANCH   4  20
HETATM   20  C   UNL     1      41.143 -11.028   0.893  1.00  0.00    -0.020 A 
HETATM   21  C   UNL     1      40.818 -12.119   0.071  1.00  0.00     0.011 A 
HETATM   22  C   UNL     1      40.712 -11.973  -1.315  1.00  0.00     0.007 A 
HETATM   23  C   UNL     1      40.932 -10.731  -1.915  1.00  0.00    -0.062 A 
HETATM   24  C   UNL     1      40.859 -10.572  -3.404  1.00  0.00     0.048 C 
HETATM   25  C   UNL     1      41.241  -9.633  -1.104  1.00  0.00     0.007 A 
HETATM   26  C   UNL     1      41.344  -9.779   0.281  1.00  0.00     0.011 A 
ENDBRANCH   4  20
TORSDOF 2
ENDMDL
MODEL 6
REMARK VINA RESULT:      -8.3      3.280      5.597
REMARK  2 active torsions:
REMARK  status: ('A' for Active; 'I' for Inactive)
REMARK    1  A    between atoms: C_5  and  C_6 
REMARK    2  A    between atoms: C_9  and  C_10 
ROOT
HETATM    1  C   UNL     1      41.399 -11.134   2.302  1.00  0.00     0.220 C 
HETATM    2  N   UNL     1      41.313 -12.493   2.810  1.00  0.00    -0.126 NA
HETATM    3  N   UNL     1      42.618 -12.855   3.267  1.00  0.00    -0.126 NA
HETATM    4  C   UNL     1      42.444 -13.809   4.351  1.00  0.00     0.220 C 
HETATM    5  N   UNL     1      41.041 -13.721   4.659  1.00  0.00    -0.324 N 
HETATM    6  C   UNL     1      40.397 -12.857   3.790  1.00  0.00     0.315 C 
HETATM    7  O   UNL     1      39.256 -12.453   3.930  1.00  0.00    -0.252 OA
HETATM    8  C   UNL     1      43.365 -11.691   3.412  1.00  0.00     0.315 C 
HETATM    9  O   UNL     1      44.382 -11.538   4.065  1.00  0.00    -0.252 OA
HETATM   10  N   UNL     1      42.694 -10.684   2.738  1.00  0.00    -0.324 N 
HETATM   11  H   UNL     1      40.601 -14.070   5.495  1.00  0.00     0.165 HD
HETATM   12  H   UNL     1      42.998  -9.724   2.771  1.00  0.00     0.165 HD
ENDROOT
BRANCH   1  13
HETATM   13  C   UNL     1      41.297 -11.040   0.792  1.00  0.00    -0.020 A 
HETATM   14  C   UNL     1      41.541  -9.842   0.099  1.00  0.00     0.011 A 
HETATM   15  C   UNL     1      41.374  -9.764  -1.286  1.00  0.00     0.007 A 
HETATM   16  C   UNL     1      40.948 -10.879  -2.012  1.00  0.00    -0.062 A 
HETATM   17  C   UNL     1      40.742 -10.799  -3.494  1.00  0.00     0.048 C 
HETATM   18  C   UNL     1      40.710 -12.079  -1.333  1.00  0.00     0.007 A 
HETATM   19  C   UNL     1      40.880 -12.159   0.053  1.00  0.00     0.011 A 
ENDBRANCH   1  13
BRANCH   4  20
HETATM   20  C   UNL     1      42.799 -15.236   3.973  1.00  0.00    -0.020 A 
HETATM   21  C   UNL     1      43.214 -16.186   4.920  1.00  0.00     0.011 A 
HETATM   22  C   UNL     1      43.613 -17.468   4.531  1.00  0.00     0.007 A 
HETATM   23  C   UNL     1      43.608 -17.831   3.181  1.00  0.00    -0.062 A 
HETATM   24  C   UNL     1      44.070 -19.191   2.750  1.00  0.00     0.048 C 
HETATM   25  C   UNL     1      43.180 -16.898   2.230  1.00  0.00     0.007 A 
HETATM   26  C   UNL     1      42.781 -15.618   2.620  1.00  0.00     0.011 A 
ENDBRANCH   4  20
TORSDOF 2
ENDMDL
MODEL 7
REMARK VINA RESULT:      -8.2      3.000      6.858
REMARK  2 active torsions:
REMARK  status: ('A' for Active; 'I' for Inactive)
REMARK    1  A    between atoms: C_5  and  C_6 
REMARK    2  A    between atoms: C_9  and  C_10 
ROOT
HETATM    1  C   UNL     1      42.774 -14.437   4.330  1.00  0.00     0.220 C 
HETATM    2  N   UNL     1      42.258 -13.555   3.297  1.00  0.00    -0.126 NA
HETATM    3  N   UNL     1      40.870 -13.354   3.569  1.00  0.00    -0.126 NA
HETATM    4  C   UNL     1      40.520 -12.034   3.068  1.00  0.00     0.220 C 
HETATM    5  N   UNL     1      41.795 -11.423   2.801  1.00  0.00    -0.324 N 
HETATM    6  C   UNL     1      42.829 -12.315   3.034  1.00  0.00     0.315 C 
HETATM    7  O   UNL     1      44.010 -12.016   3.068  1.00  0.00    -0.252 OA
HETATM    8  C   UNL     1      40.624 -13.742   4.881  1.00  0.00     0.315 C 
HETATM    9  O   UNL     1      39.675 -13.437   5.580  1.00  0.00    -0.252 OA
HETATM   10  N   UNL     1      41.713 -14.487   5.301  1.00  0.00    -0.324 N 
HETATM   11  H   UNL     1      41.956 -10.440   2.654  1.00  0.00     0.165 HD
HETATM   12  H   UNL     1      41.806 -14.810   6.252  1.00  0.00     0.165 HD
ENDROOT
BRANCH   1  13
HETATM   13  C   UNL     1      43.092 -15.835   3.836  1.00  0.00    -0.020 A 
HETATM   14  C   UNL     1      42.812 -16.246   2.522  1.00  0.00     0.011 A 
HETATM   15  C   UNL     1      43.052 -17.560   2.111  1.00  0.00     0.007 A 
HETATM   16  C   UNL     1      43.567 -18.498   3.008  1.00  0.00    -0.062 A 
HETATM   17  C   UNL     1      43.805 -19.917   2.584  1.00  0.00     0.048 C 
HETATM   18  C   UNL     1      43.857 -18.098   4.317  1.00  0.00     0.007 A 
HETATM   19  C   UNL     1      43.620 -16.783   4.728  1.00  0.00     0.011 A 
ENDBRANCH   1  13
BRANCH   4  20
HETATM   20  C   UNL     1      39.687 -12.061   1.799  1.00  0.00    -0.020 A 
HETATM   21  C   UNL     1      40.015 -12.870   0.699  1.00  0.00     0.011 A 
HETATM   22  C   UNL     1      39.275 -12.813  -0.486  1.00  0.00     0.007 A 
HETATM   23  C   UNL     1      38.190 -11.941  -0.601  1.00  0.00    -0.062 A 
HETATM   24  C   UNL     1      37.414 -11.844  -1.881  1.00  0.00     0.048 C 
HETATM   25  C   UNL     1      37.844 -11.142   0.494  1.00  0.00     0.007 A 
HETATM   26  C   UNL     1      38.582 -11.201   1.679  1.00  0.00     0.011 A 
ENDBRANCH   4  20
TORSDOF 2
ENDMDL
MODEL 8
REMARK VINA RESULT:      -7.9      2.873      5.906
REMARK  2 active torsions:
REMARK  status: ('A' for Active; 'I' for Inactive)
REMARK    1  A    between atoms: C_5  and  C_6 
REMARK    2  A    between atoms: C_9  and  C_10 
ROOT
HETATM    1  C   UNL     1      42.518 -13.295   5.297  1.00  0.00     0.220 C 
HETATM    2  N   UNL     1      42.467 -12.942   3.889  1.00  0.00    -0.126 NA
HETATM    3  N   UNL     1      41.095 -12.717   3.560  1.00  0.00    -0.126 NA
HETATM    4  C   UNL     1      41.065 -11.739   2.484  1.00  0.00     0.220 C 
HETATM    5  N   UNL     1      42.410 -11.229   2.452  1.00  0.00    -0.324 N 
HETATM    6  C   UNL     1      43.213 -11.892   3.365  1.00  0.00     0.315 C 
HETATM    7  O   UNL     1      44.339 -11.547   3.680  1.00  0.00    -0.252 OA
HETATM    8  C   UNL     1      40.388 -12.544   4.744  1.00  0.00     0.315 C 
HETATM    9  O   UNL     1      39.295 -12.027   4.888  1.00  0.00    -0.252 OA
HETATM   10  N   UNL     1      41.194 -12.995   5.776  1.00  0.00    -0.324 N 
HETATM   11  H   UNL     1      42.708 -10.385   1.988  1.00  0.00     0.165 HD
HETATM   12  H   UNL     1      40.932 -12.894   6.744  1.00  0.00     0.165 HD
ENDROOT
BRANCH   1  13
HETATM   13  C   UNL     1      42.844 -14.755   5.550  1.00  0.00    -0.020 A 
HETATM   14  C   UNL     1      43.175 -15.638   4.509  1.00  0.00     0.011 A 
HETATM   15  C   UNL     1      43.404 -16.994   4.759  1.00  0.00     0.007 A 
HETATM   16  C   UNL     1      43.295 -17.502   6.055  1.00  0.00    -0.062 A 
HETATM   17  C   UNL     1      43.514 -18.959   6.331  1.00  0.00     0.048 C 
HETATM   18  C   UNL     1      42.973 -16.630   7.101  1.00  0.00     0.007 A 
HETATM   19  C   UNL     1      42.747 -15.272   6.852  1.00  0.00     0.011 A 
ENDBRANCH   1  13
BRANCH   4  20
HETATM   20  C   UNL     1      40.706 -12.327   1.131  1.00  0.00    -0.020 A 
HETATM   21  C   UNL     1      40.175 -13.619   0.988  1.00  0.00     0.011 A 
HETATM   22  C   UNL     1      39.930 -14.163  -0.276  1.00  0.00     0.007 A 
HETATM   23  C   UNL     1      40.215 -13.428  -1.430  1.00  0.00    -0.062 A 
HETATM   24  C   UNL     1      39.992 -14.017  -2.791  1.00  0.00     0.048 C 
HETATM   25  C   UNL     1      40.728 -12.133  -1.299  1.00  0.00     0.007 A 
HETATM   26  C   UNL     1      40.970 -11.589  -0.035  1.00  0.00     0.011 A 
ENDBRANCH   4  20
TORSDOF 2
ENDMDL
MODEL 9
REMARK VINA RESULT:      -7.7     15.921     18.452
REMARK  2 active torsions:
REMARK  status: ('A' for Active; 'I' for Inactive)
REMARK    1  A    between atoms: C_5  and  C_6 
REMARK    2  A    between atoms: C_9  and  C_10 
ROOT
HETATM    1  C   UNL     1      44.632 -29.099   0.012  1.00  0.00     0.220 C 
HETATM    2  N   UNL     1      46.048 -29.247   0.303  1.00  0.00    -0.126 NA
HETATM    3  N   UNL     1      46.750 -29.107  -0.933  1.00  0.00    -0.126 NA
HETATM    4  C   UNL     1      48.059 -28.554  -0.625  1.00  0.00     0.220 C 
HETATM    5  N   UNL     1      47.933 -28.126   0.744  1.00  0.00    -0.324 N 
HETATM    6  C   UNL     1      46.690 -28.462   1.254  1.00  0.00     0.315 C 
HETATM    7  O   UNL     1      46.245 -28.064   2.316  1.00  0.00    -0.252 OA
HETATM    8  C   UNL     1      45.892 -28.519  -1.855  1.00  0.00     0.315 C 
HETATM    9  O   UNL     1      46.190 -27.950  -2.891  1.00  0.00    -0.252 OA
HETATM   10  N   UNL     1      44.608 -28.614  -1.343  1.00  0.00    -0.324 N 
HETATM   11  H   UNL     1      48.560 -27.502   1.224  1.00  0.00     0.165 HD
HETATM   12  H   UNL     1      43.818 -28.181  -1.794  1.00  0.00     0.165 HD
ENDROOT
BRANCH   1  13
HETATM   13  C   UNL     1      43.850 -30.394   0.114  1.00  0.00    -0.020 A 
HETATM   14  C   UNL     1      42.917 -30.626   1.139  1.00  0.00     0.011 A 
HETATM   15  C   UNL     1      42.259 -31.854   1.251  1.00  0.00     0.007 A 
HETATM   16  C   UNL     1      42.526 -32.884   0.347  1.00  0.00    -0.062 A 
HETATM   17  C   UNL     1      41.845 -34.214   0.472  1.00  0.00     0.048 C 
HETATM   18  C   UNL     1      43.447 -32.662  -0.683  1.00  0.00     0.007 A 
HETATM   19  C   UNL     1      44.104 -31.432  -0.797  1.00  0.00     0.011 A 
ENDBRANCH   1  13
BRANCH   4  20
HETATM   20  C   UNL     1      49.192 -29.558  -0.747  1.00  0.00    -0.020 A 
HETATM   21  C   UNL     1      49.870 -30.069   0.371  1.00  0.00     0.011 A 
HETATM   22  C   UNL     1      50.962 -30.929   0.222  1.00  0.00     0.007 A 
HETATM   23  C   UNL     1      51.406 -31.295  -1.051  1.00  0.00    -0.062 A 
HETATM   24  C   UNL     1      52.600 -32.186  -1.221  1.00  0.00     0.048 C 
HETATM   25  C   UNL     1      50.728 -30.805  -2.172  1.00  0.00     0.007 A 
HETATM   26  C   UNL     1      49.635 -29.947  -2.022  1.00  0.00     0.011 A 
ENDBRANCH   4  20
TORSDOF 2
ENDMDL
MODEL 10
REMARK VINA RESULT:      -7.6     15.933     18.138
REMARK  2 active torsions:
REMARK  status: ('A' for Active; 'I' for Inactive)
REMARK    1  A    between atoms: C_5  and  C_6 
REMARK    2  A    between atoms: C_9  and  C_10 
ROOT
HETATM    1  C   UNL     1      48.047 -28.520  -0.554  1.00  0.00     0.220 C 
HETATM    2  N   UNL     1      46.771 -29.116  -0.911  1.00  0.00    -0.126 NA
HETATM    3  N   UNL     1      46.034 -29.292   0.299  1.00  0.00    -0.126 NA
HETATM    4  C   UNL     1      44.622 -29.193  -0.038  1.00  0.00     0.220 C 
HETATM    5  N   UNL     1      44.630 -28.669  -1.378  1.00  0.00    -0.324 N 
HETATM    6  C   UNL     1      45.925 -28.538  -1.851  1.00  0.00     0.315 C 
HETATM    7  O   UNL     1      46.235 -27.953  -2.874  1.00  0.00    -0.252 OA
HETATM    8  C   UNL     1      46.621 -28.505   1.283  1.00  0.00     0.315 C 
HETATM    9  O   UNL     1      46.125 -28.131   2.331  1.00  0.00    -0.252 OA
HETATM   10  N   UNL     1      47.874 -28.135   0.822  1.00  0.00    -0.324 N 
HETATM   11  H   UNL     1      43.840 -28.263  -1.854  1.00  0.00     0.165 HD
HETATM   12  H   UNL     1      48.461 -27.489   1.326  1.00  0.00     0.165 HD
ENDROOT
BRANCH   1  13
HETATM   13  C   UNL     1      49.222 -29.470  -0.684  1.00  0.00    -0.020 A 
HETATM   14  C   UNL     1      49.677 -29.932  -1.931  1.00  0.00     0.011 A 
HETATM   15  C   UNL     1      50.718 -30.859  -2.019  1.00  0.00     0.007 A 
HETATM   16  C   UNL     1      51.322 -31.357  -0.863  1.00  0.00    -0.062 A 
HETATM   17  C   UNL     1      52.423 -32.372  -0.946  1.00  0.00     0.048 C 
HETATM   18  C   UNL     1      50.883 -30.899   0.384  1.00  0.00     0.007 A 
HETATM   19  C   UNL     1      49.843 -29.967   0.473  1.00  0.00     0.011 A 
ENDBRANCH   1  13
BRANCH   4  20
HETATM   20  C   UNL     1      43.891 -30.524  -0.010  1.00  0.00    -0.020 A 
HETATM   21  C   UNL     1      43.036 -30.892   1.041  1.00  0.00     0.011 A 
HETATM   22  C   UNL     1      42.441 -32.156   1.079  1.00  0.00     0.007 A 
HETATM   23  C   UNL     1      42.690 -33.086   0.065  1.00  0.00    -0.062 A 
HETATM   24  C   UNL     1      42.087 -34.457   0.116  1.00  0.00     0.048 C 
HETATM   25  C   UNL     1      43.526 -32.723  -0.996  1.00  0.00     0.007 A 
HETATM   26  C   UNL     1      44.119 -31.458  -1.034  1.00  0.00     0.011 A 
ENDBRANCH   4  20
TORSDOF 2
ENDMDL
