MODEL 1
REMARK VINA RESULT:      -7.6      0.000      0.000
REMARK  7 active torsions:
REMARK  status: ('A' for Active; 'I' for Inactive)
REMARK    1  A    between atoms: O_2  and  C_3 
REMARK    2  A    between atoms: C_4  and  C_5 
REMARK    3  A    between atoms: C_5  and  N_6 
REMARK    4  A    between atoms: N_6  and  C_7 
REMARK    5  A    between atoms: C_9  and  N_10 
REMARK    6  A    between atoms: N_10  and  C_11 
REMARK    7  A    between atoms: C_11  and  C_12 
ROOT
HETATM    1  C   UNL     1      43.909 -16.515   5.235  1.00  0.00     0.181 A 
HETATM    2  N   UNL     1      43.539 -15.971   4.072  1.00  0.00    -0.207 NA
HETATM    3  C   UNL     1      43.392 -16.812   3.031  1.00  0.00     0.119 A 
HETATM    4  C   UNL     1      43.539 -18.212   3.154  1.00  0.00     0.031 A 
HETATM    5  C   UNL     1      43.918 -18.691   4.423  1.00  0.00     0.048 A 
HETATM    6  N   UNL     1      44.095 -17.815   5.416  1.00  0.00    -0.330 N 
HETATM    7  H   UNL     1      44.359 -18.097   6.351  1.00  0.00     0.168 HD
HETATM    8  C   UNL     1      43.310 -19.165   2.135  1.00  0.00     0.017 A 
HETATM    9  C   UNL     1      43.493 -20.530   2.370  1.00  0.00     0.001 A 
HETATM   10  C   UNL     1      43.896 -20.977   3.625  1.00  0.00     0.002 A 
HETATM   11  C   UNL     1      44.103 -20.061   4.655  1.00  0.00     0.030 A 
ENDROOT
BRANCH   1  12
HETATM   12  N   UNL     1      44.126 -15.722   6.360  1.00  0.00    -0.258 NA
HETATM   13  H   UNL     1      44.643 -16.324   7.011  1.00  0.00     0.130 HD
BRANCH  12  14
HETATM   14  C   UNL     1      42.837 -15.498   7.053  1.00  0.00     0.136 C 
BRANCH  14  15
HETATM   15  C   UNL     1      42.083 -14.342   6.432  1.00  0.00    -0.012 A 
HETATM   16  C   UNL     1      42.669 -13.060   6.378  1.00  0.00     0.075 A 
HETATM   17  C   UNL     1      41.924 -11.976   5.901  1.00  0.00     0.037 A 
HETATM   18  C   UNL     1      40.606 -12.152   5.479  1.00  0.00     0.003 A 
HETATM   19  C   UNL     1      40.019 -13.411   5.531  1.00  0.00     0.001 A 
HETATM   20  C   UNL     1      40.749 -14.496   6.010  1.00  0.00     0.011 A 
BRANCH  16  21
HETATM   21  O   UNL     1      43.958 -12.972   6.836  1.00  0.00    -0.355 OA
HETATM   22  C   UNL     1      44.363 -11.731   7.407  1.00  0.00     0.210 C 
ENDBRANCH  16  21
ENDBRANCH  14  15
ENDBRANCH  12  14
ENDBRANCH   1  12
BRANCH   3  23
HETATM   23  N   UNL     1      43.085 -16.178   1.825  1.00  0.00    -0.273 NA
HETATM   24  H   UNL     1      42.615 -16.884   1.256  1.00  0.00     0.129 HD
BRANCH  23  25
HETATM   25  C   UNL     1      42.211 -15.012   1.966  1.00  0.00     0.120 C 
BRANCH  25  26
HETATM   26  C   UNL     1      40.825 -15.428   1.575  1.00  0.00    -0.022 C 
HETATM   27  C   UNL     1      39.823 -15.649   2.435  1.00  0.00     0.008 C 
ENDBRANCH  25  26
ENDBRANCH  23  25
ENDBRANCH   3  23
TORSDOF 7
ENDMDL
MODEL 2
REMARK VINA RESULT:      -7.5      2.176      4.168
REMARK  7 active torsions:
REMARK  status: ('A' for Active; 'I' for Inactive)
REMARK    1  A    between atoms: O_2  and  C_3 
REMARK    2  A    between atoms: C_4  and  C_5 
REMARK    3  A    between atoms: C_5  and  N_6 
REMARK    4  A    between atoms: N_6  and  C_7 
REMARK    5  A    between atoms: C_9  and  N_10 
REMARK    6  A    between atoms: N_10  and  C_11 
REMARK    7  A    between atoms: C_11  and  C_12 
ROOT
HETATM    1  C   UNL     1      43.153 -16.321   2.428  1.00  0.00     0.181 A 
HETATM    2  N   UNL     1      43.454 -15.922   3.667  1.00  0.00    -0.207 NA
HETATM    3  C   UNL     1      43.722 -16.889   4.565  1.00  0.00     0.119 A 
HETATM    4  C   UNL     1      43.768 -18.258   4.220  1.00  0.00     0.031 A 
HETATM    5  C   UNL     1      43.449 -18.578   2.886  1.00  0.00     0.048 A 
HETATM    6  N   UNL     1      43.147 -17.589   2.041  1.00  0.00    -0.330 N 
HETATM    7  H   UNL     1      42.918 -17.754   1.070  1.00  0.00     0.168 HD
HETATM    8  C   UNL     1      44.133 -19.320   5.080  1.00  0.00     0.017 A 
HETATM    9  C   UNL     1      44.137 -20.643   4.630  1.00  0.00     0.001 A 
HETATM   10  C   UNL     1      43.791 -20.937   3.314  1.00  0.00     0.002 A 
HETATM   11  C   UNL     1      43.453 -19.907   2.439  1.00  0.00     0.030 A 
ENDROOT
BRANCH   1  12
HETATM   12  N   UNL     1      42.822 -15.398   1.438  1.00  0.00    -0.258 NA
HETATM   13  H   UNL     1      43.610 -15.421   0.781  1.00  0.00     0.130 HD
BRANCH  12  14
HETATM   14  C   UNL     1      42.890 -14.032   2.005  1.00  0.00     0.136 C 
BRANCH  14  15
HETATM   15  C   UNL     1      41.514 -13.541   2.402  1.00  0.00    -0.012 A 
HETATM   16  C   UNL     1      40.547 -13.264   1.412  1.00  0.00     0.075 A 
HETATM   17  C   UNL     1      39.316 -12.710   1.781  1.00  0.00     0.037 A 
HETATM   18  C   UNL     1      39.038 -12.427   3.119  1.00  0.00     0.003 A 
HETATM   19  C   UNL     1      39.985 -12.694   4.100  1.00  0.00     0.001 A 
HETATM   20  C   UNL     1      41.216 -13.241   3.744  1.00  0.00     0.011 A 
BRANCH  16  21
HETATM   21  O   UNL     1      40.914 -13.547   0.122  1.00  0.00    -0.355 OA
HETATM   22  C   UNL     1      39.968 -14.245  -0.685  1.00  0.00     0.210 C 
ENDBRANCH  16  21
ENDBRANCH  14  15
ENDBRANCH  12  14
ENDBRANCH   1  12
BRANCH   3  23
HETATM   23  N   UNL     1      43.946 -16.418   5.860  1.00  0.00    -0.273 NA
HETATM   24  H   UNL     1      44.896 -16.043   5.855  1.00  0.00     0.129 HD
BRANCH  23  25
HETATM   25  C   UNL     1      43.017 -15.370   6.286  1.00  0.00     0.120 C 
BRANCH  25  26
HETATM   26  C   UNL     1      41.797 -16.039   6.843  1.00  0.00    -0.022 C 
HETATM   27  C   UNL     1      40.556 -15.889   6.361  1.00  0.00     0.008 C 
ENDBRANCH  25  26
ENDBRANCH  23  25
ENDBRANCH   3  23
TORSDOF 7
ENDMDL
MODEL 3
REMARK VINA RESULT:      -7.4      3.224      6.220
REMARK  7 active torsions:
REMARK  status: ('A' for Active; 'I' for Inactive)
REMARK    1  A    between atoms: O_2  and  C_3 
REMARK    2  A    between atoms: C_4  and  C_5 
REMARK    3  A    between atoms: C_5  and  N_6 
REMARK    4  A    between atoms: N_6  and  C_7 
REMARK    5  A    between atoms: C_9  and  N_10 
REMARK    6  A    between atoms: N_10  and  C_11 
REMARK    7  A    between atoms: C_11  and  C_12 
ROOT
HETATM    1  C   UNL     1      40.550 -15.783   2.400  1.00  0.00     0.181 A 
HETATM    2  N   UNL     1      41.512 -16.640   2.045  1.00  0.00    -0.207 NA
HETATM    3  C   UNL     1      42.324 -17.079   3.026  1.00  0.00     0.119 A 
HETATM    4  C   UNL     1      42.140 -16.728   4.382  1.00  0.00     0.031 A 
HETATM    5  C   UNL     1      41.090 -15.829   4.659  1.00  0.00     0.048 A 
HETATM    6  N   UNL     1      40.338 -15.386   3.648  1.00  0.00    -0.330 N 
HETATM    7  H   UNL     1      39.566 -14.747   3.783  1.00  0.00     0.168 HD
HETATM    8  C   UNL     1      42.888 -17.219   5.477  1.00  0.00     0.017 A 
HETATM    9  C   UNL     1      42.620 -16.796   6.781  1.00  0.00     0.001 A 
HETATM   10  C   UNL     1      41.597 -15.886   7.027  1.00  0.00     0.002 A 
HETATM   11  C   UNL     1      40.826 -15.406   5.969  1.00  0.00     0.030 A 
ENDROOT
BRANCH   1  12
HETATM   12  N   UNL     1      39.685 -15.242   1.452  1.00  0.00    -0.258 NA
HETATM   13  H   UNL     1      39.171 -16.046   1.074  1.00  0.00     0.130 HD
BRANCH  12  14
HETATM   14  C   UNL     1      40.472 -14.765   0.292  1.00  0.00     0.136 C 
BRANCH  14  15
HETATM   15  C   UNL     1      39.571 -14.156  -0.760  1.00  0.00    -0.012 A 
HETATM   16  C   UNL     1      39.022 -12.871  -0.567  1.00  0.00     0.075 A 
HETATM   17  C   UNL     1      38.106 -12.361  -1.494  1.00  0.00     0.037 A 
HETATM   18  C   UNL     1      37.729 -13.114  -2.606  1.00  0.00     0.003 A 
HETATM   19  C   UNL     1      38.262 -14.382  -2.804  1.00  0.00     0.001 A 
HETATM   20  C   UNL     1      39.171 -14.902  -1.885  1.00  0.00     0.011 A 
BRANCH  16  21
HETATM   21  O   UNL     1      39.427 -12.212   0.565  1.00  0.00    -0.355 OA
HETATM   22  C   UNL     1      38.409 -11.756   1.453  1.00  0.00     0.210 C 
ENDBRANCH  16  21
ENDBRANCH  14  15
ENDBRANCH  12  14
ENDBRANCH   1  12
BRANCH   3  23
HETATM   23  N   UNL     1      43.359 -17.904   2.582  1.00  0.00    -0.273 NA
HETATM   24  H   UNL     1      43.968 -18.039   3.391  1.00  0.00     0.129 HD
BRANCH  23  25
HETATM   25  C   UNL     1      42.915 -19.209   2.089  1.00  0.00     0.120 C 
BRANCH  25  26
HETATM   26  C   UNL     1      43.823 -20.251   2.670  1.00  0.00    -0.022 C 
HETATM   27  C   UNL     1      43.875 -20.582   3.967  1.00  0.00     0.008 C 
ENDBRANCH  25  26
ENDBRANCH  23  25
ENDBRANCH   3  23
TORSDOF 7
ENDMDL
MODEL 4
REMARK VINA RESULT:      -7.4      3.349      6.081
REMARK  7 active torsions:
REMARK  status: ('A' for Active; 'I' for Inactive)
REMARK    1  A    between atoms: O_2  and  C_3 
REMARK    2  A    between atoms: C_4  and  C_5 
REMARK    3  A    between atoms: C_5  and  N_6 
REMARK    4  A    between atoms: N_6  and  C_7 
REMARK    5  A    between atoms: C_9  and  N_10 
REMARK    6  A    between atoms: N_10  and  C_11 
REMARK    7  A    between atoms: C_11  and  C_12 
ROOT
HETATM    1  C   UNL     1      40.533 -15.476   2.401  1.00  0.00     0.181 A 
HETATM    2  N   UNL     1      40.551 -15.055   3.669  1.00  0.00    -0.207 NA
HETATM    3  C   UNL     1      41.388 -15.695   4.507  1.00  0.00     0.119 A 
HETATM    4  C   UNL     1      42.271 -16.710   4.076  1.00  0.00     0.031 A 
HETATM    5  C   UNL     1      42.187 -17.075   2.717  1.00  0.00     0.048 A 
HETATM    6  N   UNL     1      41.311 -16.443   1.933  1.00  0.00    -0.330 N 
HETATM    7  H   UNL     1      41.210 -16.653   0.949  1.00  0.00     0.168 HD
HETATM    8  C   UNL     1      43.241 -17.362   4.871  1.00  0.00     0.017 A 
HETATM    9  C   UNL     1      44.060 -18.360   4.337  1.00  0.00     0.001 A 
HETATM   10  C   UNL     1      43.940 -18.723   2.999  1.00  0.00     0.002 A 
HETATM   11  C   UNL     1      43.009 -18.078   2.185  1.00  0.00     0.030 A 
ENDROOT
BRANCH   1  12
HETATM   12  N   UNL     1      39.672 -14.904   1.467  1.00  0.00    -0.258 NA
HETATM   13  H   UNL     1      39.057 -15.670   1.171  1.00  0.00     0.130 HD
BRANCH  12  14
HETATM   14  C   UNL     1      40.432 -14.580   0.239  1.00  0.00     0.136 C 
BRANCH  14  15
HETATM   15  C   UNL     1      39.508 -14.095  -0.857  1.00  0.00    -0.012 A 
HETATM   16  C   UNL     1      38.852 -12.852  -0.733  1.00  0.00     0.075 A 
HETATM   17  C   UNL     1      37.919 -12.460  -1.699  1.00  0.00     0.037 A 
HETATM   18  C   UNL     1      37.629 -13.290  -2.783  1.00  0.00     0.003 A 
HETATM   19  C   UNL     1      38.267 -14.518  -2.912  1.00  0.00     0.001 A 
HETATM   20  C   UNL     1      39.194 -14.920  -1.954  1.00  0.00     0.011 A 
BRANCH  16  21
HETATM   21  O   UNL     1      39.177 -12.112   0.375  1.00  0.00    -0.355 OA
HETATM   22  C   UNL     1      38.108 -11.475   1.069  1.00  0.00     0.210 C 
ENDBRANCH  16  21
ENDBRANCH  14  15
ENDBRANCH  12  14
ENDBRANCH   1  12
BRANCH   3  23
HETATM   23  N   UNL     1      41.302 -15.269   5.834  1.00  0.00    -0.273 NA
HETATM   24  H   UNL     1      41.654 -16.046   6.395  1.00  0.00     0.129 HD
BRANCH  23  25
HETATM   25  C   UNL     1      42.085 -14.068   6.130  1.00  0.00     0.120 C 
BRANCH  25  26
HETATM   26  C   UNL     1      43.120 -14.435   7.150  1.00  0.00    -0.022 C 
HETATM   27  C   UNL     1      43.031 -15.476   7.988  1.00  0.00     0.008 C 
ENDBRANCH  25  26
ENDBRANCH  23  25
ENDBRANCH   3  23
TORSDOF 7
ENDMDL
MODEL 5
REMARK VINA RESULT:      -7.4      1.859      6.804
REMARK  7 active torsions:
REMARK  status: ('A' for Active; 'I' for Inactive)
REMARK    1  A    between atoms: O_2  and  C_3 
REMARK    2  A    between atoms: C_4  and  C_5 
REMARK    3  A    between atoms: C_5  and  N_6 
REMARK    4  A    between atoms: N_6  and  C_7 
REMARK    5  A    between atoms: C_9  and  N_10 
REMARK    6  A    between atoms: N_10  and  C_11 
REMARK    7  A    between atoms: C_11  and  C_12 
ROOT
HETATM    1  C   UNL     1      42.683 -15.552   6.105  1.00  0.00     0.181 A 
HETATM    2  N   UNL     1      43.367 -14.695   6.869  1.00  0.00    -0.207 NA
HETATM    3  C   UNL     1      43.060 -13.391   6.740  1.00  0.00     0.119 A 
HETATM    4  C   UNL     1      42.018 -12.932   5.903  1.00  0.00     0.031 A 
HETATM    5  C   UNL     1      41.346 -13.912   5.147  1.00  0.00     0.048 A 
HETATM    6  N   UNL     1      41.714 -15.190   5.275  1.00  0.00    -0.330 N 
HETATM    7  H   UNL     1      41.265 -15.940   4.766  1.00  0.00     0.168 HD
HETATM    8  C   UNL     1      41.574 -11.595   5.785  1.00  0.00     0.017 A 
HETATM    9  C   UNL     1      40.533 -11.254   4.917  1.00  0.00     0.001 A 
HETATM   10  C   UNL     1      39.903 -12.236   4.159  1.00  0.00     0.002 A 
HETATM   11  C   UNL     1      40.303 -13.567   4.277  1.00  0.00     0.030 A 
ENDROOT
BRANCH   1  12
HETATM   12  N   UNL     1      42.955 -16.918   6.137  1.00  0.00    -0.258 NA
HETATM   13  H   UNL     1      43.222 -17.110   7.110  1.00  0.00     0.130 HD
BRANCH  12  14
HETATM   14  C   UNL     1      44.201 -17.184   5.383  1.00  0.00     0.136 C 
BRANCH  14  15
HETATM   15  C   UNL     1      43.981 -18.251   4.333  1.00  0.00    -0.012 A 
HETATM   16  C   UNL     1      43.385 -17.918   3.098  1.00  0.00     0.075 A 
HETATM   17  C   UNL     1      43.087 -18.929   2.177  1.00  0.00     0.037 A 
HETATM   18  C   UNL     1      43.373 -20.263   2.470  1.00  0.00     0.003 A 
HETATM   19  C   UNL     1      43.957 -20.600   3.685  1.00  0.00     0.001 A 
HETATM   20  C   UNL     1      44.253 -19.603   4.612  1.00  0.00     0.011 A 
BRANCH  16  21
HETATM   21  O   UNL     1      43.115 -16.589   2.903  1.00  0.00    -0.355 OA
HETATM   22  C   UNL     1      43.415 -16.044   1.621  1.00  0.00     0.210 C 
ENDBRANCH  16  21
ENDBRANCH  14  15
ENDBRANCH  12  14
ENDBRANCH   1  12
BRANCH   3  23
HETATM   23  N   UNL     1      43.862 -12.538   7.500  1.00  0.00    -0.273 NA
HETATM   24  H   UNL     1      44.184 -13.098   8.291  1.00  0.00     0.129 HD
BRANCH  23  25
HETATM   25  C   UNL     1      45.022 -12.008   6.782  1.00  0.00     0.120 C 
BRANCH  25  26
HETATM   26  C   UNL     1      45.398 -10.703   7.417  1.00  0.00    -0.022 C 
HETATM   27  C   UNL     1      45.322 -10.443   8.729  1.00  0.00     0.008 C 
ENDBRANCH  25  26
ENDBRANCH  23  25
ENDBRANCH   3  23
TORSDOF 7
ENDMDL
MODEL 6
REMARK VINA RESULT:      -7.3      0.991      2.008
REMARK  7 active torsions:
REMARK  status: ('A' for Active; 'I' for Inactive)
REMARK    1  A    between atoms: O_2  and  C_3 
REMARK    2  A    between atoms: C_4  and  C_5 
REMARK    3  A    between atoms: C_5  and  N_6 
REMARK    4  A    between atoms: N_6  and  C_7 
REMARK    5  A    between atoms: C_9  and  N_10 
REMARK    6  A    between atoms: N_10  and  C_11 
REMARK    7  A    between atoms: C_11  and  C_12 
ROOT
HETATM    1  C   UNL     1      43.910 -16.535   5.295  1.00  0.00     0.181 A 
HETATM    2  N   UNL     1      43.445 -15.967   4.179  1.00  0.00    -0.207 NA
HETATM    3  C   UNL     1      43.255 -16.777   3.121  1.00  0.00     0.119 A 
HETATM    4  C   UNL     1      43.453 -18.175   3.186  1.00  0.00     0.031 A 
HETATM    5  C   UNL     1      43.932 -18.682   4.410  1.00  0.00     0.048 A 
HETATM    6  N   UNL     1      44.148 -17.834   5.418  1.00  0.00    -0.330 N 
HETATM    7  H   UNL     1      44.482 -18.137   6.323  1.00  0.00     0.168 HD
HETATM    8  C   UNL     1      43.186 -19.102   2.152  1.00  0.00     0.017 A 
HETATM    9  C   UNL     1      43.427 -20.466   2.326  1.00  0.00     0.001 A 
HETATM   10  C   UNL     1      43.927 -20.941   3.536  1.00  0.00     0.002 A 
HETATM   11  C   UNL     1      44.173 -20.052   4.581  1.00  0.00     0.030 A 
ENDROOT
BRANCH   1  12
HETATM   12  N   UNL     1      44.177 -15.773   6.430  1.00  0.00    -0.258 NA
HETATM   13  H   UNL     1      44.305 -16.458   7.184  1.00  0.00     0.130 HD
BRANCH  12  14
HETATM   14  C   UNL     1      42.949 -15.049   6.830  1.00  0.00     0.136 C 
BRANCH  14  15
HETATM   15  C   UNL     1      43.069 -13.571   6.527  1.00  0.00    -0.012 A 
HETATM   16  C   UNL     1      42.042 -12.906   5.824  1.00  0.00     0.075 A 
HETATM   17  C   UNL     1      42.209 -11.567   5.455  1.00  0.00     0.037 A 
HETATM   18  C   UNL     1      43.384 -10.884   5.774  1.00  0.00     0.003 A 
HETATM   19  C   UNL     1      44.402 -11.532   6.463  1.00  0.00     0.001 A 
HETATM   20  C   UNL     1      44.249 -12.867   6.831  1.00  0.00     0.011 A 
BRANCH  16  21
HETATM   21  O   UNL     1      40.935 -13.659   5.529  1.00  0.00    -0.355 OA
HETATM   22  C   UNL     1      39.929 -13.050   4.724  1.00  0.00     0.210 C 
ENDBRANCH  16  21
ENDBRANCH  14  15
ENDBRANCH  12  14
ENDBRANCH   1  12
BRANCH   3  23
HETATM   23  N   UNL     1      42.849 -16.115   1.961  1.00  0.00    -0.273 NA
HETATM   24  H   UNL     1      42.461 -16.839   1.353  1.00  0.00     0.129 HD
BRANCH  23  25
HETATM   25  C   UNL     1      41.837 -15.080   2.184  1.00  0.00     0.120 C 
BRANCH  25  26
HETATM   26  C   UNL     1      40.574 -15.520   1.507  1.00  0.00    -0.022 C 
HETATM   27  C   UNL     1      40.088 -14.991   0.377  1.00  0.00     0.008 C 
ENDBRANCH  25  26
ENDBRANCH  23  25
ENDBRANCH   3  23
TORSDOF 7
ENDMDL
MODEL 7
REMARK VINA RESULT:      -7.1      1.925      3.630
REMARK  7 active torsions:
REMARK  status: ('A' for Active; 'I' for Inactive)
REMARK    1  A    between atoms: O_2  and  C_3 
REMARK    2  A    between atoms: C_4  and  C_5 
REMARK    3  A    between atoms: C_5  and  N_6 
REMARK    4  A    between atoms: N_6  and  C_7 
REMARK    5  A    between atoms: C_9  and  N_10 
REMARK    6  A    between atoms: N_10  and  C_11 
REMARK    7  A    between atoms: C_11  and  C_12 
ROOT
HETATM    1  C   UNL     1      43.313 -14.065   6.065  1.00  0.00     0.181 A 
HETATM    2  N   UNL     1      42.630 -13.696   4.978  1.00  0.00    -0.207 NA
HETATM    3  C   UNL     1      42.541 -14.600   3.984  1.00  0.00     0.119 A 
HETATM    4  C   UNL     1      43.067 -15.906   4.091  1.00  0.00     0.031 A 
HETATM    5  C   UNL     1      43.759 -16.206   5.281  1.00  0.00     0.048 A 
HETATM    6  N   UNL     1      43.859 -15.264   6.222  1.00  0.00    -0.330 N 
HETATM    7  H   UNL     1      44.336 -15.420   7.101  1.00  0.00     0.168 HD
HETATM    8  C   UNL     1      42.933 -16.938   3.134  1.00  0.00     0.017 A 
HETATM    9  C   UNL     1      43.502 -18.196   3.344  1.00  0.00     0.001 A 
HETATM   10  C   UNL     1      44.206 -18.460   4.516  1.00  0.00     0.002 A 
HETATM   11  C   UNL     1      44.330 -17.469   5.489  1.00  0.00     0.030 A 
ENDROOT
BRANCH   1  12
HETATM   12  N   UNL     1      43.495 -13.187   7.131  1.00  0.00    -0.258 NA
HETATM   13  H   UNL     1      42.696 -12.544   7.082  1.00  0.00     0.130 HD
BRANCH  12  14
HETATM   14  C   UNL     1      44.655 -12.313   6.848  1.00  0.00     0.136 C 
BRANCH  14  15
HETATM   15  C   UNL     1      44.560 -11.018   7.627  1.00  0.00    -0.012 A 
HETATM   16  C   UNL     1      43.462 -10.154   7.434  1.00  0.00     0.075 A 
HETATM   17  C   UNL     1      43.436  -8.911   8.077  1.00  0.00     0.037 A 
HETATM   18  C   UNL     1      44.488  -8.519   8.906  1.00  0.00     0.003 A 
HETATM   19  C   UNL     1      45.575  -9.362   9.099  1.00  0.00     0.001 A 
HETATM   20  C   UNL     1      45.615 -10.600   8.460  1.00  0.00     0.011 A 
BRANCH  16  21
HETATM   21  O   UNL     1      42.486 -10.606   6.584  1.00  0.00    -0.355 OA
HETATM   22  C   UNL     1      41.369  -9.751   6.360  1.00  0.00     0.210 C 
ENDBRANCH  16  21
ENDBRANCH  14  15
ENDBRANCH  12  14
ENDBRANCH   1  12
BRANCH   3  23
HETATM   23  N   UNL     1      41.888 -14.129   2.843  1.00  0.00    -0.273 NA
HETATM   24  H   UNL     1      42.098 -14.806   2.107  1.00  0.00     0.129 HD
BRANCH  23  25
HETATM   25  C   UNL     1      40.436 -14.010   2.988  1.00  0.00     0.120 C 
BRANCH  25  26
HETATM   26  C   UNL     1      39.813 -15.225   2.370  1.00  0.00    -0.022 C 
HETATM   27  C   UNL     1      40.043 -15.650   1.121  1.00  0.00     0.008 C 
ENDBRANCH  25  26
ENDBRANCH  23  25
ENDBRANCH   3  23
TORSDOF 7
ENDMDL
MODEL 8
REMARK VINA RESULT:      -7.1      2.074      4.787
REMARK  7 active torsions:
REMARK  status: ('A' for Active; 'I' for Inactive)
REMARK    1  A    between atoms: O_2  and  C_3 
REMARK    2  A    between atoms: C_4  and  C_5 
REMARK    3  A    between atoms: C_5  and  N_6 
REMARK    4  A    between atoms: N_6  and  C_7 
REMARK    5  A    between atoms: C_9  and  N_10 
REMARK    6  A    between atoms: N_10  and  C_11 
REMARK    7  A    between atoms: C_11  and  C_12 
ROOT
HETATM    1  C   UNL     1      43.261 -14.097   5.980  1.00  0.00     0.181 A 
HETATM    2  N   UNL     1      43.754 -15.260   6.414  1.00  0.00    -0.207 NA
HETATM    3  C   UNL     1      43.777 -16.276   5.531  1.00  0.00     0.119 A 
HETATM    4  C   UNL     1      43.380 -16.123   4.184  1.00  0.00     0.031 A 
HETATM    5  C   UNL     1      42.888 -14.856   3.817  1.00  0.00     0.048 A 
HETATM    6  N   UNL     1      42.842 -13.890   4.739  1.00  0.00    -0.330 N 
HETATM    7  H   UNL     1      42.507 -12.958   4.535  1.00  0.00     0.168 HD
HETATM    8  C   UNL     1      43.463 -17.111   3.175  1.00  0.00     0.017 A 
HETATM    9  C   UNL     1      43.033 -16.850   1.872  1.00  0.00     0.001 A 
HETATM   10  C   UNL     1      42.524 -15.598   1.540  1.00  0.00     0.002 A 
HETATM   11  C   UNL     1      42.456 -14.597   2.508  1.00  0.00     0.030 A 
ENDROOT
BRANCH   1  12
HETATM   12  N   UNL     1      43.159 -12.998   6.830  1.00  0.00    -0.258 NA
HETATM   13  H   UNL     1      42.150 -12.854   6.954  1.00  0.00     0.130 HD
BRANCH  12  14
HETATM   14  C   UNL     1      43.592 -11.781   6.108  1.00  0.00     0.136 C 
BRANCH  14  15
HETATM   15  C   UNL     1      44.311 -10.827   7.037  1.00  0.00    -0.012 A 
HETATM   16  C   UNL     1      43.580  -9.886   7.792  1.00  0.00     0.075 A 
HETATM   17  C   UNL     1      44.260  -8.939   8.566  1.00  0.00     0.037 A 
HETATM   18  C   UNL     1      45.655  -8.916   8.596  1.00  0.00     0.003 A 
HETATM   19  C   UNL     1      46.384  -9.837   7.853  1.00  0.00     0.001 A 
HETATM   20  C   UNL     1      45.718 -10.781   7.075  1.00  0.00     0.011 A 
BRANCH  16  21
HETATM   21  O   UNL     1      42.216  -9.963   7.684  1.00  0.00    -0.355 OA
HETATM   22  C   UNL     1      41.495  -8.735   7.651  1.00  0.00     0.210 C 
ENDBRANCH  16  21
ENDBRANCH  14  15
ENDBRANCH  12  14
ENDBRANCH   1  12
BRANCH   3  23
HETATM   23  N   UNL     1      44.224 -17.486   6.065  1.00  0.00    -0.273 NA
HETATM   24  H   UNL     1      44.863 -17.233   6.821  1.00  0.00     0.129 HD
BRANCH  23  25
HETATM   25  C   UNL     1      43.158 -18.335   6.599  1.00  0.00     0.120 C 
BRANCH  25  26
HETATM   26  C   UNL     1      43.529 -19.762   6.327  1.00  0.00    -0.022 C 
HETATM   27  C   UNL     1      44.085 -20.204   5.191  1.00  0.00     0.008 C 
ENDBRANCH  25  26
ENDBRANCH  23  25
ENDBRANCH   3  23
TORSDOF 7
ENDMDL
MODEL 9
REMARK VINA RESULT:      -6.9      3.811      6.331
REMARK  7 active torsions:
REMARK  status: ('A' for Active; 'I' for Inactive)
REMARK    1  A    between atoms: O_2  and  C_3 
REMARK    2  A    between atoms: C_4  and  C_5 
REMARK    3  A    between atoms: C_5  and  N_6 
REMARK    4  A    between atoms: N_6  and  C_7 
REMARK    5  A    between atoms: C_9  and  N_10 
REMARK    6  A    between atoms: N_10  and  C_11 
REMARK    7  A    between atoms: C_11  and  C_12 
ROOT
HETATM    1  C   UNL     1      40.423 -15.698   1.828  1.00  0.00     0.181 A 
HETATM    2  N   UNL     1      40.101 -15.152   3.004  1.00  0.00    -0.207 NA
HETATM    3  C   UNL     1      40.792 -15.578   4.078  1.00  0.00     0.119 A 
HETATM    4  C   UNL     1      41.861 -16.497   3.982  1.00  0.00     0.031 A 
HETATM    5  C   UNL     1      42.134 -17.006   2.697  1.00  0.00     0.048 A 
HETATM    6  N   UNL     1      41.393 -16.587   1.667  1.00  0.00    -0.330 N 
HETATM    7  H   UNL     1      41.545 -16.909   0.721  1.00  0.00     0.168 HD
HETATM    8  C   UNL     1      42.693 -16.920   5.044  1.00  0.00     0.017 A 
HETATM    9  C   UNL     1      43.721 -17.841   4.833  1.00  0.00     0.001 A 
HETATM   10  C   UNL     1      43.953 -18.352   3.559  1.00  0.00     0.002 A 
HETATM   11  C   UNL     1      43.166 -17.931   2.489  1.00  0.00     0.030 A 
ENDROOT
BRANCH   1  12
HETATM   12  N   UNL     1      39.738 -15.351   0.665  1.00  0.00    -0.258 NA
HETATM   13  H   UNL     1      39.985 -16.080  -0.014  1.00  0.00     0.130 HD
BRANCH  12  14
HETATM   14  C   UNL     1      40.344 -14.129   0.090  1.00  0.00     0.136 C 
BRANCH  14  15
HETATM   15  C   UNL     1      39.276 -13.169  -0.387  1.00  0.00    -0.012 A 
HETATM   16  C   UNL     1      38.622 -13.390  -1.618  1.00  0.00     0.075 A 
HETATM   17  C   UNL     1      37.714 -12.441  -2.101  1.00  0.00     0.037 A 
HETATM   18  C   UNL     1      37.451 -11.277  -1.377  1.00  0.00     0.003 A 
HETATM   19  C   UNL     1      38.093 -11.050  -0.166  1.00  0.00     0.001 A 
HETATM   20  C   UNL     1      39.003 -11.985   0.323  1.00  0.00     0.011 A 
BRANCH  16  21
HETATM   21  O   UNL     1      38.958 -14.545  -2.275  1.00  0.00    -0.355 OA
HETATM   22  C   UNL     1      38.251 -14.840  -3.477  1.00  0.00     0.210 C 
ENDBRANCH  16  21
ENDBRANCH  14  15
ENDBRANCH  12  14
ENDBRANCH   1  12
BRANCH   3  23
HETATM   23  N   UNL     1      40.356 -15.036   5.289  1.00  0.00    -0.273 NA
HETATM   24  H   UNL     1      40.889 -15.519   6.014  1.00  0.00     0.129 HD
BRANCH  23  25
HETATM   25  C   UNL     1      40.572 -13.593   5.411  1.00  0.00     0.120 C 
BRANCH  25  26
HETATM   26  C   UNL     1      41.920 -13.383   6.034  1.00  0.00    -0.022 C 
HETATM   27  C   UNL     1      43.022 -13.020   5.365  1.00  0.00     0.008 C 
ENDBRANCH  25  26
ENDBRANCH  23  25
ENDBRANCH   3  23
TORSDOF 7
ENDMDL
MODEL 10
REMARK VINA RESULT:      -6.9      2.160      7.240
REMARK  7 active torsions:
REMARK  status: ('A' for Active; 'I' for Inactive)
REMARK    1  A    between atoms: O_2  and  C_3 
REMARK    2  A    between atoms: C_4  and  C_5 
REMARK    3  A    between atoms: C_5  and  N_6 
REMARK    4  A    between atoms: N_6  and  C_7 
REMARK    5  A    between atoms: C_9  and  N_10 
REMARK    6  A    between atoms: N_10  and  C_11 
REMARK    7  A    between atoms: C_11  and  C_12 
ROOT
HETATM    1  C   UNL     1      41.891 -13.684   4.779  1.00  0.00     0.181 A 
HETATM    2  N   UNL     1      43.090 -13.098   4.840  1.00  0.00    -0.207 NA
HETATM    3  C   UNL     1      43.143 -11.888   5.428  1.00  0.00     0.119 A 
HETATM    4  C   UNL     1      42.017 -11.281   6.027  1.00  0.00     0.031 A 
HETATM    5  C   UNL     1      40.800 -11.982   5.923  1.00  0.00     0.048 A 
HETATM    6  N   UNL     1      40.786 -13.159   5.292  1.00  0.00    -0.330 N 
HETATM    7  H   UNL     1      39.946 -13.714   5.192  1.00  0.00     0.168 HD
HETATM    8  C   UNL     1      42.012 -10.061   6.743  1.00  0.00     0.017 A 
HETATM    9  C   UNL     1      40.832  -9.552   7.290  1.00  0.00     0.001 A 
HETATM   10  C   UNL     1      39.635 -10.249   7.150  1.00  0.00     0.002 A 
HETATM   11  C   UNL     1      39.618 -11.467   6.472  1.00  0.00     0.030 A 
ENDROOT
BRANCH   1  12
HETATM   12  N   UNL     1      41.727 -14.918   4.155  1.00  0.00    -0.258 NA
HETATM   13  H   UNL     1      41.736 -15.603   4.919  1.00  0.00     0.130 HD
BRANCH  12  14
HETATM   14  C   UNL     1      42.951 -15.243   3.389  1.00  0.00     0.136 C 
BRANCH  14  15
HETATM   15  C   UNL     1      43.240 -16.728   3.434  1.00  0.00    -0.012 A 
HETATM   16  C   UNL     1      43.886 -17.292   4.554  1.00  0.00     0.075 A 
HETATM   17  C   UNL     1      44.244 -18.644   4.541  1.00  0.00     0.037 A 
HETATM   18  C   UNL     1      43.969 -19.440   3.428  1.00  0.00     0.003 A 
HETATM   19  C   UNL     1      43.335 -18.893   2.319  1.00  0.00     0.001 A 
HETATM   20  C   UNL     1      42.979 -17.546   2.319  1.00  0.00     0.011 A 
BRANCH  16  21
HETATM   21  O   UNL     1      44.141 -16.433   5.592  1.00  0.00    -0.355 OA
HETATM   22  C   UNL     1      43.570 -16.753   6.858  1.00  0.00     0.210 C 
ENDBRANCH  16  21
ENDBRANCH  14  15
ENDBRANCH  12  14
ENDBRANCH   1  12
BRANCH   3  23
HETATM   23  N   UNL     1      44.404 -11.290   5.388  1.00  0.00    -0.273 NA
HETATM   24  H   UNL     1      44.238 -10.290   5.518  1.00  0.00     0.129 HD
BRANCH  23  25
HETATM   25  C   UNL     1      45.326 -11.763   6.422  1.00  0.00     0.120 C 
BRANCH  25  26
HETATM   26  C   UNL     1      45.731 -10.582   7.251  1.00  0.00    -0.022 C 
HETATM   27  C   UNL     1      45.508 -10.459   8.566  1.00  0.00     0.008 C 
ENDBRANCH  25  26
ENDBRANCH  23  25
ENDBRANCH   3  23
TORSDOF 7
ENDMDL
