MODEL 1
REMARK VINA RESULT:      -8.3      0.000      0.000
REMARK  8 active torsions:
REMARK  status: ('A' for Active; 'I' for Inactive)
REMARK    1  A    between atoms: C_2  and  O_3 
REMARK    2  A    between atoms: O_3  and  C_4 
REMARK    3  A    between atoms: C_4  and  C_5 
REMARK    4  A    between atoms: C_6  and  N_7 
REMARK       I    between atoms: N_7  and  C_8 
REMARK    5  A    between atoms: C_8  and  C_9 
REMARK    6  A    between atoms: C_9  and  N_10 
REMARK    7  A    between atoms: C_22  and  C_23 
REMARK    8  A    between atoms: C_26  and  N_27 
ROOT
HETATM    1  C   UNL     1      42.859 -14.407   5.443  1.00  0.00     0.085 A 
HETATM    2  C   UNL     1      42.804 -13.024   5.338  1.00  0.00     0.093 A 
HETATM    3  S   UNL     1      42.907 -12.465   3.736  1.00  0.00    -0.082 SA
HETATM    4  C   UNL     1      43.081 -14.046   3.135  1.00  0.00     0.065 A 
HETATM    5  C   UNL     1      43.053 -15.001   4.136  1.00  0.00    -0.000 A 
ENDROOT
BRANCH   2   6
HETATM    6  N   UNL     1      42.590 -12.109   6.365  1.00  0.00    -0.319 N 
HETATM    7  C   UNL     1      43.568 -11.246   6.805  1.00  0.00     0.248 C 
HETATM    8  O   UNL     1      44.761 -11.298   6.513  1.00  0.00    -0.271 OA
HETATM    9  H   UNL     1      41.825 -12.363   6.997  1.00  0.00     0.169 HD
BRANCH   7  10
HETATM   10  C   UNL     1      43.079 -10.134   7.726  1.00  0.00     0.337 C 
BRANCH  10  11
HETATM   11  N   UNL     1      44.178  -9.492   8.627  1.00  0.00    -0.060 N 
HETATM   12  H   UNL     1      44.981  -9.465   7.977  1.00  0.00     0.280 HD
HETATM   13  C   UNL     1      44.654 -10.356   9.789  1.00  0.00     0.263 C 
HETATM   14  C   UNL     1      43.906 -10.131  11.127  1.00  0.00     0.262 C 
HETATM   15  N   UNL     1      43.756  -8.657  11.483  1.00  0.00    -0.072 N 
HETATM   16  H   UNL     1      44.678  -8.296  11.768  1.00  0.00     0.279 HD
HETATM   17  C   UNL     1      42.869  -8.506  12.708  1.00  0.00     0.269 C 
HETATM   18  C   UNL     1      43.227  -7.789  10.348  1.00  0.00     0.262 C 
HETATM   19  C   UNL     1      43.954  -8.032   9.002  1.00  0.00     0.263 C 
ENDBRANCH  10  11
ENDBRANCH   7  10
ENDBRANCH   2   6
BRANCH   1  20
HETATM   20  C   UNL     1      42.786 -15.062   6.753  1.00  0.00     0.297 C 
HETATM   21  O   UNL     1      43.583 -14.782   7.646  1.00  0.00    -0.259 OA
BRANCH  20  22
HETATM   22  O   UNL     1      41.819 -16.009   6.837  1.00  0.00    -0.318 OA
BRANCH  22  23
HETATM   23  C   UNL     1      40.470 -15.602   6.561  1.00  0.00     0.174 C 
HETATM   24  C   UNL     1      39.888 -16.503   5.491  1.00  0.00     0.034 C 
ENDBRANCH  22  23
ENDBRANCH  20  22
ENDBRANCH   1  20
BRANCH   5  25
HETATM   25  C   UNL     1      43.194 -16.403   3.767  1.00  0.00    -0.024 A 
HETATM   26  C   UNL     1      44.034 -17.240   4.519  1.00  0.00     0.015 A 
HETATM   27  C   UNL     1      44.213 -18.575   4.153  1.00  0.00     0.037 A 
HETATM   28  C   UNL     1      43.542 -19.079   3.032  1.00  0.00     0.102 A 
HETATM   29  C   UNL     1      42.697 -18.253   2.276  1.00  0.00     0.037 A 
HETATM   30  C   UNL     1      42.529 -16.914   2.644  1.00  0.00     0.015 A 
BRANCH  28  31
HETATM   31  N   UNL     1      43.732 -20.482   2.641  1.00  0.00    -0.116 N 
HETATM   32  O   UNL     1      44.013 -21.291   3.535  1.00  0.00    -0.532 OA
HETATM   33  O   UNL     1      43.596 -20.764   1.443  1.00  0.00    -0.532 OA
ENDBRANCH  28  31
ENDBRANCH   5  25
TORSDOF 8
ENDMDL
MODEL 2
REMARK VINA RESULT:      -8.0      1.049      1.559
REMARK  8 active torsions:
REMARK  status: ('A' for Active; 'I' for Inactive)
REMARK    1  A    between atoms: C_2  and  O_3 
REMARK    2  A    between atoms: O_3  and  C_4 
REMARK    3  A    between atoms: C_4  and  C_5 
REMARK    4  A    between atoms: C_6  and  N_7 
REMARK       I    between atoms: N_7  and  C_8 
REMARK    5  A    between atoms: C_8  and  C_9 
REMARK    6  A    between atoms: C_9  and  N_10 
REMARK    7  A    between atoms: C_22  and  C_23 
REMARK    8  A    between atoms: C_26  and  N_27 
ROOT
HETATM    1  C   UNL     1      42.532 -14.295   4.897  1.00  0.00     0.085 A 
HETATM    2  C   UNL     1      42.573 -12.916   4.737  1.00  0.00     0.093 A 
HETATM    3  S   UNL     1      43.059 -12.432   3.183  1.00  0.00    -0.082 SA
HETATM    4  C   UNL     1      43.283 -14.043   2.688  1.00  0.00     0.065 A 
HETATM    5  C   UNL     1      42.982 -14.952   3.687  1.00  0.00    -0.000 A 
ENDROOT
BRANCH   2   6
HETATM    6  N   UNL     1      42.183 -11.949   5.660  1.00  0.00    -0.319 N 
HETATM    7  C   UNL     1      43.087 -11.197   6.374  1.00  0.00     0.248 C 
HETATM    8  O   UNL     1      44.297 -11.403   6.448  1.00  0.00    -0.271 OA
HETATM    9  H   UNL     1      41.239 -12.087   6.035  1.00  0.00     0.169 HD
BRANCH   7  10
HETATM   10  C   UNL     1      42.492 -10.005   7.114  1.00  0.00     0.337 C 
BRANCH  10  11
HETATM   11  N   UNL     1      43.433  -9.345   8.169  1.00  0.00    -0.060 N 
HETATM   12  H   UNL     1      44.359  -9.509   7.742  1.00  0.00     0.280 HD
HETATM   13  C   UNL     1      43.501 -10.057   9.515  1.00  0.00     0.263 C 
HETATM   14  C   UNL     1      42.504  -9.542  10.584  1.00  0.00     0.262 C 
HETATM   15  N   UNL     1      42.486  -8.023  10.695  1.00  0.00    -0.072 N 
HETATM   16  H   UNL     1      43.358  -7.719  11.152  1.00  0.00     0.279 HD
HETATM   17  C   UNL     1      41.370  -7.584  11.631  1.00  0.00     0.269 C 
HETATM   18  C   UNL     1      42.361  -7.297   9.361  1.00  0.00     0.262 C 
HETATM   19  C   UNL     1      43.337  -7.829   8.283  1.00  0.00     0.263 C 
ENDBRANCH  10  11
ENDBRANCH   7  10
ENDBRANCH   2   6
BRANCH   1  20
HETATM   20  C   UNL     1      42.135 -14.888   6.177  1.00  0.00     0.297 C 
HETATM   21  O   UNL     1      41.062 -15.474   6.298  1.00  0.00    -0.259 OA
BRANCH  20  22
HETATM   22  O   UNL     1      43.023 -14.670   7.178  1.00  0.00    -0.318 OA
BRANCH  22  23
HETATM   23  C   UNL     1      43.104 -15.659   8.217  1.00  0.00     0.174 C 
HETATM   24  C   UNL     1      43.977 -16.805   7.746  1.00  0.00     0.034 C 
ENDBRANCH  22  23
ENDBRANCH  20  22
ENDBRANCH   1  20
BRANCH   5  25
HETATM   25  C   UNL     1      43.130 -16.374   3.406  1.00  0.00    -0.024 A 
HETATM   26  C   UNL     1      43.945 -17.165   4.230  1.00  0.00     0.015 A 
HETATM   27  C   UNL     1      44.130 -18.521   3.949  1.00  0.00     0.037 A 
HETATM   28  C   UNL     1      43.492 -19.089   2.840  1.00  0.00     0.102 A 
HETATM   29  C   UNL     1      42.673 -18.307   2.012  1.00  0.00     0.037 A 
HETATM   30  C   UNL     1      42.498 -16.949   2.295  1.00  0.00     0.015 A 
BRANCH  28  31
HETATM   31  N   UNL     1      43.690 -20.512   2.537  1.00  0.00    -0.116 N 
HETATM   32  O   UNL     1      43.613 -20.860   1.351  1.00  0.00    -0.532 OA
HETATM   33  O   UNL     1      43.922 -21.271   3.488  1.00  0.00    -0.532 OA
ENDBRANCH  28  31
ENDBRANCH   5  25
TORSDOF 8
ENDMDL
MODEL 3
REMARK VINA RESULT:      -7.8      3.708      5.344
REMARK  8 active torsions:
REMARK  status: ('A' for Active; 'I' for Inactive)
REMARK    1  A    between atoms: C_2  and  O_3 
REMARK    2  A    between atoms: O_3  and  C_4 
REMARK    3  A    between atoms: C_4  and  C_5 
REMARK    4  A    between atoms: C_6  and  N_7 
REMARK       I    between atoms: N_7  and  C_8 
REMARK    5  A    between atoms: C_8  and  C_9 
REMARK    6  A    between atoms: C_9  and  N_10 
REMARK    7  A    between atoms: C_22  and  C_23 
REMARK    8  A    between atoms: C_26  and  N_27 
ROOT
HETATM    1  C   UNL     1      42.618 -14.341   4.362  1.00  0.00     0.085 A 
HETATM    2  C   UNL     1      42.618 -13.336   5.319  1.00  0.00     0.093 A 
HETATM    3  S   UNL     1      43.380 -13.787   6.770  1.00  0.00    -0.082 SA
HETATM    4  C   UNL     1      43.686 -15.355   6.189  1.00  0.00     0.065 A 
HETATM    5  C   UNL     1      43.227 -15.542   4.897  1.00  0.00    -0.000 A 
ENDROOT
BRANCH   2   6
HETATM    6  N   UNL     1      42.157 -12.031   5.170  1.00  0.00    -0.319 N 
HETATM    7  C   UNL     1      42.860 -11.071   4.479  1.00  0.00     0.248 C 
HETATM    8  O   UNL     1      44.023 -11.166   4.093  1.00  0.00    -0.271 OA
HETATM    9  H   UNL     1      41.487 -11.741   5.889  1.00  0.00     0.169 HD
BRANCH   7  10
HETATM   10  C   UNL     1      42.081  -9.796   4.176  1.00  0.00     0.337 C 
BRANCH  10  11
HETATM   11  N   UNL     1      40.857  -9.979   3.226  1.00  0.00    -0.060 N 
HETATM   12  H   UNL     1      40.274 -10.631   3.774  1.00  0.00     0.280 HD
HETATM   13  C   UNL     1      41.146 -10.722   1.928  1.00  0.00     0.263 C 
HETATM   14  C   UNL     1      41.516  -9.822   0.721  1.00  0.00     0.262 C 
HETATM   15  N   UNL     1      40.570  -8.640   0.552  1.00  0.00    -0.072 N 
HETATM   16  H   UNL     1      39.668  -8.992   0.200  1.00  0.00     0.279 HD
HETATM   17  C   UNL     1      41.089  -7.711  -0.535  1.00  0.00     0.269 C 
HETATM   18  C   UNL     1      40.315  -7.851   1.830  1.00  0.00     0.262 C 
HETATM   19  C   UNL     1      39.973  -8.751   3.045  1.00  0.00     0.263 C 
ENDBRANCH  10  11
ENDBRANCH   7  10
ENDBRANCH   2   6
BRANCH   1  20
HETATM   20  C   UNL     1      42.002 -14.125   3.050  1.00  0.00     0.297 C 
HETATM   21  O   UNL     1      42.686 -13.849   2.066  1.00  0.00    -0.259 OA
BRANCH  20  22
HETATM   22  O   UNL     1      40.648 -14.202   3.064  1.00  0.00    -0.318 OA
BRANCH  22  23
HETATM   23  C   UNL     1      39.981 -14.335   1.799  1.00  0.00     0.174 C 
HETATM   24  C   UNL     1      39.887 -15.804   1.438  1.00  0.00     0.034 C 
ENDBRANCH  22  23
ENDBRANCH  20  22
ENDBRANCH   1  20
BRANCH   5  25
HETATM   25  C   UNL     1      43.419 -16.843   4.270  1.00  0.00    -0.024 A 
HETATM   26  C   UNL     1      42.864 -17.094   3.005  1.00  0.00     0.015 A 
HETATM   27  C   UNL     1      43.004 -18.349   2.408  1.00  0.00     0.037 A 
HETATM   28  C   UNL     1      43.709 -19.356   3.078  1.00  0.00     0.102 A 
HETATM   29  C   UNL     1      44.271 -19.114   4.340  1.00  0.00     0.037 A 
HETATM   30  C   UNL     1      44.121 -17.857   4.935  1.00  0.00     0.015 A 
BRANCH  28  31
HETATM   31  N   UNL     1      43.853 -20.678   2.456  1.00  0.00    -0.116 N 
HETATM   32  O   UNL     1      44.169 -21.624   3.191  1.00  0.00    -0.532 OA
HETATM   33  O   UNL     1      43.648 -20.763   1.238  1.00  0.00    -0.532 OA
ENDBRANCH  28  31
ENDBRANCH   5  25
TORSDOF 8
ENDMDL
MODEL 4
REMARK VINA RESULT:      -7.8      3.650      5.264
REMARK  8 active torsions:
REMARK  status: ('A' for Active; 'I' for Inactive)
REMARK    1  A    between atoms: C_2  and  O_3 
REMARK    2  A    between atoms: O_3  and  C_4 
REMARK    3  A    between atoms: C_4  and  C_5 
REMARK    4  A    between atoms: C_6  and  N_7 
REMARK       I    between atoms: N_7  and  C_8 
REMARK    5  A    between atoms: C_8  and  C_9 
REMARK    6  A    between atoms: C_9  and  N_10 
REMARK    7  A    between atoms: C_22  and  C_23 
REMARK    8  A    between atoms: C_26  and  N_27 
ROOT
HETATM    1  C   UNL     1      42.579 -14.316   4.486  1.00  0.00     0.085 A 
HETATM    2  C   UNL     1      42.623 -13.290   5.420  1.00  0.00     0.093 A 
HETATM    3  S   UNL     1      43.501 -13.689   6.819  1.00  0.00    -0.082 SA
HETATM    4  C   UNL     1      43.806 -15.261   6.248  1.00  0.00     0.065 A 
HETATM    5  C   UNL     1      43.258 -15.489   4.998  1.00  0.00    -0.000 A 
ENDROOT
BRANCH   2   6
HETATM    6  N   UNL     1      42.117 -12.000   5.280  1.00  0.00    -0.319 N 
HETATM    7  C   UNL     1      42.755 -11.030   4.542  1.00  0.00     0.248 C 
HETATM    8  O   UNL     1      43.899 -11.097   4.098  1.00  0.00    -0.271 OA
HETATM    9  H   UNL     1      41.476 -11.720   6.029  1.00  0.00     0.169 HD
BRANCH   7  10
HETATM   10  C   UNL     1      41.924  -9.782   4.265  1.00  0.00     0.337 C 
BRANCH  10  11
HETATM   11  N   UNL     1      41.631  -9.505   2.758  1.00  0.00    -0.060 N 
HETATM   12  H   UNL     1      42.532  -9.108   2.447  1.00  0.00     0.280 HD
HETATM   13  C   UNL     1      40.613  -8.404   2.485  1.00  0.00     0.263 C 
HETATM   14  C   UNL     1      39.148  -8.883   2.332  1.00  0.00     0.262 C 
HETATM   15  N   UNL     1      39.011 -10.086   1.406  1.00  0.00    -0.072 N 
HETATM   16  H   UNL     1      39.163  -9.770   0.437  1.00  0.00     0.279 HD
HETATM   17  C   UNL     1      37.583 -10.606   1.438  1.00  0.00     0.269 C 
HETATM   18  C   UNL     1      39.984 -11.220   1.702  1.00  0.00     0.262 C 
HETATM   19  C   UNL     1      41.445 -10.739   1.884  1.00  0.00     0.263 C 
ENDBRANCH  10  11
ENDBRANCH   7  10
ENDBRANCH   2   6
BRANCH   1  20
HETATM   20  C   UNL     1      41.861 -14.144   3.220  1.00  0.00     0.297 C 
HETATM   21  O   UNL     1      42.451 -13.797   2.199  1.00  0.00    -0.259 OA
BRANCH  20  22
HETATM   22  O   UNL     1      40.524 -14.346   3.319  1.00  0.00    -0.318 OA
BRANCH  22  23
HETATM   23  C   UNL     1      40.031 -15.664   3.028  1.00  0.00     0.174 C 
HETATM   24  C   UNL     1      39.931 -15.837   1.526  1.00  0.00     0.034 C 
ENDBRANCH  22  23
ENDBRANCH  20  22
ENDBRANCH   1  20
BRANCH   5  25
HETATM   25  C   UNL     1      43.438 -16.797   4.384  1.00  0.00    -0.024 A 
HETATM   26  C   UNL     1      43.241 -16.951   3.003  1.00  0.00     0.015 A 
HETATM   27  C   UNL     1      43.369 -18.207   2.406  1.00  0.00     0.037 A 
HETATM   28  C   UNL     1      43.702 -19.315   3.195  1.00  0.00     0.102 A 
HETATM   29  C   UNL     1      43.905 -19.171   4.575  1.00  0.00     0.037 A 
HETATM   30  C   UNL     1      43.768 -17.912   5.167  1.00  0.00     0.015 A 
BRANCH  28  31
HETATM   31  N   UNL     1      43.832 -20.638   2.572  1.00  0.00    -0.116 N 
HETATM   32  O   UNL     1      44.161 -21.583   3.301  1.00  0.00    -0.532 OA
HETATM   33  O   UNL     1      43.603 -20.723   1.358  1.00  0.00    -0.532 OA
ENDBRANCH  28  31
ENDBRANCH   5  25
TORSDOF 8
ENDMDL
MODEL 5
REMARK VINA RESULT:      -7.6      2.871      3.718
REMARK  8 active torsions:
REMARK  status: ('A' for Active; 'I' for Inactive)
REMARK    1  A    between atoms: C_2  and  O_3 
REMARK    2  A    between atoms: O_3  and  C_4 
REMARK    3  A    between atoms: C_4  and  C_5 
REMARK    4  A    between atoms: C_6  and  N_7 
REMARK       I    between atoms: N_7  and  C_8 
REMARK    5  A    between atoms: C_8  and  C_9 
REMARK    6  A    between atoms: C_9  and  N_10 
REMARK    7  A    between atoms: C_22  and  C_23 
REMARK    8  A    between atoms: C_26  and  N_27 
ROOT
HETATM    1  C   UNL     1      42.581 -14.335   4.543  1.00  0.00     0.085 A 
HETATM    2  C   UNL     1      42.634 -13.333   5.502  1.00  0.00     0.093 A 
HETATM    3  S   UNL     1      43.520 -13.771   6.885  1.00  0.00    -0.082 SA
HETATM    4  C   UNL     1      43.815 -15.329   6.274  1.00  0.00     0.065 A 
HETATM    5  C   UNL     1      43.258 -15.523   5.022  1.00  0.00    -0.000 A 
ENDROOT
BRANCH   2   6
HETATM    6  N   UNL     1      42.133 -12.039   5.397  1.00  0.00    -0.319 N 
HETATM    7  C   UNL     1      42.834 -11.018   4.796  1.00  0.00     0.248 C 
HETATM    8  O   UNL     1      44.019 -11.051   4.471  1.00  0.00    -0.271 OA
HETATM    9  H   UNL     1      41.415 -11.812   6.092  1.00  0.00     0.169 HD
BRANCH   7  10
HETATM   10  C   UNL     1      42.025  -9.756   4.518  1.00  0.00     0.337 C 
BRANCH  10  11
HETATM   11  N   UNL     1      41.096  -9.297   5.685  1.00  0.00    -0.060 N 
HETATM   12  H   UNL     1      40.652 -10.190   5.951  1.00  0.00     0.280 HD
HETATM   13  C   UNL     1      39.935  -8.398   5.276  1.00  0.00     0.263 C 
HETATM   14  C   UNL     1      40.220  -6.877   5.356  1.00  0.00     0.262 C 
HETATM   15  N   UNL     1      40.881  -6.465   6.665  1.00  0.00    -0.072 N 
HETATM   16  H   UNL     1      40.179  -6.521   7.417  1.00  0.00     0.279 HD
HETATM   17  C   UNL     1      41.285  -5.001   6.605  1.00  0.00     0.269 C 
HETATM   18  C   UNL     1      42.080  -7.319   7.059  1.00  0.00     0.262 C 
HETATM   19  C   UNL     1      41.807  -8.840   6.953  1.00  0.00     0.263 C 
ENDBRANCH  10  11
ENDBRANCH   7  10
ENDBRANCH   2   6
BRANCH   1  20
HETATM   20  C   UNL     1      41.856 -14.130   3.286  1.00  0.00     0.297 C 
HETATM   21  O   UNL     1      42.373 -13.525   2.349  1.00  0.00    -0.259 OA
BRANCH  20  22
HETATM   22  O   UNL     1      40.589 -14.610   3.302  1.00  0.00    -0.318 OA
BRANCH  22  23
HETATM   23  C   UNL     1      39.842 -14.546   2.076  1.00  0.00     0.174 C 
HETATM   24  C   UNL     1      39.905 -15.892   1.384  1.00  0.00     0.034 C 
ENDBRANCH  22  23
ENDBRANCH  20  22
ENDBRANCH   1  20
BRANCH   5  25
HETATM   25  C   UNL     1      43.429 -16.817   4.375  1.00  0.00    -0.024 A 
HETATM   26  C   UNL     1      43.040 -16.982   3.036  1.00  0.00     0.015 A 
HETATM   27  C   UNL     1      43.159 -18.227   2.414  1.00  0.00     0.037 A 
HETATM   28  C   UNL     1      43.676 -19.311   3.134  1.00  0.00     0.102 A 
HETATM   29  C   UNL     1      44.072 -19.155   4.470  1.00  0.00     0.037 A 
HETATM   30  C   UNL     1      43.943 -17.908   5.089  1.00  0.00     0.015 A 
BRANCH  28  31
HETATM   31  N   UNL     1      43.798 -20.622   2.485  1.00  0.00    -0.116 N 
HETATM   32  O   UNL     1      43.549 -20.686   1.273  1.00  0.00    -0.532 OA
HETATM   33  O   UNL     1      44.143 -21.579   3.190  1.00  0.00    -0.532 OA
ENDBRANCH  28  31
ENDBRANCH   5  25
TORSDOF 8
ENDMDL
MODEL 6
REMARK VINA RESULT:      -7.4      3.607      5.002
REMARK  8 active torsions:
REMARK  status: ('A' for Active; 'I' for Inactive)
REMARK    1  A    between atoms: C_2  and  O_3 
REMARK    2  A    between atoms: O_3  and  C_4 
REMARK    3  A    between atoms: C_4  and  C_5 
REMARK    4  A    between atoms: C_6  and  N_7 
REMARK       I    between atoms: N_7  and  C_8 
REMARK    5  A    between atoms: C_8  and  C_9 
REMARK    6  A    between atoms: C_9  and  N_10 
REMARK    7  A    between atoms: C_22  and  C_23 
REMARK    8  A    between atoms: C_26  and  N_27 
ROOT
HETATM    1  C   UNL     1      42.290 -14.331   4.656  1.00  0.00     0.085 A 
HETATM    2  C   UNL     1      42.444 -13.259   5.525  1.00  0.00     0.093 A 
HETATM    3  S   UNL     1      43.697 -13.479   6.652  1.00  0.00    -0.082 SA
HETATM    4  C   UNL     1      44.041 -15.033   6.053  1.00  0.00     0.065 A 
HETATM    5  C   UNL     1      43.221 -15.388   4.996  1.00  0.00    -0.000 A 
ENDROOT
BRANCH   2   6
HETATM    6  N   UNL     1      41.760 -12.047   5.497  1.00  0.00    -0.319 N 
HETATM    7  C   UNL     1      42.197 -10.966   4.764  1.00  0.00     0.248 C 
HETATM    8  O   UNL     1      43.297 -10.856   4.227  1.00  0.00    -0.271 OA
HETATM    9  H   UNL     1      41.155 -11.890   6.308  1.00  0.00     0.169 HD
BRANCH   7  10
HETATM   10  C   UNL     1      41.187  -9.833   4.623  1.00  0.00     0.337 C 
BRANCH  10  11
HETATM   11  N   UNL     1      39.690 -10.271   4.683  1.00  0.00    -0.060 N 
HETATM   12  H   UNL     1      39.770 -11.195   5.137  1.00  0.00     0.280 HD
HETATM   13  C   UNL     1      39.042 -10.560   3.335  1.00  0.00     0.263 C 
HETATM   14  C   UNL     1      38.312  -9.359   2.683  1.00  0.00     0.262 C 
HETATM   15  N   UNL     1      37.399  -8.622   3.655  1.00  0.00    -0.072 N 
HETATM   16  H   UNL     1      36.574  -9.211   3.839  1.00  0.00     0.279 HD
HETATM   17  C   UNL     1      36.853  -7.362   3.002  1.00  0.00     0.269 C 
HETATM   18  C   UNL     1      38.050  -8.274   4.988  1.00  0.00     0.262 C 
HETATM   19  C   UNL     1      38.806  -9.466   5.628  1.00  0.00     0.263 C 
ENDBRANCH  10  11
ENDBRANCH   7  10
ENDBRANCH   2   6
BRANCH   1  20
HETATM   20  C   UNL     1      41.254 -14.311   3.620  1.00  0.00     0.297 C 
HETATM   21  O   UNL     1      40.210 -14.947   3.755  1.00  0.00    -0.259 OA
BRANCH  20  22
HETATM   22  O   UNL     1      41.593 -13.591   2.522  1.00  0.00    -0.318 OA
BRANCH  22  23
HETATM   23  C   UNL     1      40.605 -13.456   1.489  1.00  0.00     0.174 C 
HETATM   24  C   UNL     1      40.787 -14.570   0.478  1.00  0.00     0.034 C 
ENDBRANCH  22  23
ENDBRANCH  20  22
ENDBRANCH   1  20
BRANCH   5  25
HETATM   25  C   UNL     1      43.400 -16.697   4.383  1.00  0.00    -0.024 A 
HETATM   26  C   UNL     1      43.034 -16.894   3.042  1.00  0.00     0.015 A 
HETATM   27  C   UNL     1      43.161 -18.153   2.452  1.00  0.00     0.037 A 
HETATM   28  C   UNL     1      43.663 -19.221   3.206  1.00  0.00     0.102 A 
HETATM   29  C   UNL     1      44.035 -19.034   4.545  1.00  0.00     0.037 A 
HETATM   30  C   UNL     1      43.898 -17.772   5.132  1.00  0.00     0.015 A 
BRANCH  28  31
HETATM   31  N   UNL     1      43.792 -20.547   2.591  1.00  0.00    -0.116 N 
HETATM   32  O   UNL     1      43.596 -20.633   1.371  1.00  0.00    -0.532 OA
HETATM   33  O   UNL     1      44.090 -21.494   3.331  1.00  0.00    -0.532 OA
ENDBRANCH  28  31
ENDBRANCH   5  25
TORSDOF 8
ENDMDL
MODEL 7
REMARK VINA RESULT:      -7.4      3.005      3.874
REMARK  8 active torsions:
REMARK  status: ('A' for Active; 'I' for Inactive)
REMARK    1  A    between atoms: C_2  and  O_3 
REMARK    2  A    between atoms: O_3  and  C_4 
REMARK    3  A    between atoms: C_4  and  C_5 
REMARK    4  A    between atoms: C_6  and  N_7 
REMARK       I    between atoms: N_7  and  C_8 
REMARK    5  A    between atoms: C_8  and  C_9 
REMARK    6  A    between atoms: C_9  and  N_10 
REMARK    7  A    between atoms: C_22  and  C_23 
REMARK    8  A    between atoms: C_26  and  N_27 
ROOT
HETATM    1  C   UNL     1      41.664 -14.480   4.188  1.00  0.00     0.085 A 
HETATM    2  C   UNL     1      41.716 -13.334   4.969  1.00  0.00     0.093 A 
HETATM    3  S   UNL     1      43.020 -13.319   6.058  1.00  0.00    -0.082 SA
HETATM    4  C   UNL     1      43.527 -14.864   5.562  1.00  0.00     0.065 A 
HETATM    5  C   UNL     1      42.724 -15.393   4.567  1.00  0.00    -0.000 A 
ENDROOT
BRANCH   2   6
HETATM    6  N   UNL     1      40.893 -12.215   4.879  1.00  0.00    -0.319 N 
HETATM    7  C   UNL     1      39.799 -12.031   5.693  1.00  0.00     0.248 C 
HETATM    8  O   UNL     1      39.300 -12.877   6.433  1.00  0.00    -0.271 OA
HETATM    9  H   UNL     1      40.923 -11.747   3.968  1.00  0.00     0.169 HD
BRANCH   7  10
HETATM   10  C   UNL     1      39.191 -10.634   5.650  1.00  0.00     0.337 C 
BRANCH  10  11
HETATM   11  N   UNL     1      40.147  -9.483   6.091  1.00  0.00    -0.060 N 
HETATM   12  H   UNL     1      40.900  -9.569   5.390  1.00  0.00     0.280 HD
HETATM   13  C   UNL     1      40.844  -9.694   7.430  1.00  0.00     0.263 C 
HETATM   14  C   UNL     1      40.110  -9.094   8.656  1.00  0.00     0.262 C 
HETATM   15  N   UNL     1      39.644  -7.662   8.427  1.00  0.00    -0.072 N 
HETATM   16  H   UNL     1      40.470  -7.045   8.436  1.00  0.00     0.279 HD
HETATM   17  C   UNL     1      38.788  -7.201   9.596  1.00  0.00     0.269 C 
HETATM   18  C   UNL     1      38.895  -7.447   7.118  1.00  0.00     0.262 C 
HETATM   19  C   UNL     1      39.613  -8.070   5.894  1.00  0.00     0.263 C 
ENDBRANCH  10  11
ENDBRANCH   7  10
ENDBRANCH   2   6
BRANCH   1  20
HETATM   20  C   UNL     1      40.602 -14.661   3.194  1.00  0.00     0.297 C 
HETATM   21  O   UNL     1      39.860 -15.641   3.232  1.00  0.00    -0.259 OA
BRANCH  20  22
HETATM   22  O   UNL     1      40.575 -13.697   2.242  1.00  0.00    -0.318 OA
BRANCH  22  23
HETATM   23  C   UNL     1      41.301 -13.947   1.028  1.00  0.00     0.174 C 
HETATM   24  C   UNL     1      40.356 -14.526  -0.006  1.00  0.00     0.034 C 
ENDBRANCH  22  23
ENDBRANCH  20  22
ENDBRANCH   1  20
BRANCH   5  25
HETATM   25  C   UNL     1      43.038 -16.716   4.045  1.00  0.00    -0.024 A 
HETATM   26  C   UNL     1      42.746 -17.024   2.707  1.00  0.00     0.015 A 
HETATM   27  C   UNL     1      43.003 -18.300   2.203  1.00  0.00     0.037 A 
HETATM   28  C   UNL     1      43.562 -19.273   3.040  1.00  0.00     0.102 A 
HETATM   29  C   UNL     1      43.861 -18.975   4.378  1.00  0.00     0.037 A 
HETATM   30  C   UNL     1      43.594 -17.696   4.878  1.00  0.00     0.015 A 
BRANCH  28  31
HETATM   31  N   UNL     1      43.828 -20.618   2.516  1.00  0.00    -0.116 N 
HETATM   32  O   UNL     1      43.742 -20.781   1.291  1.00  0.00    -0.532 OA
HETATM   33  O   UNL     1      44.124 -21.502   3.331  1.00  0.00    -0.532 OA
ENDBRANCH  28  31
ENDBRANCH   5  25
TORSDOF 8
ENDMDL
MODEL 8
REMARK VINA RESULT:      -7.3      1.798      2.334
REMARK  8 active torsions:
REMARK  status: ('A' for Active; 'I' for Inactive)
REMARK    1  A    between atoms: C_2  and  O_3 
REMARK    2  A    between atoms: O_3  and  C_4 
REMARK    3  A    between atoms: C_4  and  C_5 
REMARK    4  A    between atoms: C_6  and  N_7 
REMARK       I    between atoms: N_7  and  C_8 
REMARK    5  A    between atoms: C_8  and  C_9 
REMARK    6  A    between atoms: C_9  and  N_10 
REMARK    7  A    between atoms: C_22  and  C_23 
REMARK    8  A    between atoms: C_26  and  N_27 
ROOT
HETATM    1  C   UNL     1      42.772 -13.847   4.337  1.00  0.00     0.085 A 
HETATM    2  C   UNL     1      42.462 -12.628   3.751  1.00  0.00     0.093 A 
HETATM    3  S   UNL     1      42.150 -12.740   2.085  1.00  0.00    -0.082 SA
HETATM    4  C   UNL     1      42.471 -14.409   2.078  1.00  0.00     0.065 A 
HETATM    5  C   UNL     1      42.803 -14.891   3.332  1.00  0.00    -0.000 A 
ENDROOT
BRANCH   2   6
HETATM    6  N   UNL     1      42.301 -11.402   4.392  1.00  0.00    -0.319 N 
HETATM    7  C   UNL     1      41.102 -11.000   4.934  1.00  0.00     0.248 C 
HETATM    8  O   UNL     1      40.013 -11.543   4.758  1.00  0.00    -0.271 OA
HETATM    9  H   UNL     1      42.989 -10.694   4.117  1.00  0.00     0.169 HD
BRANCH   7  10
HETATM   10  C   UNL     1      41.181  -9.773   5.836  1.00  0.00     0.337 C 
BRANCH  10  11
HETATM   11  N   UNL     1      41.489 -10.074   7.335  1.00  0.00    -0.060 N 
HETATM   12  H   UNL     1      41.195 -11.062   7.406  1.00  0.00     0.280 HD
HETATM   13  C   UNL     1      40.608  -9.341   8.340  1.00  0.00     0.263 C 
HETATM   14  C   UNL     1      41.172  -7.990   8.848  1.00  0.00     0.262 C 
HETATM   15  N   UNL     1      42.635  -8.078   9.266  1.00  0.00    -0.072 N 
HETATM   16  H   UNL     1      42.690  -8.601  10.152  1.00  0.00     0.279 HD
HETATM   17  C   UNL     1      43.167  -6.690   9.586  1.00  0.00     0.269 C 
HETATM   18  C   UNL     1      43.539  -8.758   8.246  1.00  0.00     0.262 C 
HETATM   19  C   UNL     1      42.964 -10.095   7.715  1.00  0.00     0.263 C 
ENDBRANCH  10  11
ENDBRANCH   7  10
ENDBRANCH   2   6
BRANCH   1  20
HETATM   20  C   UNL     1      43.071 -13.935   5.769  1.00  0.00     0.297 C 
HETATM   21  O   UNL     1      43.998 -13.296   6.263  1.00  0.00    -0.259 OA
BRANCH  20  22
HETATM   22  O   UNL     1      42.280 -14.809   6.439  1.00  0.00    -0.318 OA
BRANCH  22  23
HETATM   23  C   UNL     1      40.861 -14.597   6.379  1.00  0.00     0.174 C 
HETATM   24  C   UNL     1      40.158 -15.939   6.372  1.00  0.00     0.034 C 
ENDBRANCH  22  23
ENDBRANCH  20  22
ENDBRANCH   1  20
BRANCH   5  25
HETATM   25  C   UNL     1      43.107 -16.308   3.478  1.00  0.00    -0.024 A 
HETATM   26  C   UNL     1      43.847 -16.751   4.586  1.00  0.00     0.015 A 
HETATM   27  C   UNL     1      44.181 -18.101   4.718  1.00  0.00     0.037 A 
HETATM   28  C   UNL     1      43.769 -19.013   3.739  1.00  0.00     0.102 A 
HETATM   29  C   UNL     1      43.027 -18.581   2.630  1.00  0.00     0.037 A 
HETATM   30  C   UNL     1      42.701 -17.227   2.501  1.00  0.00     0.015 A 
BRANCH  28  31
HETATM   31  N   UNL     1      44.124 -20.431   3.872  1.00  0.00    -0.116 N 
HETATM   32  O   UNL     1      43.955 -21.158   2.883  1.00  0.00    -0.532 OA
HETATM   33  O   UNL     1      44.572 -20.809   4.962  1.00  0.00    -0.532 OA
ENDBRANCH  28  31
ENDBRANCH   5  25
TORSDOF 8
ENDMDL
MODEL 9
REMARK VINA RESULT:      -7.2      5.588      8.326
REMARK  8 active torsions:
REMARK  status: ('A' for Active; 'I' for Inactive)
REMARK    1  A    between atoms: C_2  and  O_3 
REMARK    2  A    between atoms: O_3  and  C_4 
REMARK    3  A    between atoms: C_4  and  C_5 
REMARK    4  A    between atoms: C_6  and  N_7 
REMARK       I    between atoms: N_7  and  C_8 
REMARK    5  A    between atoms: C_8  and  C_9 
REMARK    6  A    between atoms: C_9  and  N_10 
REMARK    7  A    between atoms: C_22  and  C_23 
REMARK    8  A    between atoms: C_26  and  N_27 
ROOT
HETATM    1  C   UNL     1      41.351 -14.014   1.913  1.00  0.00     0.085 A 
HETATM    2  C   UNL     1      41.250 -12.635   2.032  1.00  0.00     0.093 A 
HETATM    3  S   UNL     1      42.402 -11.964   3.086  1.00  0.00    -0.082 SA
HETATM    4  C   UNL     1      43.039 -13.495   3.459  1.00  0.00     0.065 A 
HETATM    5  C   UNL     1      42.394 -14.517   2.784  1.00  0.00    -0.000 A 
ENDROOT
BRANCH   2   6
HETATM    6  N   UNL     1      40.394 -11.789   1.332  1.00  0.00    -0.319 N 
HETATM    7  C   UNL     1      40.853 -10.780   0.516  1.00  0.00     0.248 C 
HETATM    8  O   UNL     1      42.011 -10.372   0.455  1.00  0.00    -0.271 OA
HETATM    9  H   UNL     1      39.454 -11.720   1.734  1.00  0.00     0.169 HD
BRANCH   7  10
HETATM   10  C   UNL     1      39.797 -10.148  -0.384  1.00  0.00     0.337 C 
BRANCH  10  11
HETATM   11  N   UNL     1      39.323 -11.039  -1.573  1.00  0.00    -0.060 N 
HETATM   12  H   UNL     1      39.726 -11.954  -1.312  1.00  0.00     0.280 HD
HETATM   13  C   UNL     1      39.955 -10.714  -2.921  1.00  0.00     0.263 C 
HETATM   14  C   UNL     1      39.158  -9.714  -3.798  1.00  0.00     0.262 C 
HETATM   15  N   UNL     1      37.675 -10.050  -3.882  1.00  0.00    -0.072 N 
HETATM   16  H   UNL     1      37.563 -10.885  -4.476  1.00  0.00     0.279 HD
HETATM   17  C   UNL     1      36.931  -8.940  -4.608  1.00  0.00     0.269 C 
HETATM   18  C   UNL     1      37.015 -10.323  -2.536  1.00  0.00     0.262 C 
HETATM   19  C   UNL     1      37.824 -11.300  -1.646  1.00  0.00     0.263 C 
ENDBRANCH  10  11
ENDBRANCH   7  10
ENDBRANCH   2   6
BRANCH   1  20
HETATM   20  C   UNL     1      40.434 -14.760   1.046  1.00  0.00     0.297 C 
HETATM   21  O   UNL     1      39.687 -15.621   1.505  1.00  0.00    -0.259 OA
BRANCH  20  22
HETATM   22  O   UNL     1      40.546 -14.443  -0.268  1.00  0.00    -0.318 OA
BRANCH  22  23
HETATM   23  C   UNL     1      39.435 -14.760  -1.122  1.00  0.00     0.174 C 
HETATM   24  C   UNL     1      39.783 -14.388  -2.549  1.00  0.00     0.034 C 
ENDBRANCH  22  23
ENDBRANCH  20  22
ENDBRANCH   1  20
BRANCH   5  25
HETATM   25  C   UNL     1      42.834 -15.888   3.008  1.00  0.00    -0.024 A 
HETATM   26  C   UNL     1      42.918 -16.777   1.925  1.00  0.00     0.015 A 
HETATM   27  C   UNL     1      43.298 -18.106   2.130  1.00  0.00     0.037 A 
HETATM   28  C   UNL     1      43.600 -18.545   3.425  1.00  0.00     0.102 A 
HETATM   29  C   UNL     1      43.523 -17.663   4.512  1.00  0.00     0.037 A 
HETATM   30  C   UNL     1      43.135 -16.336   4.301  1.00  0.00     0.015 A 
BRANCH  28  31
HETATM   31  N   UNL     1      43.994 -19.942   3.645  1.00  0.00    -0.116 N 
HETATM   32  O   UNL     1      44.483 -20.231   4.745  1.00  0.00    -0.532 OA
HETATM   33  O   UNL     1      43.810 -20.741   2.717  1.00  0.00    -0.532 OA
ENDBRANCH  28  31
ENDBRANCH   5  25
TORSDOF 8
ENDMDL
MODEL 10
REMARK VINA RESULT:      -7.1      3.118      3.651
REMARK  8 active torsions:
REMARK  status: ('A' for Active; 'I' for Inactive)
REMARK    1  A    between atoms: C_2  and  O_3 
REMARK    2  A    between atoms: O_3  and  C_4 
REMARK    3  A    between atoms: C_4  and  C_5 
REMARK    4  A    between atoms: C_6  and  N_7 
REMARK       I    between atoms: N_7  and  C_8 
REMARK    5  A    between atoms: C_8  and  C_9 
REMARK    6  A    between atoms: C_9  and  N_10 
REMARK    7  A    between atoms: C_22  and  C_23 
REMARK    8  A    between atoms: C_26  and  N_27 
ROOT
HETATM    1  C   UNL     1      42.343 -14.096   4.123  1.00  0.00     0.085 A 
HETATM    2  C   UNL     1      42.013 -12.916   3.471  1.00  0.00     0.093 A 
HETATM    3  S   UNL     1      42.037 -13.053   1.777  1.00  0.00    -0.082 SA
HETATM    4  C   UNL     1      42.541 -14.675   1.858  1.00  0.00     0.065 A 
HETATM    5  C   UNL     1      42.683 -15.123   3.159  1.00  0.00    -0.000 A 
ENDROOT
BRANCH   2   6
HETATM    6  N   UNL     1      41.596 -11.721   4.051  1.00  0.00    -0.319 N 
HETATM    7  C   UNL     1      42.473 -10.722   4.404  1.00  0.00     0.248 C 
HETATM    8  O   UNL     1      43.698 -10.819   4.447  1.00  0.00    -0.271 OA
HETATM    9  H   UNL     1      40.688 -11.781   4.523  1.00  0.00     0.169 HD
BRANCH   7  10
HETATM   10  C   UNL     1      41.824  -9.388   4.754  1.00  0.00     0.337 C 
BRANCH  10  11
HETATM   11  N   UNL     1      40.298  -9.458   5.069  1.00  0.00    -0.060 N 
HETATM   12  H   UNL     1      40.057 -10.387   4.687  1.00  0.00     0.280 HD
HETATM   13  C   UNL     1      39.426  -8.484   4.285  1.00  0.00     0.263 C 
HETATM   14  C   UNL     1      39.162  -7.127   4.985  1.00  0.00     0.262 C 
HETATM   15  N   UNL     1      38.747  -7.282   6.443  1.00  0.00    -0.072 N 
HETATM   16  H   UNL     1      37.785  -7.650   6.471  1.00  0.00     0.279 HD
HETATM   17  C   UNL     1      38.673  -5.918   7.111  1.00  0.00     0.269 C 
HETATM   18  C   UNL     1      39.643  -8.209   7.255  1.00  0.00     0.262 C 
HETATM   19  C   UNL     1      39.932  -9.555   6.545  1.00  0.00     0.263 C 
ENDBRANCH  10  11
ENDBRANCH   7  10
ENDBRANCH   2   6
BRANCH   1  20
HETATM   20  C   UNL     1      42.374 -14.158   5.588  1.00  0.00     0.297 C 
HETATM   21  O   UNL     1      43.435 -14.072   6.203  1.00  0.00    -0.259 OA
BRANCH  20  22
HETATM   22  O   UNL     1      41.159 -14.370   6.150  1.00  0.00    -0.318 OA
BRANCH  22  23
HETATM   23  C   UNL     1      40.889 -15.684   6.664  1.00  0.00     0.174 C 
HETATM   24  C   UNL     1      40.126 -16.477   5.622  1.00  0.00     0.034 C 
ENDBRANCH  22  23
ENDBRANCH  20  22
ENDBRANCH   1  20
BRANCH   5  25
HETATM   25  C   UNL     1      43.113 -16.497   3.382  1.00  0.00    -0.024 A 
HETATM   26  C   UNL     1      42.865 -17.471   2.402  1.00  0.00     0.015 A 
HETATM   27  C   UNL     1      43.234 -18.800   2.618  1.00  0.00     0.037 A 
HETATM   28  C   UNL     1      43.860 -19.156   3.819  1.00  0.00     0.102 A 
HETATM   29  C   UNL     1      44.115 -18.190   4.803  1.00  0.00     0.037 A 
HETATM   30  C   UNL     1      43.737 -16.861   4.583  1.00  0.00     0.015 A 
BRANCH  28  31
HETATM   31  N   UNL     1      44.244 -20.554   4.052  1.00  0.00    -0.116 N 
HETATM   32  O   UNL     1      44.776 -20.827   5.137  1.00  0.00    -0.532 OA
HETATM   33  O   UNL     1      44.009 -21.369   3.151  1.00  0.00    -0.532 OA
ENDBRANCH  28  31
ENDBRANCH   5  25
TORSDOF 8
ENDMDL
