MODEL 1
REMARK VINA RESULT:      -8.5      0.000      0.000
REMARK  5 active torsions:
REMARK  status: ('A' for Active; 'I' for Inactive)
REMARK    1  A    between atoms: C_2  and  N_3 
REMARK    2  A    between atoms: C_6  and  N_7 
REMARK       I    between atoms: N_7  and  C_8 
REMARK       I    between atoms: C_8  and  N_9 
REMARK    3  A    between atoms: N_9  and  C_10 
REMARK    4  A    between atoms: C_10  and  C_11 
REMARK    5  A    between atoms: C_12  and  C_13 
ROOT
HETATM    1  N   UNL     1      40.043 -15.243   2.450  1.00  0.00    -0.306 N 
HETATM    2  C   UNL     1      40.924 -15.682   3.384  1.00  0.00     0.321 C 
HETATM    3  N   UNL     1      42.257 -15.550   3.136  1.00  0.00    -0.339 N 
HETATM    4  O   UNL     1      40.483 -16.196   4.411  1.00  0.00    -0.247 OA
HETATM    5  H   UNL     1      39.088 -15.466   2.698  1.00  0.00     0.171 HD
HETATM    6  H   UNL     1      42.509 -15.633   2.162  1.00  0.00     0.164 HD
ENDROOT
BRANCH   3   7
HETATM    7  C   UNL     1      43.215 -16.107   4.071  1.00  0.00     0.163 C 
BRANCH   7   8
HETATM    8  C   UNL     1      43.410 -17.608   3.959  1.00  0.00    -0.022 A 
HETATM    9  C   UNL     1      43.573 -18.396   5.131  1.00  0.00     0.056 A 
HETATM   10  C   UNL     1      43.819 -19.779   5.012  1.00  0.00     0.020 A 
HETATM   11  C   UNL     1      43.905 -20.383   3.760  1.00  0.00     0.043 A 
HETATM   12  C   UNL     1      43.752 -19.609   2.620  1.00  0.00     0.117 A 
HETATM   13  F   UNL     1      43.847 -20.185   1.415  1.00  0.00    -0.206 F 
HETATM   14  C   UNL     1      43.514 -18.240   2.707  1.00  0.00     0.052 A 
BRANCH   9  15
HETATM   15  C   UNL     1      43.526 -17.777   6.517  1.00  0.00     0.418 C 
HETATM   16  F   UNL     1      44.600 -16.980   6.772  1.00  0.00    -0.166 F 
HETATM   17  F   UNL     1      42.431 -16.995   6.729  1.00  0.00    -0.166 F 
HETATM   18  F   UNL     1      43.509 -18.715   7.503  1.00  0.00    -0.166 F 
ENDBRANCH   9  15
ENDBRANCH   7   8
ENDBRANCH   3   7
BRANCH   1  19
HETATM   19  C   UNL     1      40.215 -14.515   1.291  1.00  0.00     0.072 A 
HETATM   20  C   UNL     1      40.654 -13.205   1.015  1.00  0.00     0.169 A 
HETATM   21  N   UNL     1      40.673 -12.933  -0.295  1.00  0.00    -0.183 NA
HETATM   22  N   UNL     1      40.212 -14.064  -0.863  1.00  0.00    -0.275 N 
HETATM   23  C   UNL     1      39.908 -15.033   0.053  1.00  0.00     0.143 A 
BRANCH  22  24
HETATM   24  C   UNL     1      40.076 -14.142  -2.314  1.00  0.00     0.101 C 
HETATM   25  C   UNL     1      40.111 -12.751  -2.947  1.00  0.00     0.034 C 
HETATM   26  C   UNL     1      38.818 -14.907  -2.727  1.00  0.00     0.034 C 
ENDBRANCH  22  24
ENDBRANCH   1  19
TORSDOF 5
ENDMDL
MODEL 2
REMARK VINA RESULT:      -7.9      4.927      7.299
REMARK  5 active torsions:
REMARK  status: ('A' for Active; 'I' for Inactive)
REMARK    1  A    between atoms: C_2  and  N_3 
REMARK    2  A    between atoms: C_6  and  N_7 
REMARK       I    between atoms: N_7  and  C_8 
REMARK       I    between atoms: C_8  and  N_9 
REMARK    3  A    between atoms: N_9  and  C_10 
REMARK    4  A    between atoms: C_10  and  C_11 
REMARK    5  A    between atoms: C_12  and  C_13 
ROOT
HETATM    1  N   UNL     1      43.661 -11.430   4.849  1.00  0.00    -0.306 N 
HETATM    2  C   UNL     1      42.877 -12.401   4.314  1.00  0.00     0.321 C 
HETATM    3  N   UNL     1      42.659 -13.534   5.037  1.00  0.00    -0.339 N 
HETATM    4  O   UNL     1      42.410 -12.224   3.190  1.00  0.00    -0.247 OA
HETATM    5  H   UNL     1      43.824 -10.675   4.195  1.00  0.00     0.171 HD
HETATM    6  H   UNL     1      43.434 -13.810   5.621  1.00  0.00     0.164 HD
ENDROOT
BRANCH   3   7
HETATM    7  C   UNL     1      41.914 -14.627   4.443  1.00  0.00     0.163 C 
BRANCH   7   8
HETATM    8  C   UNL     1      42.656 -15.951   4.403  1.00  0.00    -0.022 A 
HETATM    9  C   UNL     1      43.162 -16.448   3.171  1.00  0.00     0.056 A 
HETATM   10  C   UNL     1      43.791 -17.710   3.136  1.00  0.00     0.020 A 
HETATM   11  C   UNL     1      43.921 -18.475   4.293  1.00  0.00     0.043 A 
HETATM   12  C   UNL     1      43.419 -17.988   5.489  1.00  0.00     0.117 A 
HETATM   13  F   UNL     1      43.531 -18.728   6.600  1.00  0.00    -0.206 F 
HETATM   14  C   UNL     1      42.788 -16.749   5.554  1.00  0.00     0.052 A 
BRANCH   9  15
HETATM   15  C   UNL     1      43.011 -15.669   1.877  1.00  0.00     0.418 C 
HETATM   16  F   UNL     1      43.327 -16.410   0.779  1.00  0.00    -0.166 F 
HETATM   17  F   UNL     1      41.746 -15.214   1.659  1.00  0.00    -0.166 F 
HETATM   18  F   UNL     1      43.813 -14.571   1.837  1.00  0.00    -0.166 F 
ENDBRANCH   9  15
ENDBRANCH   7   8
ENDBRANCH   3   7
BRANCH   1  19
HETATM   19  C   UNL     1      44.202 -11.272   6.107  1.00  0.00     0.072 A 
HETATM   20  C   UNL     1      45.474 -11.518   6.663  1.00  0.00     0.169 A 
HETATM   21  N   UNL     1      45.542 -11.189   7.958  1.00  0.00    -0.183 NA
HETATM   22  N   UNL     1      44.298 -10.760   8.246  1.00  0.00    -0.275 N 
HETATM   23  C   UNL     1      43.457 -10.810   7.169  1.00  0.00     0.143 A 
BRANCH  22  24
HETATM   24  C   UNL     1      43.979 -10.319   9.600  1.00  0.00     0.101 C 
HETATM   25  C   UNL     1      42.849  -9.290   9.593  1.00  0.00     0.034 C 
HETATM   26  C   UNL     1      45.212  -9.783  10.329  1.00  0.00     0.034 C 
ENDBRANCH  22  24
ENDBRANCH   1  19
TORSDOF 5
ENDMDL
MODEL 3
REMARK VINA RESULT:      -7.9      4.694      6.952
REMARK  5 active torsions:
REMARK  status: ('A' for Active; 'I' for Inactive)
REMARK    1  A    between atoms: C_2  and  N_3 
REMARK    2  A    between atoms: C_6  and  N_7 
REMARK       I    between atoms: N_7  and  C_8 
REMARK       I    between atoms: C_8  and  N_9 
REMARK    3  A    between atoms: N_9  and  C_10 
REMARK    4  A    between atoms: C_10  and  C_11 
REMARK    5  A    between atoms: C_12  and  C_13 
ROOT
HETATM    1  N   UNL     1      41.732 -12.259   6.211  1.00  0.00    -0.306 N 
HETATM    2  C   UNL     1      41.195 -13.486   5.995  1.00  0.00     0.321 C 
HETATM    3  N   UNL     1      42.015 -14.573   6.038  1.00  0.00    -0.339 N 
HETATM    4  O   UNL     1      39.992 -13.566   5.752  1.00  0.00    -0.247 OA
HETATM    5  H   UNL     1      41.054 -11.521   6.072  1.00  0.00     0.171 HD
HETATM    6  H   UNL     1      42.956 -14.397   5.717  1.00  0.00     0.164 HD
ENDROOT
BRANCH   3   7
HETATM    7  C   UNL     1      41.484 -15.880   5.706  1.00  0.00     0.163 C 
BRANCH   7   8
HETATM    8  C   UNL     1      42.317 -16.668   4.710  1.00  0.00    -0.022 A 
HETATM    9  C   UNL     1      41.995 -16.634   3.326  1.00  0.00     0.056 A 
HETATM   10  C   UNL     1      42.735 -17.422   2.419  1.00  0.00     0.020 A 
HETATM   11  C   UNL     1      43.776 -18.232   2.864  1.00  0.00     0.043 A 
HETATM   12  C   UNL     1      44.081 -18.266   4.216  1.00  0.00     0.117 A 
HETATM   13  F   UNL     1      45.074 -19.055   4.647  1.00  0.00    -0.206 F 
HETATM   14  C   UNL     1      43.365 -17.505   5.135  1.00  0.00     0.052 A 
BRANCH   9  15
HETATM   15  C   UNL     1      40.844 -15.797   2.798  1.00  0.00     0.418 C 
HETATM   16  F   UNL     1      39.689 -15.995   3.491  1.00  0.00    -0.166 F 
HETATM   17  F   UNL     1      41.076 -14.455   2.851  1.00  0.00    -0.166 F 
HETATM   18  F   UNL     1      40.557 -16.072   1.497  1.00  0.00    -0.166 F 
ENDBRANCH   9  15
ENDBRANCH   7   8
ENDBRANCH   3   7
BRANCH   1  19
HETATM   19  C   UNL     1      42.984 -11.862   6.634  1.00  0.00     0.072 A 
HETATM   20  C   UNL     1      44.285 -12.372   6.452  1.00  0.00     0.169 A 
HETATM   21  N   UNL     1      45.219 -11.625   7.051  1.00  0.00    -0.183 NA
HETATM   22  N   UNL     1      44.512 -10.647   7.650  1.00  0.00    -0.275 N 
HETATM   23  C   UNL     1      43.166 -10.761   7.440  1.00  0.00     0.143 A 
BRANCH  22  24
HETATM   24  C   UNL     1      45.205  -9.626   8.429  1.00  0.00     0.101 C 
HETATM   25  C   UNL     1      46.617  -9.388   7.896  1.00  0.00     0.034 C 
HETATM   26  C   UNL     1      45.226  -9.966   9.921  1.00  0.00     0.034 C 
ENDBRANCH  22  24
ENDBRANCH   1  19
TORSDOF 5
ENDMDL
MODEL 4
REMARK VINA RESULT:      -7.8      1.482      1.877
REMARK  5 active torsions:
REMARK  status: ('A' for Active; 'I' for Inactive)
REMARK    1  A    between atoms: C_2  and  N_3 
REMARK    2  A    between atoms: C_6  and  N_7 
REMARK       I    between atoms: N_7  and  C_8 
REMARK       I    between atoms: C_8  and  N_9 
REMARK    3  A    between atoms: N_9  and  C_10 
REMARK    4  A    between atoms: C_10  and  C_11 
REMARK    5  A    between atoms: C_12  and  C_13 
ROOT
HETATM    1  N   UNL     1      41.730 -13.038   1.466  1.00  0.00    -0.306 N 
HETATM    2  C   UNL     1      42.499 -13.532   2.470  1.00  0.00     0.321 C 
HETATM    3  N   UNL     1      42.371 -14.846   2.801  1.00  0.00    -0.339 N 
HETATM    4  O   UNL     1      43.268 -12.767   3.051  1.00  0.00    -0.247 OA
HETATM    5  H   UNL     1      41.844 -12.038   1.362  1.00  0.00     0.171 HD
HETATM    6  H   UNL     1      41.440 -15.217   2.683  1.00  0.00     0.164 HD
ENDROOT
BRANCH   3   7
HETATM    7  C   UNL     1      43.103 -15.369   3.938  1.00  0.00     0.163 C 
BRANCH   7   8
HETATM    8  C   UNL     1      43.346 -16.867   3.900  1.00  0.00    -0.022 A 
HETATM    9  C   UNL     1      43.734 -17.557   5.081  1.00  0.00     0.056 A 
HETATM   10  C   UNL     1      44.021 -18.937   5.019  1.00  0.00     0.020 A 
HETATM   11  C   UNL     1      43.930 -19.631   3.814  1.00  0.00     0.043 A 
HETATM   12  C   UNL     1      43.558 -18.951   2.665  1.00  0.00     0.117 A 
HETATM   13  F   UNL     1      43.483 -19.614   1.504  1.00  0.00    -0.206 F 
HETATM   14  C   UNL     1      43.274 -17.589   2.695  1.00  0.00     0.052 A 
BRANCH   9  15
HETATM   15  C   UNL     1      43.885 -16.838   6.409  1.00  0.00     0.418 C 
HETATM   16  F   UNL     1      42.851 -15.989   6.666  1.00  0.00    -0.166 F 
HETATM   17  F   UNL     1      43.944 -17.677   7.481  1.00  0.00    -0.166 F 
HETATM   18  F   UNL     1      45.016 -16.084   6.465  1.00  0.00    -0.166 F 
ENDBRANCH   9  15
ENDBRANCH   7   8
ENDBRANCH   3   7
BRANCH   1  19
HETATM   19  C   UNL     1      40.898 -13.653   0.555  1.00  0.00     0.072 A 
HETATM   20  C   UNL     1      40.260 -14.908   0.505  1.00  0.00     0.169 A 
HETATM   21  N   UNL     1      39.517 -15.065  -0.597  1.00  0.00    -0.183 NA
HETATM   22  N   UNL     1      39.705 -13.917  -1.276  1.00  0.00    -0.275 N 
HETATM   23  C   UNL     1      40.540 -13.049  -0.630  1.00  0.00     0.143 A 
BRANCH  22  24
HETATM   24  C   UNL     1      39.049 -13.723  -2.565  1.00  0.00     0.101 C 
HETATM   25  C   UNL     1      37.971 -12.643  -2.478  1.00  0.00     0.034 C 
HETATM   26  C   UNL     1      38.479 -15.031  -3.116  1.00  0.00     0.034 C 
ENDBRANCH  22  24
ENDBRANCH   1  19
TORSDOF 5
ENDMDL
MODEL 5
REMARK VINA RESULT:      -7.5      4.858      6.924
REMARK  5 active torsions:
REMARK  status: ('A' for Active; 'I' for Inactive)
REMARK    1  A    between atoms: C_2  and  N_3 
REMARK    2  A    between atoms: C_6  and  N_7 
REMARK       I    between atoms: N_7  and  C_8 
REMARK       I    between atoms: C_8  and  N_9 
REMARK    3  A    between atoms: N_9  and  C_10 
REMARK    4  A    between atoms: C_10  and  C_11 
REMARK    5  A    between atoms: C_12  and  C_13 
ROOT
HETATM    1  N   UNL     1      43.257 -11.399   5.105  1.00  0.00    -0.306 N 
HETATM    2  C   UNL     1      42.410 -12.380   4.701  1.00  0.00     0.321 C 
HETATM    3  N   UNL     1      42.206 -13.444   5.525  1.00  0.00    -0.339 N 
HETATM    4  O   UNL     1      41.875 -12.276   3.598  1.00  0.00    -0.247 OA
HETATM    5  H   UNL     1      43.399 -10.704   4.383  1.00  0.00     0.171 HD
HETATM    6  H   UNL     1      43.009 -13.701   6.080  1.00  0.00     0.164 HD
ENDROOT
BRANCH   3   7
HETATM    7  C   UNL     1      41.390 -14.553   5.069  1.00  0.00     0.163 C 
BRANCH   7   8
HETATM    8  C   UNL     1      42.158 -15.655   4.362  1.00  0.00    -0.022 A 
HETATM    9  C   UNL     1      42.790 -16.681   5.116  1.00  0.00     0.056 A 
HETATM   10  C   UNL     1      43.555 -17.663   4.452  1.00  0.00     0.020 A 
HETATM   11  C   UNL     1      43.701 -17.637   3.067  1.00  0.00     0.043 A 
HETATM   12  C   UNL     1      43.088 -16.630   2.338  1.00  0.00     0.117 A 
HETATM   13  F   UNL     1      43.238 -16.596   1.007  1.00  0.00    -0.206 F 
HETATM   14  C   UNL     1      42.332 -15.645   2.966  1.00  0.00     0.052 A 
BRANCH   9  15
HETATM   15  C   UNL     1      42.693 -16.730   6.630  1.00  0.00     0.418 C 
HETATM   16  F   UNL     1      43.511 -15.827   7.237  1.00  0.00    -0.166 F 
HETATM   17  F   UNL     1      41.442 -16.469   7.105  1.00  0.00    -0.166 F 
HETATM   18  F   UNL     1      43.034 -17.947   7.133  1.00  0.00    -0.166 F 
ENDBRANCH   9  15
ENDBRANCH   7   8
ENDBRANCH   3   7
BRANCH   1  19
HETATM   19  C   UNL     1      43.885 -11.162   6.310  1.00  0.00     0.072 A 
HETATM   20  C   UNL     1      45.037 -11.682   6.931  1.00  0.00     0.169 A 
HETATM   21  N   UNL     1      45.274 -11.127   8.125  1.00  0.00    -0.183 NA
HETATM   22  N   UNL     1      44.250 -10.268   8.287  1.00  0.00    -0.275 N 
HETATM   23  C   UNL     1      43.383 -10.270   7.230  1.00  0.00     0.143 A 
BRANCH  22  24
HETATM   24  C   UNL     1      44.160  -9.471   9.507  1.00  0.00     0.101 C 
HETATM   25  C   UNL     1      44.029  -7.983   9.185  1.00  0.00     0.034 C 
HETATM   26  C   UNL     1      45.338  -9.734  10.446  1.00  0.00     0.034 C 
ENDBRANCH  22  24
ENDBRANCH   1  19
TORSDOF 5
ENDMDL
MODEL 6
REMARK VINA RESULT:      -7.3      3.885      5.374
REMARK  5 active torsions:
REMARK  status: ('A' for Active; 'I' for Inactive)
REMARK    1  A    between atoms: C_2  and  N_3 
REMARK    2  A    between atoms: C_6  and  N_7 
REMARK       I    between atoms: N_7  and  C_8 
REMARK       I    between atoms: C_8  and  N_9 
REMARK    3  A    between atoms: N_9  and  C_10 
REMARK    4  A    between atoms: C_10  and  C_11 
REMARK    5  A    between atoms: C_12  and  C_13 
ROOT
HETATM    1  N   UNL     1      43.268 -13.502   7.469  1.00  0.00    -0.306 N 
HETATM    2  C   UNL     1      42.899 -14.797   7.298  1.00  0.00     0.321 C 
HETATM    3  N   UNL     1      42.419 -15.182   6.083  1.00  0.00    -0.339 N 
HETATM    4  O   UNL     1      42.999 -15.567   8.252  1.00  0.00    -0.247 OA
HETATM    5  H   UNL     1      43.527 -13.309   8.428  1.00  0.00     0.171 HD
HETATM    6  H   UNL     1      41.901 -14.466   5.595  1.00  0.00     0.164 HD
ENDROOT
BRANCH   3   7
HETATM    7  C   UNL     1      41.922 -16.532   5.908  1.00  0.00     0.163 C 
BRANCH   7   8
HETATM    8  C   UNL     1      42.689 -17.364   4.896  1.00  0.00    -0.022 A 
HETATM    9  C   UNL     1      42.412 -17.232   3.508  1.00  0.00     0.056 A 
HETATM   10  C   UNL     1      43.085 -18.057   2.582  1.00  0.00     0.020 A 
HETATM   11  C   UNL     1      44.016 -19.000   3.012  1.00  0.00     0.043 A 
HETATM   12  C   UNL     1      44.276 -19.129   4.367  1.00  0.00     0.117 A 
HETATM   13  F   UNL     1      45.161 -20.044   4.783  1.00  0.00    -0.206 F 
HETATM   14  C   UNL     1      43.624 -18.333   5.304  1.00  0.00     0.052 A 
BRANCH   9  15
HETATM   15  C   UNL     1      41.379 -16.246   2.993  1.00  0.00     0.418 C 
HETATM   16  F   UNL     1      41.806 -14.955   3.061  1.00  0.00    -0.166 F 
HETATM   17  F   UNL     1      41.032 -16.449   1.691  1.00  0.00    -0.166 F 
HETATM   18  F   UNL     1      40.217 -16.297   3.700  1.00  0.00    -0.166 F 
ENDBRANCH   9  15
ENDBRANCH   7   8
ENDBRANCH   3   7
BRANCH   1  19
HETATM   19  C   UNL     1      43.404 -12.457   6.580  1.00  0.00     0.072 A 
HETATM   20  C   UNL     1      44.510 -11.796   6.009  1.00  0.00     0.169 A 
HETATM   21  N   UNL     1      44.150 -10.824   5.165  1.00  0.00    -0.183 NA
HETATM   22  N   UNL     1      42.804 -10.836   5.217  1.00  0.00    -0.275 N 
HETATM   23  C   UNL     1      42.315 -11.789   6.068  1.00  0.00     0.143 A 
BRANCH  22  24
HETATM   24  C   UNL     1      42.039  -9.883   4.420  1.00  0.00     0.101 C 
HETATM   25  C   UNL     1      41.424  -8.795   5.300  1.00  0.00     0.034 C 
HETATM   26  C   UNL     1      40.973 -10.578   3.572  1.00  0.00     0.034 C 
ENDBRANCH  22  24
ENDBRANCH   1  19
TORSDOF 5
ENDMDL
MODEL 7
REMARK VINA RESULT:      -7.2      2.805      3.426
REMARK  5 active torsions:
REMARK  status: ('A' for Active; 'I' for Inactive)
REMARK    1  A    between atoms: C_2  and  N_3 
REMARK    2  A    between atoms: C_6  and  N_7 
REMARK       I    between atoms: N_7  and  C_8 
REMARK       I    between atoms: C_8  and  N_9 
REMARK    3  A    between atoms: N_9  and  C_10 
REMARK    4  A    between atoms: C_10  and  C_11 
REMARK    5  A    between atoms: C_12  and  C_13 
ROOT
HETATM    1  N   UNL     1      39.371 -13.044   5.228  1.00  0.00    -0.306 N 
HETATM    2  C   UNL     1      40.370 -13.839   5.690  1.00  0.00     0.321 C 
HETATM    3  N   UNL     1      41.607 -13.721   5.133  1.00  0.00    -0.339 N 
HETATM    4  O   UNL     1      40.112 -14.647   6.581  1.00  0.00    -0.247 OA
HETATM    5  H   UNL     1      38.481 -13.274   5.650  1.00  0.00     0.171 HD
HETATM    6  H   UNL     1      41.601 -13.477   4.154  1.00  0.00     0.164 HD
ENDROOT
BRANCH   3   7
HETATM    7  C   UNL     1      42.660 -14.632   5.536  1.00  0.00     0.163 C 
BRANCH   7   8
HETATM    8  C   UNL     1      42.940 -15.752   4.550  1.00  0.00    -0.022 A 
HETATM    9  C   UNL     1      43.277 -17.050   5.022  1.00  0.00     0.056 A 
HETATM   10  C   UNL     1      43.599 -18.066   4.098  1.00  0.00     0.020 A 
HETATM   11  C   UNL     1      43.591 -17.812   2.728  1.00  0.00     0.043 A 
HETATM   12  C   UNL     1      43.269 -16.543   2.274  1.00  0.00     0.117 A 
HETATM   13  F   UNL     1      43.274 -16.293   0.958  1.00  0.00    -0.206 F 
HETATM   14  C   UNL     1      42.952 -15.519   3.163  1.00  0.00     0.052 A 
BRANCH   9  15
HETATM   15  C   UNL     1      43.337 -17.366   6.506  1.00  0.00     0.418 C 
HETATM   16  F   UNL     1      42.252 -16.901   7.185  1.00  0.00    -0.166 F 
HETATM   17  F   UNL     1      43.395 -18.700   6.778  1.00  0.00    -0.166 F 
HETATM   18  F   UNL     1      44.425 -16.816   7.110  1.00  0.00    -0.166 F 
ENDBRANCH   9  15
ENDBRANCH   7   8
ENDBRANCH   3   7
BRANCH   1  19
HETATM   19  C   UNL     1      39.373 -11.973   4.360  1.00  0.00     0.072 A 
HETATM   20  C   UNL     1      39.588 -10.589   4.515  1.00  0.00     0.169 A 
HETATM   21  N   UNL     1      39.503  -9.922   3.358  1.00  0.00    -0.183 NA
HETATM   22  N   UNL     1      39.200 -10.877   2.459  1.00  0.00    -0.275 N 
HETATM   23  C   UNL     1      39.095 -12.120   3.020  1.00  0.00     0.143 A 
BRANCH  22  24
HETATM   24  C   UNL     1      39.012 -10.519   1.057  1.00  0.00     0.101 C 
HETATM   25  C   UNL     1      38.058 -11.490   0.362  1.00  0.00     0.034 C 
HETATM   26  C   UNL     1      40.343 -10.421   0.311  1.00  0.00     0.034 C 
ENDBRANCH  22  24
ENDBRANCH   1  19
TORSDOF 5
ENDMDL
MODEL 8
REMARK VINA RESULT:      -7.1     13.827     16.437
REMARK  5 active torsions:
REMARK  status: ('A' for Active; 'I' for Inactive)
REMARK    1  A    between atoms: C_2  and  N_3 
REMARK    2  A    between atoms: C_6  and  N_7 
REMARK       I    between atoms: N_7  and  C_8 
REMARK       I    between atoms: C_8  and  N_9 
REMARK    3  A    between atoms: N_9  and  C_10 
REMARK    4  A    between atoms: C_10  and  C_11 
REMARK    5  A    between atoms: C_12  and  C_13 
ROOT
HETATM    1  N   UNL     1      48.658 -28.919   1.548  1.00  0.00    -0.306 N 
HETATM    2  C   UNL     1      47.339 -28.674   1.339  1.00  0.00     0.321 C 
HETATM    3  N   UNL     1      46.647 -29.503   0.509  1.00  0.00    -0.339 N 
HETATM    4  O   UNL     1      46.826 -27.705   1.896  1.00  0.00    -0.247 OA
HETATM    5  H   UNL     1      49.090 -28.197   2.111  1.00  0.00     0.171 HD
HETATM    6  H   UNL     1      47.192 -29.879  -0.253  1.00  0.00     0.164 HD
ENDROOT
BRANCH   3   7
HETATM    7  C   UNL     1      45.266 -29.199   0.188  1.00  0.00     0.163 C 
BRANCH   7   8
HETATM    8  C   UNL     1      44.951 -29.178  -1.297  1.00  0.00    -0.022 A 
HETATM    9  C   UNL     1      44.386 -30.324  -1.922  1.00  0.00     0.056 A 
HETATM   10  C   UNL     1      44.158 -30.316  -3.314  1.00  0.00     0.020 A 
HETATM   11  C   UNL     1      44.482 -29.200  -4.083  1.00  0.00     0.043 A 
HETATM   12  C   UNL     1      45.039 -28.090  -3.469  1.00  0.00     0.117 A 
HETATM   13  F   UNL     1      45.362 -27.021  -4.209  1.00  0.00    -0.206 F 
HETATM   14  C   UNL     1      45.280 -28.071  -2.098  1.00  0.00     0.052 A 
BRANCH   9  15
HETATM   15  C   UNL     1      44.052 -31.577  -1.133  1.00  0.00     0.418 C 
HETATM   16  F   UNL     1      43.457 -32.534  -1.897  1.00  0.00    -0.166 F 
HETATM   17  F   UNL     1      45.141 -32.178  -0.577  1.00  0.00    -0.166 F 
HETATM   18  F   UNL     1      43.198 -31.329  -0.103  1.00  0.00    -0.166 F 
ENDBRANCH   9  15
ENDBRANCH   7   8
ENDBRANCH   3   7
BRANCH   1  19
HETATM   19  C   UNL     1      49.467 -29.976   1.190  1.00  0.00     0.072 A 
HETATM   20  C   UNL     1      49.979 -31.093   1.881  1.00  0.00     0.169 A 
HETATM   21  N   UNL     1      50.727 -31.882   1.101  1.00  0.00    -0.183 NA
HETATM   22  N   UNL     1      50.725 -31.252  -0.089  1.00  0.00    -0.275 N 
HETATM   23  C   UNL     1      49.996 -30.095  -0.075  1.00  0.00     0.143 A 
BRANCH  22  24
HETATM   24  C   UNL     1      51.464 -31.820  -1.211  1.00  0.00     0.101 C 
HETATM   25  C   UNL     1      52.698 -32.583  -0.730  1.00  0.00     0.034 C 
HETATM   26  C   UNL     1      51.839 -30.755  -2.243  1.00  0.00     0.034 C 
ENDBRANCH  22  24
ENDBRANCH   1  19
TORSDOF 5
ENDMDL
MODEL 9
REMARK VINA RESULT:      -6.8     13.893     16.818
REMARK  5 active torsions:
REMARK  status: ('A' for Active; 'I' for Inactive)
REMARK    1  A    between atoms: C_2  and  N_3 
REMARK    2  A    between atoms: C_6  and  N_7 
REMARK       I    between atoms: N_7  and  C_8 
REMARK       I    between atoms: C_8  and  N_9 
REMARK    3  A    between atoms: N_9  and  C_10 
REMARK    4  A    between atoms: C_10  and  C_11 
REMARK    5  A    between atoms: C_12  and  C_13 
ROOT
HETATM    1  N   UNL     1      48.828 -29.084   0.515  1.00  0.00    -0.306 N 
HETATM    2  C   UNL     1      47.482 -29.015   0.356  1.00  0.00     0.321 C 
HETATM    3  N   UNL     1      46.834 -30.086  -0.180  1.00  0.00    -0.339 N 
HETATM    4  O   UNL     1      46.904 -27.981   0.688  1.00  0.00    -0.247 OA
HETATM    5  H   UNL     1      49.215 -28.207   0.841  1.00  0.00     0.171 HD
HETATM    6  H   UNL     1      47.372 -30.599  -0.862  1.00  0.00     0.164 HD
ENDROOT
BRANCH   3   7
HETATM    7  C   UNL     1      45.413 -29.994  -0.457  1.00  0.00     0.163 C 
BRANCH   7   8
HETATM    8  C   UNL     1      45.014 -30.413  -1.860  1.00  0.00    -0.022 A 
HETATM    9  C   UNL     1      44.983 -29.455  -2.909  1.00  0.00     0.056 A 
HETATM   10  C   UNL     1      44.547 -29.842  -4.194  1.00  0.00     0.020 A 
HETATM   11  C   UNL     1      44.144 -31.152  -4.445  1.00  0.00     0.043 A 
HETATM   12  C   UNL     1      44.169 -32.080  -3.416  1.00  0.00     0.117 A 
HETATM   13  F   UNL     1      43.769 -33.336  -3.653  1.00  0.00    -0.206 F 
HETATM   14  C   UNL     1      44.589 -31.725  -2.137  1.00  0.00     0.052 A 
BRANCH   9  15
HETATM   15  C   UNL     1      45.376 -28.007  -2.676  1.00  0.00     0.418 C 
HETATM   16  F   UNL     1      44.773 -27.471  -1.579  1.00  0.00    -0.166 F 
HETATM   17  F   UNL     1      46.713 -27.829  -2.481  1.00  0.00    -0.166 F 
HETATM   18  F   UNL     1      45.042 -27.204  -3.722  1.00  0.00    -0.166 F 
ENDBRANCH   9  15
ENDBRANCH   7   8
ENDBRANCH   3   7
BRANCH   1  19
HETATM   19  C   UNL     1      49.721 -30.126   0.374  1.00  0.00     0.072 A 
HETATM   20  C   UNL     1      50.239 -31.096   1.256  1.00  0.00     0.169 A 
HETATM   21  N   UNL     1      51.088 -31.937   0.655  1.00  0.00    -0.183 NA
HETATM   22  N   UNL     1      51.142 -31.486  -0.613  1.00  0.00    -0.275 N 
HETATM   23  C   UNL     1      50.351 -30.390  -0.821  1.00  0.00     0.143 A 
BRANCH  22  24
HETATM   24  C   UNL     1      51.997 -32.159  -1.586  1.00  0.00     0.101 C 
HETATM   25  C   UNL     1      53.237 -32.749  -0.915  1.00  0.00     0.034 C 
HETATM   26  C   UNL     1      52.380 -31.234  -2.742  1.00  0.00     0.034 C 
ENDBRANCH  22  24
ENDBRANCH   1  19
TORSDOF 5
ENDMDL
MODEL 10
REMARK VINA RESULT:      -6.8      9.044     11.480
REMARK  5 active torsions:
REMARK  status: ('A' for Active; 'I' for Inactive)
REMARK    1  A    between atoms: C_2  and  N_3 
REMARK    2  A    between atoms: C_6  and  N_7 
REMARK       I    between atoms: N_7  and  C_8 
REMARK       I    between atoms: C_8  and  N_9 
REMARK    3  A    between atoms: N_9  and  C_10 
REMARK    4  A    between atoms: C_10  and  C_11 
REMARK    5  A    between atoms: C_12  and  C_13 
ROOT
HETATM    1  N   UNL     1      39.125  -9.213  10.211  1.00  0.00    -0.306 N 
HETATM    2  C   UNL     1      39.633  -9.472   8.979  1.00  0.00     0.321 C 
HETATM    3  N   UNL     1      40.978  -9.641   8.852  1.00  0.00    -0.339 N 
HETATM    4  O   UNL     1      38.859  -9.526   8.025  1.00  0.00    -0.247 OA
HETATM    5  H   UNL     1      38.132  -9.021  10.176  1.00  0.00     0.171 HD
HETATM    6  H   UNL     1      41.529  -9.090   9.492  1.00  0.00     0.164 HD
ENDROOT
BRANCH   3   7
HETATM    7  C   UNL     1      41.553  -9.813   7.531  1.00  0.00     0.163 C 
BRANCH   7   8
HETATM    8  C   UNL     1      43.048 -10.077   7.522  1.00  0.00    -0.022 A 
HETATM    9  C   UNL     1      43.593 -11.063   6.654  1.00  0.00     0.056 A 
HETATM   10  C   UNL     1      44.974 -11.345   6.701  1.00  0.00     0.020 A 
HETATM   11  C   UNL     1      45.810 -10.669   7.588  1.00  0.00     0.043 A 
HETATM   12  C   UNL     1      45.272  -9.714   8.435  1.00  0.00     0.117 A 
HETATM   13  F   UNL     1      46.072  -9.074   9.298  1.00  0.00    -0.206 F 
HETATM   14  C   UNL     1      43.912  -9.419   8.416  1.00  0.00     0.052 A 
BRANCH   9  15
HETATM   15  C   UNL     1      42.717 -11.852   5.698  1.00  0.00     0.418 C 
HETATM   16  F   UNL     1      41.780 -12.601   6.343  1.00  0.00    -0.166 F 
HETATM   17  F   UNL     1      42.022 -11.071   4.824  1.00  0.00    -0.166 F 
HETATM   18  F   UNL     1      43.434 -12.719   4.934  1.00  0.00    -0.166 F 
ENDBRANCH   9  15
ENDBRANCH   7   8
ENDBRANCH   3   7
BRANCH   1  19
HETATM   19  C   UNL     1      39.698  -9.227  11.465  1.00  0.00     0.072 A 
HETATM   20  C   UNL     1      39.805 -10.199  12.480  1.00  0.00     0.169 A 
HETATM   21  N   UNL     1      40.479  -9.757  13.547  1.00  0.00    -0.183 NA
HETATM   22  N   UNL     1      40.780  -8.483  13.231  1.00  0.00    -0.275 N 
HETATM   23  C   UNL     1      40.314  -8.118  11.999  1.00  0.00     0.143 A 
BRANCH  22  24
HETATM   24  C   UNL     1      41.518  -7.656  14.180  1.00  0.00     0.101 C 
HETATM   25  C   UNL     1      42.996  -7.567  13.801  1.00  0.00     0.034 C 
HETATM   26  C   UNL     1      41.344  -8.147  15.618  1.00  0.00     0.034 C 
ENDBRANCH  22  24
ENDBRANCH   1  19
TORSDOF 5
ENDMDL
