MODEL 1
REMARK VINA RESULT:      -8.0      0.000      0.000
REMARK  5 active torsions:
REMARK  status: ('A' for Active; 'I' for Inactive)
REMARK    1  A    between atoms: C_4  and  C_5 
REMARK    2  A    between atoms: C_10  and  C_11 
REMARK       I    between atoms: C_11  and  N_12 
REMARK    3  A    between atoms: N_12  and  C_13 
REMARK    4  A    between atoms: C_13  and  C_14 
REMARK    5  A    between atoms: C_22  and  C_23 
ROOT
HETATM    1  C   UNL     1      40.759 -14.465   4.911  1.00  0.00     0.118 C 
HETATM    2  N   UNL     1      39.909 -13.750   3.963  1.00  0.00    -0.365 N 
HETATM    3  C   UNL     1      40.034 -13.921   2.625  1.00  0.00     0.141 A 
HETATM    4  N   UNL     1      40.799 -14.926   2.103  1.00  0.00    -0.238 N 
HETATM    5  N   UNL     1      40.785 -14.988   0.761  1.00  0.00    -0.163 NA
HETATM    6  C   UNL     1      40.017 -13.930   0.393  1.00  0.00     0.165 A 
HETATM    7  C   UNL     1      39.524 -13.255   1.539  1.00  0.00     0.092 A 
HETATM    8 BR   UNL     1      38.418 -11.745   1.581  1.00  0.00    -0.044 Br
HETATM    9  C   UNL     1      41.545 -15.885   2.896  1.00  0.00     0.221 C 
HETATM   10  C   UNL     1      41.063 -15.872   4.360  1.00  0.00     0.066 C 
HETATM   11  H   UNL     1      39.452 -12.915   4.332  1.00  0.00     0.162 HD
ENDROOT
BRANCH   6  12
HETATM   12  C   UNL     1      39.823 -13.608  -1.031  1.00  0.00     0.273 C 
HETATM   13  N   UNL     1      40.962 -13.112  -1.625  1.00  0.00    -0.353 N 
HETATM   14  H   UNL     1      41.753 -12.957  -1.003  1.00  0.00     0.162 HD
HETATM   15  O   UNL     1      38.756 -13.729  -1.625  1.00  0.00    -0.266 OA
BRANCH  13  16
HETATM   16  C   UNL     1      40.993 -12.524  -2.948  1.00  0.00     0.155 C 
BRANCH  16  17
HETATM   17  C   UNL     1      40.895 -10.990  -2.934  1.00  0.00     0.139 C 
HETATM   18  O   UNL     1      41.283 -10.498  -1.634  1.00  0.00    -0.384 OA
HETATM   19  C   UNL     1      40.218  -9.693  -1.111  1.00  0.00     0.168 C 
HETATM   20  C   UNL     1      38.970 -10.066  -1.875  1.00  0.00     0.029 C 
HETATM   21  C   UNL     1      39.514 -10.421  -3.234  1.00  0.00     0.035 C 
ENDBRANCH  16  17
ENDBRANCH  13  16
ENDBRANCH   6  12
BRANCH   9  22
HETATM   22  C   UNL     1      43.033 -15.655   2.735  1.00  0.00     0.409 C 
HETATM   23  F   UNL     1      43.366 -14.372   2.509  1.00  0.00    -0.169 F 
HETATM   24  F   UNL     1      43.690 -16.050   3.857  1.00  0.00    -0.169 F 
HETATM   25  F   UNL     1      43.548 -16.389   1.721  1.00  0.00    -0.169 F 
ENDBRANCH   9  22
BRANCH   1  26
HETATM   26  C   UNL     1      41.975 -13.666   5.350  1.00  0.00    -0.035 A 
HETATM   27  C   UNL     1      42.295 -12.405   4.818  1.00  0.00     0.009 A 
HETATM   28  C   UNL     1      43.420 -11.702   5.255  1.00  0.00     0.001 A 
HETATM   29  C   UNL     1      44.241 -12.240   6.240  1.00  0.00     0.000 A 
HETATM   30  C   UNL     1      43.936 -13.478   6.794  1.00  0.00     0.001 A 
HETATM   31  C   UNL     1      42.811 -14.183   6.357  1.00  0.00     0.009 A 
ENDBRANCH   1  26
TORSDOF 5
ENDMDL
MODEL 2
REMARK VINA RESULT:      -7.7      1.691      2.674
REMARK  5 active torsions:
REMARK  status: ('A' for Active; 'I' for Inactive)
REMARK    1  A    between atoms: C_4  and  C_5 
REMARK    2  A    between atoms: C_10  and  C_11 
REMARK       I    between atoms: C_11  and  N_12 
REMARK    3  A    between atoms: N_12  and  C_13 
REMARK    4  A    between atoms: C_13  and  C_14 
REMARK    5  A    between atoms: C_22  and  C_23 
ROOT
HETATM    1  C   UNL     1      40.832 -15.855   4.555  1.00  0.00     0.118 C 
HETATM    2  N   UNL     1      40.352 -14.486   4.388  1.00  0.00    -0.365 N 
HETATM    3  C   UNL     1      40.609 -13.773   3.264  1.00  0.00     0.141 A 
HETATM    4  N   UNL     1      41.131 -14.366   2.148  1.00  0.00    -0.238 N 
HETATM    5  N   UNL     1      41.287 -13.533   1.105  1.00  0.00    -0.163 NA
HETATM    6  C   UNL     1      40.900 -12.325   1.590  1.00  0.00     0.165 A 
HETATM    7  C   UNL     1      40.458 -12.451   2.933  1.00  0.00     0.092 A 
HETATM    8 BR   UNL     1      39.817 -11.092   4.050  1.00  0.00    -0.044 Br
HETATM    9  C   UNL     1      41.466 -15.774   2.048  1.00  0.00     0.221 C 
HETATM   10  C   UNL     1      40.809 -16.572   3.191  1.00  0.00     0.066 C 
HETATM   11  H   UNL     1      40.097 -14.005   5.251  1.00  0.00     0.162 HD
ENDROOT
BRANCH   6  12
HETATM   12  C   UNL     1      41.002 -11.118   0.754  1.00  0.00     0.273 C 
HETATM   13  N   UNL     1      39.885 -10.913  -0.025  1.00  0.00    -0.353 N 
HETATM   14  H   UNL     1      39.180 -11.646   0.012  1.00  0.00     0.162 HD
HETATM   15  O   UNL     1      41.987 -10.387   0.718  1.00  0.00    -0.266 OA
BRANCH  13  16
HETATM   16  C   UNL     1      39.808  -9.928  -1.084  1.00  0.00     0.155 C 
BRANCH  16  17
HETATM   17  C   UNL     1      39.605 -10.547  -2.477  1.00  0.00     0.139 C 
HETATM   18  O   UNL     1      38.925 -11.813  -2.343  1.00  0.00    -0.384 OA
HETATM   19  C   UNL     1      39.717 -12.829  -2.973  1.00  0.00     0.168 C 
HETATM   20  C   UNL     1      41.121 -12.283  -3.089  1.00  0.00     0.029 C 
HETATM   21  C   UNL     1      40.881 -10.806  -3.268  1.00  0.00     0.035 C 
ENDBRANCH  16  17
ENDBRANCH  13  16
ENDBRANCH   6  12
BRANCH   9  22
HETATM   22  C   UNL     1      42.967 -15.952   1.957  1.00  0.00     0.409 C 
HETATM   23  F   UNL     1      43.418 -17.087   2.519  1.00  0.00    -0.169 F 
HETATM   24  F   UNL     1      43.357 -15.964   0.656  1.00  0.00    -0.169 F 
HETATM   25  F   UNL     1      43.631 -14.925   2.538  1.00  0.00    -0.169 F 
ENDBRANCH   9  22
BRANCH   1  26
HETATM   26  C   UNL     1      42.149 -15.943   5.310  1.00  0.00    -0.035 A 
HETATM   27  C   UNL     1      42.836 -14.812   5.783  1.00  0.00     0.009 A 
HETATM   28  C   UNL     1      44.041 -14.939   6.478  1.00  0.00     0.001 A 
HETATM   29  C   UNL     1      44.577 -16.199   6.723  1.00  0.00     0.000 A 
HETATM   30  C   UNL     1      43.906 -17.334   6.279  1.00  0.00     0.001 A 
HETATM   31  C   UNL     1      42.701 -17.207   5.583  1.00  0.00     0.009 A 
ENDBRANCH   1  26
TORSDOF 5
ENDMDL
MODEL 3
REMARK VINA RESULT:      -7.5      2.777      4.511
REMARK  5 active torsions:
REMARK  status: ('A' for Active; 'I' for Inactive)
REMARK    1  A    between atoms: C_4  and  C_5 
REMARK    2  A    between atoms: C_10  and  C_11 
REMARK       I    between atoms: C_11  and  N_12 
REMARK    3  A    between atoms: N_12  and  C_13 
REMARK    4  A    between atoms: C_13  and  C_14 
REMARK    5  A    between atoms: C_22  and  C_23 
ROOT
HETATM    1  C   UNL     1      43.621 -14.886   5.583  1.00  0.00     0.118 C 
HETATM    2  N   UNL     1      43.307 -13.716   4.767  1.00  0.00    -0.365 N 
HETATM    3  C   UNL     1      42.034 -13.281   4.607  1.00  0.00     0.141 A 
HETATM    4  N   UNL     1      41.012 -13.770   5.373  1.00  0.00    -0.238 N 
HETATM    5  N   UNL     1      39.819 -13.205   5.122  1.00  0.00    -0.163 NA
HETATM    6  C   UNL     1      40.070 -12.347   4.101  1.00  0.00     0.165 A 
HETATM    7  C   UNL     1      41.450 -12.365   3.770  1.00  0.00     0.092 A 
HETATM    8 BR   UNL     1      42.314 -11.364   2.444  1.00  0.00    -0.044 Br
HETATM    9  C   UNL     1      41.169 -14.782   6.400  1.00  0.00     0.221 C 
HETATM   10  C   UNL     1      42.653 -14.946   6.780  1.00  0.00     0.066 C 
HETATM   11  H   UNL     1      44.027 -13.446   4.097  1.00  0.00     0.162 HD
ENDROOT
BRANCH   6  12
HETATM   12  C   UNL     1      38.975 -11.583   3.481  1.00  0.00     0.273 C 
HETATM   13  N   UNL     1      38.509 -12.163   2.322  1.00  0.00    -0.353 N 
HETATM   14  H   UNL     1      39.020 -12.982   2.002  1.00  0.00     0.162 HD
HETATM   15  O   UNL     1      38.542 -10.522   3.920  1.00  0.00    -0.266 OA
BRANCH  13  16
HETATM   16  C   UNL     1      37.589 -11.518   1.409  1.00  0.00     0.155 C 
BRANCH  16  17
HETATM   17  C   UNL     1      38.180 -11.294   0.007  1.00  0.00     0.139 C 
HETATM   18  O   UNL     1      37.247 -11.771  -0.986  1.00  0.00    -0.384 OA
HETATM   19  C   UNL     1      37.913 -12.730  -1.818  1.00  0.00     0.168 C 
HETATM   20  C   UNL     1      39.126 -13.207  -1.055  1.00  0.00     0.029 C 
HETATM   21  C   UNL     1      39.510 -11.987  -0.259  1.00  0.00     0.035 C 
ENDBRANCH  16  17
ENDBRANCH  13  16
ENDBRANCH   6  12
BRANCH   9  22
HETATM   22  C   UNL     1      40.497 -16.071   5.974  1.00  0.00     0.409 C 
HETATM   23  F   UNL     1      40.248 -16.147   4.654  1.00  0.00    -0.169 F 
HETATM   24  F   UNL     1      41.278 -17.134   6.298  1.00  0.00    -0.169 F 
HETATM   25  F   UNL     1      39.320 -16.260   6.616  1.00  0.00    -0.169 F 
ENDBRANCH   9  22
BRANCH   1  26
HETATM   26  C   UNL     1      43.732 -16.170   4.776  1.00  0.00    -0.035 A 
HETATM   27  C   UNL     1      44.271 -17.357   5.299  1.00  0.00     0.009 A 
HETATM   28  C   UNL     1      44.348 -18.517   4.523  1.00  0.00     0.001 A 
HETATM   29  C   UNL     1      43.878 -18.515   3.214  1.00  0.00     0.000 A 
HETATM   30  C   UNL     1      43.325 -17.356   2.680  1.00  0.00     0.001 A 
HETATM   31  C   UNL     1      43.249 -16.195   3.455  1.00  0.00     0.009 A 
ENDBRANCH   1  26
TORSDOF 5
ENDMDL
MODEL 4
REMARK VINA RESULT:      -7.2      3.863      7.997
REMARK  5 active torsions:
REMARK  status: ('A' for Active; 'I' for Inactive)
REMARK    1  A    between atoms: C_4  and  C_5 
REMARK    2  A    between atoms: C_10  and  C_11 
REMARK       I    between atoms: C_11  and  N_12 
REMARK    3  A    between atoms: N_12  and  C_13 
REMARK    4  A    between atoms: C_13  and  C_14 
REMARK    5  A    between atoms: C_22  and  C_23 
ROOT
HETATM    1  C   UNL     1      40.465 -11.257  -2.150  1.00  0.00     0.118 C 
HETATM    2  N   UNL     1      40.976 -11.472  -0.799  1.00  0.00    -0.365 N 
HETATM    3  C   UNL     1      40.901 -12.682  -0.194  1.00  0.00     0.141 A 
HETATM    4  N   UNL     1      40.551 -13.807  -0.889  1.00  0.00    -0.238 N 
HETATM    5  N   UNL     1      40.564 -14.932  -0.156  1.00  0.00    -0.163 NA
HETATM    6  C   UNL     1      40.883 -14.506   1.093  1.00  0.00     0.165 A 
HETATM    7  C   UNL     1      41.112 -13.106   1.093  1.00  0.00     0.092 A 
HETATM    8 BR   UNL     1      41.585 -12.031   2.552  1.00  0.00    -0.044 Br
HETATM    9  C   UNL     1      40.224 -13.828  -2.302  1.00  0.00     0.221 C 
HETATM   10  C   UNL     1      40.690 -12.530  -2.989  1.00  0.00     0.066 C 
HETATM   11  H   UNL     1      41.099 -10.628  -0.240  1.00  0.00     0.162 HD
ENDROOT
BRANCH   6  12
HETATM   12  C   UNL     1      40.920 -15.454   2.219  1.00  0.00     0.273 C 
HETATM   13  N   UNL     1      42.146 -16.067   2.359  1.00  0.00    -0.353 N 
HETATM   14  H   UNL     1      42.830 -15.855   1.636  1.00  0.00     0.162 HD
HETATM   15  O   UNL     1      39.958 -15.708   2.938  1.00  0.00    -0.266 OA
BRANCH  13  16
HETATM   16  C   UNL     1      42.393 -17.187   3.243  1.00  0.00     0.155 C 
BRANCH  16  17
HETATM   17  C   UNL     1      43.586 -18.053   2.809  1.00  0.00     0.139 C 
HETATM   18  O   UNL     1      43.106 -19.182   2.048  1.00  0.00    -0.384 OA
HETATM   19  C   UNL     1      43.583 -20.386   2.662  1.00  0.00     0.168 C 
HETATM   20  C   UNL     1      43.968 -20.034   4.079  1.00  0.00     0.029 C 
HETATM   21  C   UNL     1      44.437 -18.608   3.944  1.00  0.00     0.035 C 
ENDBRANCH  16  17
ENDBRANCH  13  16
ENDBRANCH   6  12
BRANCH   9  22
HETATM   22  C   UNL     1      38.753 -14.132  -2.496  1.00  0.00     0.409 C 
HETATM   23  F   UNL     1      38.475 -15.445  -2.595  1.00  0.00    -0.169 F 
HETATM   24  F   UNL     1      38.034 -13.646  -1.451  1.00  0.00    -0.169 F 
HETATM   25  F   UNL     1      38.257 -13.533  -3.604  1.00  0.00    -0.169 F 
ENDBRANCH   9  22
BRANCH   1  26
HETATM   26  C   UNL     1      39.047 -10.709  -2.176  1.00  0.00    -0.035 A 
HETATM   27  C   UNL     1      38.271 -10.539  -1.017  1.00  0.00     0.009 A 
HETATM   28  C   UNL     1      36.974 -10.025  -1.086  1.00  0.00     0.001 A 
HETATM   29  C   UNL     1      36.431  -9.661  -2.314  1.00  0.00     0.000 A 
HETATM   30  C   UNL     1      37.186  -9.804  -3.473  1.00  0.00     0.001 A 
HETATM   31  C   UNL     1      38.483 -10.319  -3.405  1.00  0.00     0.009 A 
ENDBRANCH   1  26
TORSDOF 5
ENDMDL
MODEL 5
REMARK VINA RESULT:      -7.1     16.459     19.417
REMARK  5 active torsions:
REMARK  status: ('A' for Active; 'I' for Inactive)
REMARK    1  A    between atoms: C_4  and  C_5 
REMARK    2  A    between atoms: C_10  and  C_11 
REMARK       I    between atoms: C_11  and  N_12 
REMARK    3  A    between atoms: N_12  and  C_13 
REMARK    4  A    between atoms: C_13  and  C_14 
REMARK    5  A    between atoms: C_22  and  C_23 
ROOT
HETATM    1  C   UNL     1      43.995 -28.814  -1.131  1.00  0.00     0.118 C 
HETATM    2  N   UNL     1      43.908 -29.431   0.189  1.00  0.00    -0.365 N 
HETATM    3  C   UNL     1      45.003 -29.597   0.971  1.00  0.00     0.141 A 
HETATM    4  N   UNL     1      46.195 -29.001   0.664  1.00  0.00    -0.238 N 
HETATM    5  N   UNL     1      47.169 -29.229   1.561  1.00  0.00    -0.163 NA
HETATM    6  C   UNL     1      46.595 -30.064   2.464  1.00  0.00     0.165 A 
HETATM    7  C   UNL     1      45.237 -30.298   2.126  1.00  0.00     0.092 A 
HETATM    8 BR   UNL     1      44.004 -31.366   3.046  1.00  0.00    -0.044 Br
HETATM    9  C   UNL     1      46.416 -28.160  -0.497  1.00  0.00     0.221 C 
HETATM   10  C   UNL     1      45.074 -27.714  -1.110  1.00  0.00     0.066 C 
HETATM   11  H   UNL     1      43.072 -29.993   0.354  1.00  0.00     0.162 HD
ENDROOT
BRANCH   6  12
HETATM   12  C   UNL     1      47.383 -30.613   3.580  1.00  0.00     0.273 C 
HETATM   13  N   UNL     1      48.336 -31.517   3.166  1.00  0.00    -0.353 N 
HETATM   14  H   UNL     1      48.323 -31.749   2.175  1.00  0.00     0.162 HD
HETATM   15  O   UNL     1      47.195 -30.331   4.759  1.00  0.00    -0.266 OA
BRANCH  13  16
HETATM   16  C   UNL     1      49.100 -32.356   4.066  1.00  0.00     0.155 C 
BRANCH  16  17
HETATM   17  C   UNL     1      50.619 -32.163   3.936  1.00  0.00     0.139 C 
HETATM   18  O   UNL     1      51.297 -33.165   4.722  1.00  0.00    -0.384 OA
HETATM   19  C   UNL     1      52.179 -32.509   5.642  1.00  0.00     0.168 C 
HETATM   20  C   UNL     1      51.704 -31.080   5.761  1.00  0.00     0.029 C 
HETATM   21  C   UNL     1      51.146 -30.807   4.388  1.00  0.00     0.035 C 
ENDBRANCH  16  17
ENDBRANCH  13  16
ENDBRANCH   6  12
BRANCH   9  22
HETATM   22  C   UNL     1      47.341 -28.851  -1.477  1.00  0.00     0.409 C 
HETATM   23  F   UNL     1      47.267 -30.193  -1.445  1.00  0.00    -0.169 F 
HETATM   24  F   UNL     1      47.052 -28.461  -2.746  1.00  0.00    -0.169 F 
HETATM   25  F   UNL     1      48.636 -28.515  -1.267  1.00  0.00    -0.169 F 
ENDBRANCH   9  22
BRANCH   1  26
HETATM   26  C   UNL     1      44.124 -29.824  -2.260  1.00  0.00    -0.035 A 
HETATM   27  C   UNL     1      44.274 -31.204  -2.039  1.00  0.00     0.009 A 
HETATM   28  C   UNL     1      44.383 -32.098  -3.106  1.00  0.00     0.001 A 
HETATM   29  C   UNL     1      44.333 -31.632  -4.416  1.00  0.00     0.000 A 
HETATM   30  C   UNL     1      44.168 -30.273  -4.660  1.00  0.00     0.001 A 
HETATM   31  C   UNL     1      44.060 -29.378  -3.593  1.00  0.00     0.009 A 
ENDBRANCH   1  26
TORSDOF 5
ENDMDL
MODEL 6
REMARK VINA RESULT:      -7.0      5.895      8.686
REMARK  5 active torsions:
REMARK  status: ('A' for Active; 'I' for Inactive)
REMARK    1  A    between atoms: C_4  and  C_5 
REMARK    2  A    between atoms: C_10  and  C_11 
REMARK       I    between atoms: C_11  and  N_12 
REMARK    3  A    between atoms: N_12  and  C_13 
REMARK    4  A    between atoms: C_13  and  C_14 
REMARK    5  A    between atoms: C_22  and  C_23 
ROOT
HETATM    1  C   UNL     1      43.761  -8.268   9.264  1.00  0.00     0.118 C 
HETATM    2  N   UNL     1      44.131  -9.388   8.402  1.00  0.00    -0.365 N 
HETATM    3  C   UNL     1      43.238  -9.965   7.562  1.00  0.00     0.141 A 
HETATM    4  N   UNL     1      42.021  -9.393   7.313  1.00  0.00    -0.238 N 
HETATM    5  N   UNL     1      41.269 -10.065   6.425  1.00  0.00    -0.163 NA
HETATM    6  C   UNL     1      42.014 -11.160   6.127  1.00  0.00     0.165 A 
HETATM    7  C   UNL     1      43.255 -11.114   6.814  1.00  0.00     0.092 A 
HETATM    8 BR   UNL     1      44.640 -12.372   6.743  1.00  0.00    -0.044 Br
HETATM    9  C   UNL     1      41.561  -8.152   7.908  1.00  0.00     0.221 C 
HETATM   10  C   UNL     1      42.739  -7.378   8.531  1.00  0.00     0.066 C 
HETATM   11  H   UNL     1      44.970  -9.896   8.684  1.00  0.00     0.162 HD
ENDROOT
BRANCH   6  12
HETATM   12  C   UNL     1      41.487 -12.200   5.229  1.00  0.00     0.273 C 
HETATM   13  N   UNL     1      41.303 -13.409   5.862  1.00  0.00    -0.353 N 
HETATM   14  H   UNL     1      41.623 -13.455   6.827  1.00  0.00     0.162 HD
HETATM   15  O   UNL     1      41.266 -12.029   4.033  1.00  0.00    -0.266 OA
BRANCH  13  16
HETATM   16  C   UNL     1      40.998 -14.645   5.172  1.00  0.00     0.155 C 
BRANCH  16  17
HETATM   17  C   UNL     1      41.477 -15.896   5.924  1.00  0.00     0.139 C 
HETATM   18  O   UNL     1      41.784 -15.544   7.290  1.00  0.00    -0.384 OA
HETATM   19  C   UNL     1      43.135 -15.932   7.572  1.00  0.00     0.168 C 
HETATM   20  C   UNL     1      43.831 -16.098   6.242  1.00  0.00     0.029 C 
HETATM   21  C   UNL     1      42.715 -16.571   5.347  1.00  0.00     0.035 C 
ENDBRANCH  16  17
ENDBRANCH  13  16
ENDBRANCH   6  12
BRANCH   9  22
HETATM   22  C   UNL     1      40.424  -8.421   8.871  1.00  0.00     0.409 C 
HETATM   23  F   UNL     1      40.499  -9.614   9.486  1.00  0.00    -0.169 F 
HETATM   24  F   UNL     1      40.397  -7.469   9.839  1.00  0.00    -0.169 F 
HETATM   25  F   UNL     1      39.220  -8.363   8.254  1.00  0.00    -0.169 F 
ENDBRANCH   9  22
BRANCH   1  26
HETATM   26  C   UNL     1      43.358  -8.695  10.666  1.00  0.00    -0.035 A 
HETATM   27  C   UNL     1      43.289 -10.041  11.065  1.00  0.00     0.009 A 
HETATM   28  C   UNL     1      42.920 -10.389  12.367  1.00  0.00     0.001 A 
HETATM   29  C   UNL     1      42.623  -9.398  13.298  1.00  0.00     0.000 A 
HETATM   30  C   UNL     1      42.702  -8.059  12.931  1.00  0.00     0.001 A 
HETATM   31  C   UNL     1      43.070  -7.710  11.628  1.00  0.00     0.009 A 
ENDBRANCH   1  26
TORSDOF 5
ENDMDL
MODEL 7
REMARK VINA RESULT:      -7.0      7.154      9.886
REMARK  5 active torsions:
REMARK  status: ('A' for Active; 'I' for Inactive)
REMARK    1  A    between atoms: C_4  and  C_5 
REMARK    2  A    between atoms: C_10  and  C_11 
REMARK       I    between atoms: C_11  and  N_12 
REMARK    3  A    between atoms: N_12  and  C_13 
REMARK    4  A    between atoms: C_13  and  C_14 
REMARK    5  A    between atoms: C_22  and  C_23 
ROOT
HETATM    1  C   UNL     1      42.062  -6.899  10.648  1.00  0.00     0.118 C 
HETATM    2  N   UNL     1      43.196  -7.475   9.931  1.00  0.00    -0.365 N 
HETATM    3  C   UNL     1      43.043  -8.507   9.067  1.00  0.00     0.141 A 
HETATM    4  N   UNL     1      41.804  -8.912   8.653  1.00  0.00    -0.238 N 
HETATM    5  N   UNL     1      41.824  -9.919   7.764  1.00  0.00    -0.163 NA
HETATM    6  C   UNL     1      43.142 -10.220   7.639  1.00  0.00     0.165 A 
HETATM    7  C   UNL     1      43.926  -9.342   8.432  1.00  0.00     0.092 A 
HETATM    8 BR   UNL     1      45.790  -9.329   8.607  1.00  0.00    -0.044 Br
HETATM    9  C   UNL     1      40.558  -8.309   9.086  1.00  0.00     0.221 C 
HETATM   10  C   UNL     1      40.815  -6.939   9.744  1.00  0.00     0.066 C 
HETATM   11  H   UNL     1      44.112  -7.278  10.336  1.00  0.00     0.162 HD
ENDROOT
BRANCH   6  12
HETATM   12  C   UNL     1      43.574 -11.345   6.793  1.00  0.00     0.273 C 
HETATM   13  N   UNL     1      43.083 -12.557   7.227  1.00  0.00    -0.353 N 
HETATM   14  H   UNL     1      42.564 -12.535   8.102  1.00  0.00     0.162 HD
HETATM   15  O   UNL     1      44.321 -11.233   5.826  1.00  0.00    -0.266 OA
BRANCH  13  16
HETATM   16  C   UNL     1      43.519 -13.837   6.709  1.00  0.00     0.155 C 
BRANCH  16  17
HETATM   17  C   UNL     1      42.701 -15.021   7.249  1.00  0.00     0.139 C 
HETATM   18  O   UNL     1      43.599 -16.071   7.668  1.00  0.00    -0.384 OA
HETATM   19  C   UNL     1      43.247 -17.278   6.979  1.00  0.00     0.168 C 
HETATM   20  C   UNL     1      42.431 -16.875   5.774  1.00  0.00     0.029 C 
HETATM   21  C   UNL     1      41.718 -15.640   6.263  1.00  0.00     0.035 C 
ENDBRANCH  16  17
ENDBRANCH  13  16
ENDBRANCH   6  12
BRANCH   9  22
HETATM   22  C   UNL     1      39.783  -9.275   9.958  1.00  0.00     0.409 C 
HETATM   23  F   UNL     1      40.556 -10.039  10.749  1.00  0.00    -0.169 F 
HETATM   24  F   UNL     1      38.930  -8.592  10.767  1.00  0.00    -0.169 F 
HETATM   25  F   UNL     1      39.013 -10.110   9.221  1.00  0.00    -0.169 F 
ENDBRANCH   9  22
BRANCH   1  26
HETATM   26  C   UNL     1      41.871  -7.481  12.039  1.00  0.00    -0.035 A 
HETATM   27  C   UNL     1      42.733  -8.444  12.590  1.00  0.00     0.009 A 
HETATM   28  C   UNL     1      42.524  -8.948  13.876  1.00  0.00     0.001 A 
HETATM   29  C   UNL     1      41.455  -8.491  14.640  1.00  0.00     0.000 A 
HETATM   30  C   UNL     1      40.599  -7.525  14.123  1.00  0.00     0.001 A 
HETATM   31  C   UNL     1      40.807  -7.022  12.836  1.00  0.00     0.009 A 
ENDBRANCH   1  26
TORSDOF 5
ENDMDL
MODEL 8
REMARK VINA RESULT:      -7.0      1.549      2.589
REMARK  5 active torsions:
REMARK  status: ('A' for Active; 'I' for Inactive)
REMARK    1  A    between atoms: C_4  and  C_5 
REMARK    2  A    between atoms: C_10  and  C_11 
REMARK       I    between atoms: C_11  and  N_12 
REMARK    3  A    between atoms: N_12  and  C_13 
REMARK    4  A    between atoms: C_13  and  C_14 
REMARK    5  A    between atoms: C_22  and  C_23 
ROOT
HETATM    1  C   UNL     1      40.564 -14.155   5.527  1.00  0.00     0.118 C 
HETATM    2  N   UNL     1      39.752 -13.105   4.919  1.00  0.00    -0.365 N 
HETATM    3  C   UNL     1      39.694 -12.937   3.575  1.00  0.00     0.141 A 
HETATM    4  N   UNL     1      40.207 -13.871   2.718  1.00  0.00    -0.238 N 
HETATM    5  N   UNL     1      40.031 -13.578   1.418  1.00  0.00    -0.163 NA
HETATM    6  C   UNL     1      39.426 -12.363   1.435  1.00  0.00     0.165 A 
HETATM    7  C   UNL     1      39.191 -11.947   2.771  1.00  0.00     0.092 A 
HETATM    8 BR   UNL     1      38.380 -10.358   3.341  1.00  0.00    -0.044 Br
HETATM    9  C   UNL     1      40.856 -15.099   3.136  1.00  0.00     0.221 C 
HETATM   10  C   UNL     1      40.551 -15.399   4.616  1.00  0.00     0.066 C 
HETATM   11  H   UNL     1      39.494 -12.338   5.541  1.00  0.00     0.162 HD
ENDROOT
BRANCH   6  12
HETATM   12  C   UNL     1      39.134 -11.657   0.176  1.00  0.00     0.273 C 
HETATM   13  N   UNL     1      38.042 -12.175  -0.485  1.00  0.00    -0.353 N 
HETATM   14  H   UNL     1      37.633 -13.011  -0.073  1.00  0.00     0.162 HD
HETATM   15  O   UNL     1      39.806 -10.730  -0.265  1.00  0.00    -0.266 OA
BRANCH  13  16
HETATM   16  C   UNL     1      37.667 -11.810  -1.835  1.00  0.00     0.155 C 
BRANCH  16  17
HETATM   17  C   UNL     1      38.157 -12.810  -2.894  1.00  0.00     0.139 C 
HETATM   18  O   UNL     1      37.784 -14.147  -2.499  1.00  0.00    -0.384 OA
HETATM   19  C   UNL     1      38.964 -14.960  -2.456  1.00  0.00     0.168 C 
HETATM   20  C   UNL     1      40.142 -14.019  -2.363  1.00  0.00     0.029 C 
HETATM   21  C   UNL     1      39.661 -12.818  -3.137  1.00  0.00     0.035 C 
ENDBRANCH  16  17
ENDBRANCH  13  16
ENDBRANCH   6  12
BRANCH   9  22
HETATM   22  C   UNL     1      42.333 -15.049   2.808  1.00  0.00     0.409 C 
HETATM   23  F   UNL     1      42.631 -15.459   1.563  1.00  0.00    -0.169 F 
HETATM   24  F   UNL     1      42.797 -13.779   2.936  1.00  0.00    -0.169 F 
HETATM   25  F   UNL     1      43.063 -15.802   3.664  1.00  0.00    -0.169 F 
ENDBRANCH   9  22
BRANCH   1  26
HETATM   26  C   UNL     1      41.943 -13.679   5.952  1.00  0.00    -0.035 A 
HETATM   27  C   UNL     1      42.915 -14.537   6.496  1.00  0.00     0.009 A 
HETATM   28  C   UNL     1      44.173 -14.058   6.868  1.00  0.00     0.001 A 
HETATM   29  C   UNL     1      44.489 -12.714   6.694  1.00  0.00     0.000 A 
HETATM   30  C   UNL     1      43.550 -11.850   6.142  1.00  0.00     0.001 A 
HETATM   31  C   UNL     1      42.290 -12.328   5.771  1.00  0.00     0.009 A 
ENDBRANCH   1  26
TORSDOF 5
ENDMDL
MODEL 9
REMARK VINA RESULT:      -6.9      5.845      9.227
REMARK  5 active torsions:
REMARK  status: ('A' for Active; 'I' for Inactive)
REMARK    1  A    between atoms: C_4  and  C_5 
REMARK    2  A    between atoms: C_10  and  C_11 
REMARK       I    between atoms: C_11  and  N_12 
REMARK    3  A    between atoms: N_12  and  C_13 
REMARK    4  A    between atoms: C_13  and  C_14 
REMARK    5  A    between atoms: C_22  and  C_23 
ROOT
HETATM    1  C   UNL     1      42.277 -12.599   4.341  1.00  0.00     0.118 C 
HETATM    2  N   UNL     1      41.225 -11.781   4.937  1.00  0.00    -0.365 N 
HETATM    3  C   UNL     1      41.461 -10.991   6.013  1.00  0.00     0.141 A 
HETATM    4  N   UNL     1      42.732 -10.748   6.454  1.00  0.00    -0.238 N 
HETATM    5  N   UNL     1      42.800  -9.910   7.502  1.00  0.00    -0.163 NA
HETATM    6  C   UNL     1      41.500  -9.644   7.793  1.00  0.00     0.165 A 
HETATM    7  C   UNL     1      40.644 -10.295   6.868  1.00  0.00     0.092 A 
HETATM    8 BR   UNL     1      38.773 -10.247   6.822  1.00  0.00    -0.044 Br
HETATM    9  C   UNL     1      43.930 -11.296   5.845  1.00  0.00     0.221 C 
HETATM   10  C   UNL     1      43.621 -11.853   4.442  1.00  0.00     0.066 C 
HETATM   11  H   UNL     1      40.272 -12.064   4.710  1.00  0.00     0.162 HD
ENDROOT
BRANCH   6  12
HETATM   12  C   UNL     1      41.151  -8.808   8.953  1.00  0.00     0.273 C 
HETATM   13  N   UNL     1      41.318  -9.463  10.153  1.00  0.00    -0.353 N 
HETATM   14  H   UNL     1      41.577 -10.445  10.086  1.00  0.00     0.162 HD
HETATM   15  O   UNL     1      40.721  -7.661   8.870  1.00  0.00    -0.266 OA
BRANCH  13  16
HETATM   16  C   UNL     1      40.853  -8.951  11.425  1.00  0.00     0.155 C 
BRANCH  16  17
HETATM   17  C   UNL     1      41.740  -9.368  12.609  1.00  0.00     0.139 C 
HETATM   18  O   UNL     1      41.111  -8.962  13.844  1.00  0.00    -0.384 OA
HETATM   19  C   UNL     1      42.030  -8.145  14.580  1.00  0.00     0.168 C 
HETATM   20  C   UNL     1      43.061  -7.646  13.595  1.00  0.00     0.029 C 
HETATM   21  C   UNL     1      43.146  -8.783  12.610  1.00  0.00     0.035 C 
ENDBRANCH  16  17
ENDBRANCH  13  16
ENDBRANCH   6  12
BRANCH   9  22
HETATM   22  C   UNL     1      44.579 -12.299   6.777  1.00  0.00     0.409 C 
HETATM   23  F   UNL     1      43.725 -12.872   7.644  1.00  0.00    -0.169 F 
HETATM   24  F   UNL     1      45.154 -13.298   6.059  1.00  0.00    -0.169 F 
HETATM   25  F   UNL     1      45.573 -11.739   7.504  1.00  0.00    -0.169 F 
ENDBRANCH   9  22
BRANCH   1  26
HETATM   26  C   UNL     1      42.291 -14.029   4.857  1.00  0.00    -0.035 A 
HETATM   27  C   UNL     1      41.503 -14.461   5.937  1.00  0.00     0.009 A 
HETATM   28  C   UNL     1      41.543 -15.788   6.374  1.00  0.00     0.001 A 
HETATM   29  C   UNL     1      42.363 -16.710   5.733  1.00  0.00     0.000 A 
HETATM   30  C   UNL     1      43.139 -16.311   4.651  1.00  0.00     0.001 A 
HETATM   31  C   UNL     1      43.101 -14.984   4.214  1.00  0.00     0.009 A 
ENDBRANCH   1  26
TORSDOF 5
ENDMDL
MODEL 10
REMARK VINA RESULT:      -6.7     16.989     18.724
REMARK  5 active torsions:
REMARK  status: ('A' for Active; 'I' for Inactive)
REMARK    1  A    between atoms: C_4  and  C_5 
REMARK    2  A    between atoms: C_10  and  C_11 
REMARK       I    between atoms: C_11  and  N_12 
REMARK    3  A    between atoms: N_12  and  C_13 
REMARK    4  A    between atoms: C_13  and  C_14 
REMARK    5  A    between atoms: C_22  and  C_23 
ROOT
HETATM    1  C   UNL     1      50.672 -29.968   3.233  1.00  0.00     0.118 C 
HETATM    2  N   UNL     1      50.834 -29.976   1.782  1.00  0.00    -0.365 N 
HETATM    3  C   UNL     1      49.777 -29.834   0.946  1.00  0.00     0.141 A 
HETATM    4  N   UNL     1      48.548 -29.455   1.409  1.00  0.00    -0.238 N 
HETATM    5  N   UNL     1      47.618 -29.317   0.450  1.00  0.00    -0.163 NA
HETATM    6  C   UNL     1      48.263 -29.682  -0.687  1.00  0.00     0.165 A 
HETATM    7  C   UNL     1      49.618 -29.996  -0.407  1.00  0.00     0.092 A 
HETATM    8 BR   UNL     1      50.932 -30.547  -1.621  1.00  0.00    -0.044 Br
HETATM    9  C   UNL     1      48.246 -29.180   2.802  1.00  0.00     0.221 C 
HETATM   10  C   UNL     1      49.542 -28.991   3.613  1.00  0.00     0.066 C 
HETATM   11  H   UNL     1      51.702 -30.393   1.443  1.00  0.00     0.162 HD
ENDROOT
BRANCH   6  12
HETATM   12  C   UNL     1      47.542 -29.739  -1.969  1.00  0.00     0.273 C 
HETATM   13  N   UNL     1      46.816 -28.597  -2.224  1.00  0.00    -0.353 N 
HETATM   14  H   UNL     1      46.803 -27.907  -1.477  1.00  0.00     0.162 HD
HETATM   15  O   UNL     1      47.548 -30.710  -2.720  1.00  0.00    -0.266 OA
BRANCH  13  16
HETATM   16  C   UNL     1      45.857 -28.472  -3.302  1.00  0.00     0.155 C 
BRANCH  16  17
HETATM   17  C   UNL     1      44.431 -28.879  -2.897  1.00  0.00     0.139 C 
HETATM   18  O   UNL     1      44.317 -28.856  -1.458  1.00  0.00    -0.384 OA
HETATM   19  C   UNL     1      43.867 -30.142  -1.012  1.00  0.00     0.168 C 
HETATM   20  C   UNL     1      44.152 -31.119  -2.129  1.00  0.00     0.029 C 
HETATM   21  C   UNL     1      43.991 -30.263  -3.359  1.00  0.00     0.035 C 
ENDBRANCH  16  17
ENDBRANCH  13  16
ENDBRANCH   6  12
BRANCH   9  22
HETATM   22  C   UNL     1      47.321 -30.243   3.357  1.00  0.00     0.409 C 
HETATM   23  F   UNL     1      47.479 -31.454   2.794  1.00  0.00    -0.169 F 
HETATM   24  F   UNL     1      47.527 -30.390   4.692  1.00  0.00    -0.169 F 
HETATM   25  F   UNL     1      46.019 -29.901   3.215  1.00  0.00    -0.169 F 
ENDBRANCH   9  22
BRANCH   1  26
HETATM   26  C   UNL     1      50.552 -31.360   3.832  1.00  0.00    -0.035 A 
HETATM   27  C   UNL     1      50.525 -32.529   3.053  1.00  0.00     0.009 A 
HETATM   28  C   UNL     1      50.420 -33.789   3.646  1.00  0.00     0.001 A 
HETATM   29  C   UNL     1      50.351 -33.906   5.030  1.00  0.00     0.000 A 
HETATM   30  C   UNL     1      50.393 -32.765   5.824  1.00  0.00     0.001 A 
HETATM   31  C   UNL     1      50.497 -31.504   5.231  1.00  0.00     0.009 A 
ENDBRANCH   1  26
TORSDOF 5
ENDMDL
