MODEL 1
REMARK VINA RESULT:      -8.4      0.000      0.000
REMARK  4 active torsions:
REMARK  status: ('A' for Active; 'I' for Inactive)
REMARK    1  A    between atoms: C_7  and  C_8 
REMARK    2  A    between atoms: C_10  and  O_11 
REMARK    3  A    between atoms: C_17  and  C_18 
REMARK    4  A    between atoms: C_25  and  C_26 
REMARK       I    between atoms: C_26  and  N_27 
ROOT
HETATM    1  C   UNL     1      39.041 -10.488   3.874  1.00  0.00     0.070 C 
HETATM    2  C   UNL     1      40.013 -11.536   4.361  1.00  0.00     0.037 A 
HETATM    3  N   UNL     1      40.147 -12.656   3.549  1.00  0.00    -0.192 N 
HETATM    4  C   UNL     1      40.951 -13.694   3.844  1.00  0.00     0.726 A 
HETATM    5  N   UNL     1      41.692 -13.661   4.990  1.00  0.00    -0.083 N 
HETATM    6  N   UNL     1      42.366 -14.813   5.175  1.00  0.00    -0.135 NA
HETATM    7  C   UNL     1      42.073 -15.477   4.040  1.00  0.00     0.199 A 
HETATM    8  N   UNL     1      41.177 -14.816   3.215  1.00  0.00    -0.041 NA
HETATM    9  C   UNL     1      41.679 -12.550   5.948  1.00  0.00     0.202 A 
HETATM   10  C   UNL     1      40.718 -11.450   5.517  1.00  0.00     0.062 A 
HETATM   11  H   UNL     1      39.608 -12.684   2.688  1.00  0.00     0.184 HD
ENDROOT
BRANCH   7  12
HETATM   12  C   UNL     1      42.642 -16.776   3.691  1.00  0.00     0.017 A 
HETATM   13  C   UNL     1      43.320 -17.544   4.654  1.00  0.00     0.052 A 
HETATM   14  C   UNL     1      43.885 -18.775   4.314  1.00  0.00     0.069 A 
HETATM   15  C   UNL     1      43.766 -19.245   3.005  1.00  0.00     0.037 A 
HETATM   16  C   UNL     1      43.096 -18.495   2.039  1.00  0.00     0.004 A 
HETATM   17  C   UNL     1      42.537 -17.263   2.380  1.00  0.00     0.015 A 
BRANCH  14  18
HETATM   18  O   UNL     1      44.571 -19.605   5.159  1.00  0.00    -0.356 OA
HETATM   19  C   UNL     1      44.113 -20.950   5.248  1.00  0.00     0.210 C 
ENDBRANCH  14  18
ENDBRANCH   7  12
BRANCH   9  20
HETATM   20  C   UNL     1      43.107 -12.069   6.197  1.00  0.00    -0.028 A 
HETATM   21  C   UNL     1      43.979 -11.763   5.135  1.00  0.00     0.012 A 
HETATM   22  C   UNL     1      45.285 -11.341   5.390  1.00  0.00     0.043 A 
HETATM   23  C   UNL     1      45.729 -11.231   6.702  1.00  0.00     0.116 A 
HETATM   24  F   UNL     1      46.983 -10.830   6.944  1.00  0.00    -0.206 F 
HETATM   25  C   UNL     1      44.892 -11.539   7.767  1.00  0.00     0.043 A 
HETATM   26  C   UNL     1      43.585 -11.958   7.517  1.00  0.00     0.012 A 
ENDBRANCH   9  20
BRANCH  10  27
HETATM   27  C   UNL     1      40.648 -10.237   6.361  1.00  0.00     0.249 C 
HETATM   28  N   UNL     1      39.941 -10.359   7.513  1.00  0.00    -0.366 N 
HETATM   29  H   UNL     1      39.389 -11.162   7.772  1.00  0.00     0.159 HD
HETATM   30  H   UNL     1      39.866  -9.529   8.089  1.00  0.00     0.159 HD
HETATM   31  O   UNL     1      41.188  -9.184   6.050  1.00  0.00    -0.268 OA
ENDBRANCH  10  27
TORSDOF 4
ENDMDL
MODEL 2
REMARK VINA RESULT:      -8.4      3.262      6.902
REMARK  4 active torsions:
REMARK  status: ('A' for Active; 'I' for Inactive)
REMARK    1  A    between atoms: C_7  and  C_8 
REMARK    2  A    between atoms: C_10  and  O_11 
REMARK    3  A    between atoms: C_17  and  C_18 
REMARK    4  A    between atoms: C_25  and  C_26 
REMARK       I    between atoms: C_26  and  N_27 
ROOT
HETATM    1  C   UNL     1      38.486 -11.717   1.132  1.00  0.00     0.070 C 
HETATM    2  C   UNL     1      39.819 -12.031   1.766  1.00  0.00     0.037 A 
HETATM    3  N   UNL     1      40.093 -11.362   2.954  1.00  0.00    -0.192 N 
HETATM    4  C   UNL     1      41.242 -11.506   3.639  1.00  0.00     0.726 A 
HETATM    5  N   UNL     1      42.199 -12.356   3.167  1.00  0.00    -0.083 N 
HETATM    6  N   UNL     1      43.315 -12.310   3.920  1.00  0.00    -0.135 NA
HETATM    7  C   UNL     1      42.933 -11.480   4.910  1.00  0.00     0.199 A 
HETATM    8  N   UNL     1      41.665 -10.948   4.742  1.00  0.00    -0.041 NA
HETATM    9  C   UNL     1      42.066 -13.147   1.938  1.00  0.00     0.202 A 
HETATM   10  C   UNL     1      40.736 -12.882   1.243  1.00  0.00     0.062 A 
HETATM   11  H   UNL     1      39.379 -10.736   3.320  1.00  0.00     0.184 HD
ENDROOT
BRANCH   7  12
HETATM   12  C   UNL     1      43.765 -11.161   6.067  1.00  0.00     0.017 A 
HETATM   13  C   UNL     1      43.194 -10.627   7.235  1.00  0.00     0.052 A 
HETATM   14  C   UNL     1      43.992 -10.301   8.333  1.00  0.00     0.069 A 
HETATM   15  C   UNL     1      45.370 -10.515   8.266  1.00  0.00     0.037 A 
HETATM   16  C   UNL     1      45.951 -11.045   7.114  1.00  0.00     0.004 A 
HETATM   17  C   UNL     1      45.151 -11.365   6.017  1.00  0.00     0.015 A 
BRANCH  14  18
HETATM   18  O   UNL     1      43.554  -9.771   9.517  1.00  0.00    -0.356 OA
HETATM   19  C   UNL     1      43.731 -10.571  10.681  1.00  0.00     0.210 C 
ENDBRANCH  14  18
ENDBRANCH   7  12
BRANCH   9  20
HETATM   20  C   UNL     1      42.327 -14.620   2.243  1.00  0.00    -0.028 A 
HETATM   21  C   UNL     1      43.344 -15.342   1.589  1.00  0.00     0.012 A 
HETATM   22  C   UNL     1      43.552 -16.692   1.876  1.00  0.00     0.043 A 
HETATM   23  C   UNL     1      42.742 -17.330   2.807  1.00  0.00     0.116 A 
HETATM   24  F   UNL     1      42.940 -18.626   3.078  1.00  0.00    -0.206 F 
HETATM   25  C   UNL     1      41.725 -16.643   3.458  1.00  0.00     0.043 A 
HETATM   26  C   UNL     1      41.516 -15.293   3.177  1.00  0.00     0.012 A 
ENDBRANCH   9  20
BRANCH  10  27
HETATM   27  C   UNL     1      40.440 -13.660   0.020  1.00  0.00     0.249 C 
HETATM   28  N   UNL     1      40.932 -13.149  -1.138  1.00  0.00    -0.366 N 
HETATM   29  H   UNL     1      41.380 -12.251  -1.231  1.00  0.00     0.159 HD
HETATM   30  H   UNL     1      40.717 -13.660  -1.986  1.00  0.00     0.159 HD
HETATM   31  O   UNL     1      39.792 -14.697   0.038  1.00  0.00    -0.268 OA
ENDBRANCH  10  27
TORSDOF 4
ENDMDL
MODEL 3
REMARK VINA RESULT:      -8.2      2.809      3.867
REMARK  4 active torsions:
REMARK  status: ('A' for Active; 'I' for Inactive)
REMARK    1  A    between atoms: C_7  and  C_8 
REMARK    2  A    between atoms: C_10  and  O_11 
REMARK    3  A    between atoms: C_17  and  C_18 
REMARK    4  A    between atoms: C_25  and  C_26 
REMARK       I    between atoms: C_26  and  N_27 
ROOT
HETATM    1  C   UNL     1      39.827 -12.081  -1.310  1.00  0.00     0.070 C 
HETATM    2  C   UNL     1      40.057 -12.799  -0.002  1.00  0.00     0.037 A 
HETATM    3  N   UNL     1      40.957 -13.858  -0.047  1.00  0.00    -0.192 N 
HETATM    4  C   UNL     1      41.261 -14.619   1.020  1.00  0.00     0.726 A 
HETATM    5  N   UNL     1      40.675 -14.349   2.222  1.00  0.00    -0.083 N 
HETATM    6  N   UNL     1      41.019 -15.259   3.154  1.00  0.00    -0.135 NA
HETATM    7  C   UNL     1      41.910 -16.008   2.477  1.00  0.00     0.199 A 
HETATM    8  N   UNL     1      42.055 -15.648   1.147  1.00  0.00    -0.041 NA
HETATM    9  C   UNL     1      39.715 -13.261   2.446  1.00  0.00     0.202 A 
HETATM   10  C   UNL     1      39.437 -12.488   1.163  1.00  0.00     0.062 A 
HETATM   11  H   UNL     1      41.407 -14.058  -0.937  1.00  0.00     0.184 HD
ENDROOT
BRANCH   7  12
HETATM   12  C   UNL     1      42.670 -17.102   3.076  1.00  0.00     0.017 A 
HETATM   13  C   UNL     1      42.904 -17.138   4.462  1.00  0.00     0.052 A 
HETATM   14  C   UNL     1      43.651 -18.172   5.031  1.00  0.00     0.069 A 
HETATM   15  C   UNL     1      44.160 -19.181   4.211  1.00  0.00     0.037 A 
HETATM   16  C   UNL     1      43.935 -19.159   2.835  1.00  0.00     0.004 A 
HETATM   17  C   UNL     1      43.194 -18.122   2.269  1.00  0.00     0.015 A 
BRANCH  14  18
HETATM   18  O   UNL     1      43.949 -18.311   6.360  1.00  0.00    -0.356 OA
HETATM   19  C   UNL     1      43.582 -17.234   7.215  1.00  0.00     0.210 C 
ENDBRANCH  14  18
ENDBRANCH   7  12
BRANCH   9  20
HETATM   20  C   UNL     1      40.186 -12.391   3.609  1.00  0.00    -0.028 A 
HETATM   21  C   UNL     1      41.380 -11.648   3.541  1.00  0.00     0.012 A 
HETATM   22  C   UNL     1      41.796 -10.874   4.625  1.00  0.00     0.043 A 
HETATM   23  C   UNL     1      41.029 -10.844   5.783  1.00  0.00     0.116 A 
HETATM   24  F   UNL     1      41.431 -10.104   6.824  1.00  0.00    -0.206 F 
HETATM   25  C   UNL     1      39.853 -11.577   5.881  1.00  0.00     0.043 A 
HETATM   26  C   UNL     1      39.432 -12.350   4.798  1.00  0.00     0.012 A 
ENDBRANCH   9  20
BRANCH  10  27
HETATM   27  C   UNL     1      38.531 -11.322   1.254  1.00  0.00     0.249 C 
HETATM   28  N   UNL     1      37.203 -11.603   1.233  1.00  0.00    -0.366 N 
HETATM   29  H   UNL     1      36.806 -12.514   1.059  1.00  0.00     0.159 HD
HETATM   30  H   UNL     1      36.571 -10.811   1.272  1.00  0.00     0.159 HD
HETATM   31  O   UNL     1      38.940 -10.173   1.341  1.00  0.00    -0.268 OA
ENDBRANCH  10  27
TORSDOF 4
ENDMDL
MODEL 4
REMARK VINA RESULT:      -8.1      2.972      7.090
REMARK  4 active torsions:
REMARK  status: ('A' for Active; 'I' for Inactive)
REMARK    1  A    between atoms: C_7  and  C_8 
REMARK    2  A    between atoms: C_10  and  O_11 
REMARK    3  A    between atoms: C_17  and  C_18 
REMARK    4  A    between atoms: C_25  and  C_26 
REMARK       I    between atoms: C_26  and  N_27 
ROOT
HETATM    1  C   UNL     1      39.405 -12.996   2.534  1.00  0.00     0.070 C 
HETATM    2  C   UNL     1      40.663 -13.094   3.362  1.00  0.00     0.037 A 
HETATM    3  N   UNL     1      40.874 -12.055   4.262  1.00  0.00    -0.192 N 
HETATM    4  C   UNL     1      41.954 -11.972   5.059  1.00  0.00     0.726 A 
HETATM    5  N   UNL     1      42.900 -12.954   5.008  1.00  0.00    -0.083 N 
HETATM    6  N   UNL     1      43.952 -12.668   5.800  1.00  0.00    -0.135 NA
HETATM    7  C   UNL     1      43.534 -11.534   6.396  1.00  0.00     0.199 A 
HETATM    8  N   UNL     1      42.314 -11.070   5.933  1.00  0.00    -0.041 NA
HETATM    9  C   UNL     1      42.826 -14.125   4.126  1.00  0.00     0.202 A 
HETATM   10  C   UNL     1      41.573 -14.094   3.260  1.00  0.00     0.062 A 
HETATM   11  H   UNL     1      40.167 -11.325   4.316  1.00  0.00     0.184 HD
ENDROOT
BRANCH   7  12
HETATM   12  C   UNL     1      44.284 -10.846   7.443  1.00  0.00     0.017 A 
HETATM   13  C   UNL     1      43.730 -10.666   8.722  1.00  0.00     0.052 A 
HETATM   14  C   UNL     1      44.438  -9.986   9.716  1.00  0.00     0.069 A 
HETATM   15  C   UNL     1      45.711  -9.489   9.432  1.00  0.00     0.037 A 
HETATM   16  C   UNL     1      46.274  -9.661   8.168  1.00  0.00     0.004 A 
HETATM   17  C   UNL     1      45.563 -10.335   7.176  1.00  0.00     0.015 A 
BRANCH  14  18
HETATM   18  O   UNL     1      44.002  -9.744  10.991  1.00  0.00    -0.356 OA
HETATM   19  C   UNL     1      43.200  -8.585  11.185  1.00  0.00     0.210 C 
ENDBRANCH  14  18
ENDBRANCH   7  12
BRANCH   9  20
HETATM   20  C   UNL     1      42.983 -15.400   4.951  1.00  0.00    -0.028 A 
HETATM   21  C   UNL     1      43.873 -16.422   4.569  1.00  0.00     0.012 A 
HETATM   22  C   UNL     1      43.986 -17.585   5.332  1.00  0.00     0.043 A 
HETATM   23  C   UNL     1      43.206 -17.738   6.472  1.00  0.00     0.116 A 
HETATM   24  F   UNL     1      43.313 -18.856   7.201  1.00  0.00    -0.206 F 
HETATM   25  C   UNL     1      42.312 -16.750   6.864  1.00  0.00     0.043 A 
HETATM   26  C   UNL     1      42.199 -15.584   6.105  1.00  0.00     0.012 A 
ENDBRANCH   9  20
BRANCH  10  27
HETATM   27  C   UNL     1      41.338 -15.247   2.363  1.00  0.00     0.249 C 
HETATM   28  N   UNL     1      42.044 -15.247   1.203  1.00  0.00    -0.366 N 
HETATM   29  H   UNL     1      42.619 -14.486   0.874  1.00  0.00     0.159 HD
HETATM   30  H   UNL     1      41.874 -16.019   0.569  1.00  0.00     0.159 HD
HETATM   31  O   UNL     1      40.557 -16.148   2.637  1.00  0.00    -0.268 OA
ENDBRANCH  10  27
TORSDOF 4
ENDMDL
MODEL 5
REMARK VINA RESULT:      -8.0      4.295      5.937
REMARK  4 active torsions:
REMARK  status: ('A' for Active; 'I' for Inactive)
REMARK    1  A    between atoms: C_7  and  C_8 
REMARK    2  A    between atoms: C_10  and  O_11 
REMARK    3  A    between atoms: C_17  and  C_18 
REMARK    4  A    between atoms: C_25  and  C_26 
REMARK       I    between atoms: C_26  and  N_27 
ROOT
HETATM    1  C   UNL     1      38.681  -9.957   3.277  1.00  0.00     0.070 C 
HETATM    2  C   UNL     1      39.596 -11.002   2.689  1.00  0.00     0.037 A 
HETATM    3  N   UNL     1      39.946 -12.044   3.540  1.00  0.00    -0.192 N 
HETATM    4  C   UNL     1      40.771 -13.046   3.187  1.00  0.00     0.726 A 
HETATM    5  N   UNL     1      41.295 -13.068   1.926  1.00  0.00    -0.083 N 
HETATM    6  N   UNL     1      42.167 -14.083   1.771  1.00  0.00    -0.135 NA
HETATM    7  C   UNL     1      42.051 -14.715   2.956  1.00  0.00     0.199 A 
HETATM    8  N   UNL     1      41.214 -14.076   3.857  1.00  0.00    -0.041 NA
HETATM    9  C   UNL     1      41.017 -12.055   0.901  1.00  0.00     0.202 A 
HETATM   10  C   UNL     1      40.092 -10.965   1.427  1.00  0.00     0.062 A 
HETATM   11  H   UNL     1      39.551 -12.042   4.477  1.00  0.00     0.184 HD
ENDROOT
BRANCH   7  12
HETATM   12  C   UNL     1      42.733 -15.966   3.277  1.00  0.00     0.017 A 
HETATM   13  C   UNL     1      42.687 -17.056   2.390  1.00  0.00     0.052 A 
HETATM   14  C   UNL     1      43.320 -18.259   2.708  1.00  0.00     0.069 A 
HETATM   15  C   UNL     1      44.009 -18.373   3.917  1.00  0.00     0.037 A 
HETATM   16  C   UNL     1      44.063 -17.300   4.807  1.00  0.00     0.004 A 
HETATM   17  C   UNL     1      43.426 -16.101   4.488  1.00  0.00     0.015 A 
BRANCH  14  18
HETATM   18  O   UNL     1      43.340 -19.387   1.931  1.00  0.00    -0.356 OA
HETATM   19  C   UNL     1      43.677 -20.607   2.581  1.00  0.00     0.210 C 
ENDBRANCH  14  18
ENDBRANCH   7  12
BRANCH   9  20
HETATM   20  C   UNL     1      40.520 -12.735  -0.372  1.00  0.00    -0.028 A 
HETATM   21  C   UNL     1      40.962 -12.332  -1.647  1.00  0.00     0.012 A 
HETATM   22  C   UNL     1      40.479 -12.960  -2.796  1.00  0.00     0.043 A 
HETATM   23  C   UNL     1      39.548 -13.985  -2.680  1.00  0.00     0.116 A 
HETATM   24  F   UNL     1      39.083 -14.584  -3.783  1.00  0.00    -0.206 F 
HETATM   25  C   UNL     1      39.087 -14.393  -1.434  1.00  0.00     0.043 A 
HETATM   26  C   UNL     1      39.569 -13.770  -0.283  1.00  0.00     0.012 A 
ENDBRANCH   9  20
BRANCH  10  27
HETATM   27  C   UNL     1      39.679  -9.907   0.479  1.00  0.00     0.249 C 
HETATM   28  N   UNL     1      40.561  -8.889   0.308  1.00  0.00    -0.366 N 
HETATM   29  H   UNL     1      41.403  -8.756   0.845  1.00  0.00     0.159 HD
HETATM   30  H   UNL     1      40.279  -8.147  -0.322  1.00  0.00     0.159 HD
HETATM   31  O   UNL     1      38.611  -9.936  -0.118  1.00  0.00    -0.268 OA
ENDBRANCH  10  27
TORSDOF 4
ENDMDL
MODEL 6
REMARK VINA RESULT:      -8.0      4.585      6.967
REMARK  4 active torsions:
REMARK  status: ('A' for Active; 'I' for Inactive)
REMARK    1  A    between atoms: C_7  and  C_8 
REMARK    2  A    between atoms: C_10  and  O_11 
REMARK    3  A    between atoms: C_17  and  C_18 
REMARK    4  A    between atoms: C_25  and  C_26 
REMARK       I    between atoms: C_26  and  N_27 
ROOT
HETATM    1  C   UNL     1      44.131 -11.206   5.728  1.00  0.00     0.070 C 
HETATM    2  C   UNL     1      43.258 -11.827   4.665  1.00  0.00     0.037 A 
HETATM    3  N   UNL     1      43.099 -11.079   3.504  1.00  0.00    -0.192 N 
HETATM    4  C   UNL     1      42.338 -11.471   2.467  1.00  0.00     0.726 A 
HETATM    5  N   UNL     1      41.686 -12.669   2.531  1.00  0.00    -0.083 N 
HETATM    6  N   UNL     1      40.901 -12.862   1.454  1.00  0.00    -0.135 NA
HETATM    7  C   UNL     1      41.201 -11.780   0.709  1.00  0.00     0.199 A 
HETATM    8  N   UNL     1      42.066 -10.892   1.328  1.00  0.00    -0.041 NA
HETATM    9  C   UNL     1      41.757 -13.585   3.675  1.00  0.00     0.202 A 
HETATM   10  C   UNL     1      42.628 -13.021   4.790  1.00  0.00     0.062 A 
HETATM   11  H   UNL     1      43.591 -10.191   3.442  1.00  0.00     0.184 HD
ENDROOT
BRANCH   7  12
HETATM   12  C   UNL     1      40.676 -11.549  -0.634  1.00  0.00     0.017 A 
HETATM   13  C   UNL     1      40.216 -12.622  -1.418  1.00  0.00     0.052 A 
HETATM   14  C   UNL     1      39.736 -12.404  -2.711  1.00  0.00     0.069 A 
HETATM   15  C   UNL     1      39.708 -11.105  -3.222  1.00  0.00     0.037 A 
HETATM   16  C   UNL     1      40.161 -10.031  -2.456  1.00  0.00     0.004 A 
HETATM   17  C   UNL     1      40.645 -10.253  -1.167  1.00  0.00     0.015 A 
BRANCH  14  18
HETATM   18  O   UNL     1      39.269 -13.365  -3.568  1.00  0.00    -0.356 OA
HETATM   19  C   UNL     1      38.920 -14.619  -2.994  1.00  0.00     0.210 C 
ENDBRANCH  14  18
ENDBRANCH   7  12
BRANCH   9  20
HETATM   20  C   UNL     1      42.176 -14.973   3.197  1.00  0.00    -0.028 A 
HETATM   21  C   UNL     1      43.221 -15.152   2.271  1.00  0.00     0.012 A 
HETATM   22  C   UNL     1      43.573 -16.431   1.838  1.00  0.00     0.043 A 
HETATM   23  C   UNL     1      42.880 -17.535   2.318  1.00  0.00     0.116 A 
HETATM   24  F   UNL     1      43.216 -18.761   1.898  1.00  0.00    -0.206 F 
HETATM   25  C   UNL     1      41.837 -17.385   3.223  1.00  0.00     0.043 A 
HETATM   26  C   UNL     1      41.483 -16.108   3.661  1.00  0.00     0.012 A 
ENDBRANCH   9  20
BRANCH  10  27
HETATM   27  C   UNL     1      42.838 -13.869   5.985  1.00  0.00     0.249 C 
HETATM   28  N   UNL     1      41.756 -14.036   6.788  1.00  0.00    -0.366 N 
HETATM   29  H   UNL     1      40.878 -13.552   6.685  1.00  0.00     0.159 HD
HETATM   30  H   UNL     1      41.893 -14.596   7.621  1.00  0.00     0.159 HD
HETATM   31  O   UNL     1      43.914 -14.390   6.244  1.00  0.00    -0.268 OA
ENDBRANCH  10  27
TORSDOF 4
ENDMDL
MODEL 7
REMARK VINA RESULT:      -7.9      4.205      5.766
REMARK  4 active torsions:
REMARK  status: ('A' for Active; 'I' for Inactive)
REMARK    1  A    between atoms: C_7  and  C_8 
REMARK    2  A    between atoms: C_10  and  O_11 
REMARK    3  A    between atoms: C_17  and  C_18 
REMARK    4  A    between atoms: C_25  and  C_26 
REMARK       I    between atoms: C_26  and  N_27 
ROOT
HETATM    1  C   UNL     1      38.953 -10.104   3.442  1.00  0.00     0.070 C 
HETATM    2  C   UNL     1      39.808 -11.172   2.805  1.00  0.00     0.037 A 
HETATM    3  N   UNL     1      40.113 -12.261   3.613  1.00  0.00    -0.192 N 
HETATM    4  C   UNL     1      40.882 -13.289   3.214  1.00  0.00     0.726 A 
HETATM    5  N   UNL     1      41.392 -13.291   1.947  1.00  0.00    -0.083 N 
HETATM    6  N   UNL     1      42.209 -14.342   1.745  1.00  0.00    -0.135 NA
HETATM    7  C   UNL     1      42.073 -15.011   2.907  1.00  0.00     0.199 A 
HETATM    8  N   UNL     1      41.279 -14.365   3.840  1.00  0.00    -0.041 NA
HETATM    9  C   UNL     1      41.156 -12.228   0.963  1.00  0.00     0.202 A 
HETATM   10  C   UNL     1      40.293 -11.113   1.540  1.00  0.00     0.062 A 
HETATM   11  H   UNL     1      39.727 -12.274   4.554  1.00  0.00     0.184 HD
ENDROOT
BRANCH   7  12
HETATM   12  C   UNL     1      42.693 -16.306   3.174  1.00  0.00     0.017 A 
HETATM   13  C   UNL     1      42.973 -16.709   4.492  1.00  0.00     0.052 A 
HETATM   14  C   UNL     1      43.588 -17.936   4.746  1.00  0.00     0.069 A 
HETATM   15  C   UNL     1      43.919 -18.771   3.677  1.00  0.00     0.037 A 
HETATM   16  C   UNL     1      43.647 -18.385   2.364  1.00  0.00     0.004 A 
HETATM   17  C   UNL     1      43.038 -17.156   2.114  1.00  0.00     0.015 A 
BRANCH  14  18
HETATM   18  O   UNL     1      43.914 -18.432   5.980  1.00  0.00    -0.356 OA
HETATM   19  C   UNL     1      43.547 -19.781   6.246  1.00  0.00     0.210 C 
ENDBRANCH  14  18
ENDBRANCH   7  12
BRANCH   9  20
HETATM   20  C   UNL     1      40.612 -12.834  -0.328  1.00  0.00    -0.028 A 
HETATM   21  C   UNL     1      41.015 -12.364  -1.593  1.00  0.00     0.012 A 
HETATM   22  C   UNL     1      40.490 -12.925  -2.758  1.00  0.00     0.043 A 
HETATM   23  C   UNL     1      39.556 -13.949  -2.667  1.00  0.00     0.116 A 
HETATM   24  F   UNL     1      39.051 -14.484  -3.786  1.00  0.00    -0.206 F 
HETATM   25  C   UNL     1      39.133 -14.424  -1.432  1.00  0.00     0.043 A 
HETATM   26  C   UNL     1      39.658 -13.867  -0.265  1.00  0.00     0.012 A 
ENDBRANCH   9  20
BRANCH  10  27
HETATM   27  C   UNL     1      39.925 -10.001   0.635  1.00  0.00     0.249 C 
HETATM   28  N   UNL     1      40.863  -9.032   0.478  1.00  0.00    -0.366 N 
HETATM   29  H   UNL     1      41.723  -8.968   1.000  1.00  0.00     0.159 HD
HETATM   30  H   UNL     1      40.614  -8.254  -0.121  1.00  0.00     0.159 HD
HETATM   31  O   UNL     1      38.845  -9.946   0.063  1.00  0.00    -0.268 OA
ENDBRANCH  10  27
TORSDOF 4
ENDMDL
MODEL 8
REMARK VINA RESULT:      -7.7      4.762      7.552
REMARK  4 active torsions:
REMARK  status: ('A' for Active; 'I' for Inactive)
REMARK    1  A    between atoms: C_7  and  C_8 
REMARK    2  A    between atoms: C_10  and  O_11 
REMARK    3  A    between atoms: C_17  and  C_18 
REMARK    4  A    between atoms: C_25  and  C_26 
REMARK       I    between atoms: C_26  and  N_27 
ROOT
HETATM    1  C   UNL     1      43.112 -10.788   6.060  1.00  0.00     0.070 C 
HETATM    2  C   UNL     1      42.510 -11.350   4.796  1.00  0.00     0.037 A 
HETATM    3  N   UNL     1      42.615 -10.544   3.668  1.00  0.00    -0.192 N 
HETATM    4  C   UNL     1      42.113 -10.881   2.466  1.00  0.00     0.726 A 
HETATM    5  N   UNL     1      41.472 -12.077   2.320  1.00  0.00    -0.083 N 
HETATM    6  N   UNL     1      40.955 -12.212   1.084  1.00  0.00    -0.135 NA
HETATM    7  C   UNL     1      41.410 -11.095   0.482  1.00  0.00     0.199 A 
HETATM    8  N   UNL     1      42.105 -10.244   1.326  1.00  0.00    -0.041 NA
HETATM    9  C   UNL     1      41.286 -13.049   3.403  1.00  0.00     0.202 A 
HETATM   10  C   UNL     1      41.875 -12.547   4.715  1.00  0.00     0.062 A 
HETATM   11  H   UNL     1      43.103  -9.657   3.765  1.00  0.00     0.184 HD
ENDROOT
BRANCH   7  12
HETATM   12  C   UNL     1      41.205 -10.795  -0.932  1.00  0.00     0.017 A 
HETATM   13  C   UNL     1      41.315  -9.477  -1.408  1.00  0.00     0.052 A 
HETATM   14  C   UNL     1      41.095  -9.186  -2.756  1.00  0.00     0.069 A 
HETATM   15  C   UNL     1      40.770 -10.221  -3.636  1.00  0.00     0.037 A 
HETATM   16  C   UNL     1      40.657 -11.533  -3.178  1.00  0.00     0.004 A 
HETATM   17  C   UNL     1      40.872 -11.819  -1.830  1.00  0.00     0.015 A 
BRANCH  14  18
HETATM   18  O   UNL     1      41.167  -7.947  -3.334  1.00  0.00    -0.356 OA
HETATM   19  C   UNL     1      42.469  -7.447  -3.616  1.00  0.00     0.210 C 
ENDBRANCH  14  18
ENDBRANCH   7  12
BRANCH   9  20
HETATM   20  C   UNL     1      41.812 -14.414   2.965  1.00  0.00    -0.028 A 
HETATM   21  C   UNL     1      43.059 -14.555   2.326  1.00  0.00     0.012 A 
HETATM   22  C   UNL     1      43.509 -15.813   1.921  1.00  0.00     0.043 A 
HETATM   23  C   UNL     1      42.715 -16.931   2.142  1.00  0.00     0.116 A 
HETATM   24  F   UNL     1      43.147 -18.136   1.748  1.00  0.00    -0.206 F 
HETATM   25  C   UNL     1      41.476 -16.818   2.759  1.00  0.00     0.043 A 
HETATM   26  C   UNL     1      41.024 -15.563   3.168  1.00  0.00     0.012 A 
ENDBRANCH   9  20
BRANCH  10  27
HETATM   27  C   UNL     1      41.812 -13.454   5.882  1.00  0.00     0.249 C 
HETATM   28  N   UNL     1      40.621 -13.501   6.530  1.00  0.00    -0.366 N 
HETATM   29  H   UNL     1      39.834 -12.899   6.341  1.00  0.00     0.159 HD
HETATM   30  H   UNL     1      40.571 -14.101   7.345  1.00  0.00     0.159 HD
HETATM   31  O   UNL     1      42.768 -14.124   6.249  1.00  0.00    -0.268 OA
ENDBRANCH  10  27
TORSDOF 4
ENDMDL
MODEL 9
REMARK VINA RESULT:      -7.4      3.037      4.128
REMARK  4 active torsions:
REMARK  status: ('A' for Active; 'I' for Inactive)
REMARK    1  A    between atoms: C_7  and  C_8 
REMARK    2  A    between atoms: C_10  and  O_11 
REMARK    3  A    between atoms: C_17  and  C_18 
REMARK    4  A    between atoms: C_25  and  C_26 
REMARK       I    between atoms: C_26  and  N_27 
ROOT
HETATM    1  C   UNL     1      39.162 -10.838   7.226  1.00  0.00     0.070 C 
HETATM    2  C   UNL     1      40.006 -11.471   6.147  1.00  0.00     0.037 A 
HETATM    3  N   UNL     1      40.240 -12.834   6.288  1.00  0.00    -0.192 N 
HETATM    4  C   UNL     1      40.989 -13.550   5.431  1.00  0.00     0.726 A 
HETATM    5  N   UNL     1      41.551 -12.929   4.353  1.00  0.00    -0.083 N 
HETATM    6  N   UNL     1      42.340 -13.769   3.655  1.00  0.00    -0.135 NA
HETATM    7  C   UNL     1      42.132 -14.930   4.305  1.00  0.00     0.199 A 
HETATM    8  N   UNL     1      41.322 -14.813   5.424  1.00  0.00    -0.041 NA
HETATM    9  C   UNL     1      41.393 -11.502   4.050  1.00  0.00     0.202 A 
HETATM   10  C   UNL     1      40.546 -10.797   5.101  1.00  0.00     0.062 A 
HETATM   11  H   UNL     1      39.814 -13.307   7.081  1.00  0.00     0.184 HD
ENDROOT
BRANCH   7  12
HETATM   12  C   UNL     1      42.696 -16.209   3.882  1.00  0.00     0.017 A 
HETATM   13  C   UNL     1      43.219 -17.110   4.826  1.00  0.00     0.052 A 
HETATM   14  C   UNL     1      43.780 -18.323   4.419  1.00  0.00     0.069 A 
HETATM   15  C   UNL     1      43.812 -18.640   3.060  1.00  0.00     0.037 A 
HETATM   16  C   UNL     1      43.297 -17.756   2.111  1.00  0.00     0.004 A 
HETATM   17  C   UNL     1      42.742 -16.544   2.521  1.00  0.00     0.015 A 
BRANCH  14  18
HETATM   18  O   UNL     1      44.323 -19.273   5.241  1.00  0.00    -0.356 OA
HETATM   19  C   UNL     1      43.478 -19.799   6.258  1.00  0.00     0.210 C 
ENDBRANCH  14  18
ENDBRANCH   7  12
BRANCH   9  20
HETATM   20  C   UNL     1      40.884 -11.333   2.621  1.00  0.00    -0.028 A 
HETATM   21  C   UNL     1      39.618 -11.808   2.226  1.00  0.00     0.012 A 
HETATM   22  C   UNL     1      39.183 -11.655   0.909  1.00  0.00     0.043 A 
HETATM   23  C   UNL     1      40.010 -11.038  -0.021  1.00  0.00     0.116 A 
HETATM   24  F   UNL     1      39.592 -10.896  -1.286  1.00  0.00    -0.206 F 
HETATM   25  C   UNL     1      41.267 -10.570   0.339  1.00  0.00     0.043 A 
HETATM   26  C   UNL     1      41.705 -10.719   1.656  1.00  0.00     0.012 A 
ENDBRANCH   9  20
BRANCH  10  27
HETATM   27  C   UNL     1      40.253  -9.362   4.889  1.00  0.00     0.249 C 
HETATM   28  N   UNL     1      41.234  -8.499   5.259  1.00  0.00    -0.366 N 
HETATM   29  H   UNL     1      42.076  -8.755   5.750  1.00  0.00     0.159 HD
HETATM   30  H   UNL     1      41.037  -7.512   5.141  1.00  0.00     0.159 HD
HETATM   31  O   UNL     1      39.198  -8.966   4.414  1.00  0.00    -0.268 OA
ENDBRANCH  10  27
TORSDOF 4
ENDMDL
MODEL 10
REMARK VINA RESULT:      -7.3      4.347      6.414
REMARK  4 active torsions:
REMARK  status: ('A' for Active; 'I' for Inactive)
REMARK    1  A    between atoms: C_7  and  C_8 
REMARK    2  A    between atoms: C_10  and  O_11 
REMARK    3  A    between atoms: C_17  and  C_18 
REMARK    4  A    between atoms: C_25  and  C_26 
REMARK       I    between atoms: C_26  and  N_27 
ROOT
HETATM    1  C   UNL     1      42.934 -17.102   4.998  1.00  0.00     0.070 C 
HETATM    2  C   UNL     1      42.610 -15.797   4.313  1.00  0.00     0.037 A 
HETATM    3  N   UNL     1      42.134 -15.901   3.011  1.00  0.00    -0.192 N 
HETATM    4  C   UNL     1      41.820 -14.839   2.248  1.00  0.00     0.726 A 
HETATM    5  N   UNL     1      41.955 -13.582   2.764  1.00  0.00    -0.083 N 
HETATM    6  N   UNL     1      41.686 -12.638   1.841  1.00  0.00    -0.135 NA
HETATM    7  C   UNL     1      41.285 -13.393   0.799  1.00  0.00     0.199 A 
HETATM    8  N   UNL     1      41.386 -14.757   1.019  1.00  0.00    -0.041 NA
HETATM    9  C   UNL     1      42.430 -13.296   4.123  1.00  0.00     0.202 A 
HETATM   10  C   UNL     1      42.774 -14.574   4.877  1.00  0.00     0.062 A 
HETATM   11  H   UNL     1      42.018 -16.835   2.623  1.00  0.00     0.184 HD
ENDROOT
BRANCH   7  12
HETATM   12  C   UNL     1      40.782 -12.841  -0.455  1.00  0.00     0.017 A 
HETATM   13  C   UNL     1      40.187 -13.675  -1.418  1.00  0.00     0.052 A 
HETATM   14  C   UNL     1      39.726 -13.150  -2.628  1.00  0.00     0.069 A 
HETATM   15  C   UNL     1      39.854 -11.782  -2.874  1.00  0.00     0.037 A 
HETATM   16  C   UNL     1      40.441 -10.942  -1.928  1.00  0.00     0.004 A 
HETATM   17  C   UNL     1      40.905 -11.470  -0.723  1.00  0.00     0.015 A 
BRANCH  14  18
HETATM   18  O   UNL     1      39.138 -13.860  -3.640  1.00  0.00    -0.356 OA
HETATM   19  C   UNL     1      38.301 -14.945  -3.259  1.00  0.00     0.210 C 
ENDBRANCH  14  18
ENDBRANCH   7  12
BRANCH   9  20
HETATM   20  C   UNL     1      41.423 -12.400   4.840  1.00  0.00    -0.028 A 
HETATM   21  C   UNL     1      40.093 -12.809   5.058  1.00  0.00     0.012 A 
HETATM   22  C   UNL     1      39.188 -11.963   5.703  1.00  0.00     0.043 A 
HETATM   23  C   UNL     1      39.602 -10.706   6.123  1.00  0.00     0.116 A 
HETATM   24  F   UNL     1      38.731  -9.895   6.738  1.00  0.00    -0.206 F 
HETATM   25  C   UNL     1      40.905 -10.274   5.910  1.00  0.00     0.043 A 
HETATM   26  C   UNL     1      41.813 -11.117   5.269  1.00  0.00     0.012 A 
ENDBRANCH   9  20
BRANCH  10  27
HETATM   27  C   UNL     1      43.209 -14.438   6.284  1.00  0.00     0.249 C 
HETATM   28  N   UNL     1      42.272 -14.728   7.223  1.00  0.00    -0.366 N 
HETATM   29  H   UNL     1      41.301 -14.922   7.032  1.00  0.00     0.159 HD
HETATM   30  H   UNL     1      42.551 -14.617   8.191  1.00  0.00     0.159 HD
HETATM   31  O   UNL     1      44.338 -14.084   6.595  1.00  0.00    -0.268 OA
ENDBRANCH  10  27
TORSDOF 4
ENDMDL
