MODEL 1
REMARK VINA RESULT:      -8.1      0.000      0.000
REMARK  8 active torsions:
REMARK  status: ('A' for Active; 'I' for Inactive)
REMARK    1  A    between atoms: C_2  and  C_3 
REMARK    2  A    between atoms: C_3  and  N_4 
REMARK    3  A    between atoms: C_7  and  C_8 
REMARK       I    between atoms: C_8  and  N_9 
REMARK    4  A    between atoms: N_9  and  N_10 
REMARK       I    between atoms: N_10  and  C_11 
REMARK    5  A    between atoms: C_11  and  C_12 
REMARK    6  A    between atoms: C_12  and  O_13 
REMARK    7  A    between atoms: O_13  and  C_14 
REMARK    8  A    between atoms: C_23  and  C_24 
ROOT
HETATM    1  C   UNL     1      42.857 -11.156   6.388  1.00  0.00     0.273 C 
HETATM    2  N   UNL     1      42.790 -12.461   6.847  1.00  0.00    -0.263 N 
HETATM    3  O   UNL     1      43.011 -10.895   5.197  1.00  0.00    -0.266 OA
HETATM    4  H   UNL     1      42.377 -12.667   7.755  1.00  0.00     0.190 HD
ENDROOT
BRANCH   2   5
HETATM    5  N   UNL     1      42.733 -13.502   5.905  1.00  0.00    -0.265 N 
HETATM    6  C   UNL     1      41.510 -14.112   5.702  1.00  0.00     0.260 C 
HETATM    7  O   UNL     1      40.524 -13.858   6.397  1.00  0.00    -0.269 OA
HETATM    8  H   UNL     1      43.470 -13.516   5.201  1.00  0.00     0.190 HD
BRANCH   6   9
HETATM    9  C   UNL     1      41.492 -15.128   4.571  1.00  0.00     0.280 C 
BRANCH   9  10
HETATM   10  O   UNL     1      42.838 -15.344   4.160  1.00  0.00    -0.342 OA
BRANCH  10  11
HETATM   11  C   UNL     1      43.158 -16.621   3.787  1.00  0.00     0.069 A 
HETATM   12  C   UNL     1      42.599 -17.041   2.579  1.00  0.00     0.037 A 
HETATM   13  C   UNL     1      42.845 -18.326   2.089  1.00  0.00     0.009 A 
HETATM   14  C   UNL     1      43.642 -19.216   2.815  1.00  0.00    -0.062 A 
HETATM   15  C   UNL     1      43.935 -20.591   2.290  1.00  0.00     0.048 C 
HETATM   16  C   UNL     1      44.198 -18.794   4.028  1.00  0.00     0.009 A 
HETATM   17  C   UNL     1      43.953 -17.504   4.516  1.00  0.00     0.037 A 
ENDBRANCH  10  11
ENDBRANCH   9  10
ENDBRANCH   6   9
ENDBRANCH   2   5
BRANCH   1  18
HETATM   18  C   UNL     1      42.769 -10.166   7.447  1.00  0.00     0.077 A 
HETATM   19  C   UNL     1      41.634  -9.355   7.699  1.00  0.00     0.158 A 
HETATM   20  N   UNL     1      41.804  -8.509   8.710  1.00  0.00    -0.183 NA
HETATM   21  N   UNL     1      43.031  -8.810   9.175  1.00  0.00    -0.268 N 
HETATM   22  C   UNL     1      43.690  -9.753   8.406  1.00  0.00     0.052 A 
BRANCH  21  23
HETATM   23  C   UNL     1      43.528  -8.113  10.362  1.00  0.00     0.106 C 
HETATM   24  C   UNL     1      42.783  -6.789  10.541  1.00  0.00     0.034 C 
BRANCH  23  25
HETATM   25  C   UNL     1      43.454  -8.952  11.655  1.00  0.00     0.022 C 
HETATM   26  C   UNL     1      43.193  -8.111  12.900  1.00  0.00     0.007 C 
ENDBRANCH  23  25
ENDBRANCH  21  23
BRANCH  22  27
HETATM   27  C   UNL     1      45.157 -10.137   8.616  1.00  0.00     0.038 A 
HETATM   28  C   UNL     1      46.017 -10.598   7.467  1.00  0.00     0.011 A 
HETATM   29  C   UNL     1      46.256  -9.255   8.072  1.00  0.00     0.011 A 
ENDBRANCH  22  27
ENDBRANCH   1  18
TORSDOF 8
ENDMDL
MODEL 2
REMARK VINA RESULT:      -7.9      2.253      9.929
REMARK  8 active torsions:
REMARK  status: ('A' for Active; 'I' for Inactive)
REMARK    1  A    between atoms: C_2  and  C_3 
REMARK    2  A    between atoms: C_3  and  N_4 
REMARK    3  A    between atoms: C_7  and  C_8 
REMARK       I    between atoms: C_8  and  N_9 
REMARK    4  A    between atoms: N_9  and  N_10 
REMARK       I    between atoms: N_10  and  C_11 
REMARK    5  A    between atoms: C_11  and  C_12 
REMARK    6  A    between atoms: C_12  and  O_13 
REMARK    7  A    between atoms: O_13  and  C_14 
REMARK    8  A    between atoms: C_23  and  C_24 
ROOT
HETATM    1  C   UNL     1      43.822 -12.479   6.420  1.00  0.00     0.273 C 
HETATM    2  N   UNL     1      42.901 -11.873   7.258  1.00  0.00    -0.263 N 
HETATM    3  O   UNL     1      45.032 -12.323   6.566  1.00  0.00    -0.266 OA
HETATM    4  H   UNL     1      41.948 -12.229   7.320  1.00  0.00     0.190 HD
ENDROOT
BRANCH   2   5
HETATM    5  N   UNL     1      43.372 -11.199   8.397  1.00  0.00    -0.265 N 
HETATM    6  C   UNL     1      43.164  -9.835   8.463  1.00  0.00     0.260 C 
HETATM    7  O   UNL     1      42.700  -9.194   7.519  1.00  0.00    -0.269 OA
HETATM    8  H   UNL     1      43.517 -11.767   9.232  1.00  0.00     0.190 HD
BRANCH   6   9
HETATM    9  C   UNL     1      43.570  -9.198   9.783  1.00  0.00     0.280 C 
BRANCH   9  10
HETATM   10  O   UNL     1      43.112 -10.044  10.833  1.00  0.00    -0.342 OA
BRANCH  10  11
HETATM   11  C   UNL     1      42.765  -9.423  12.001  1.00  0.00     0.069 A 
HETATM   12  C   UNL     1      43.536  -8.306  12.328  1.00  0.00     0.037 A 
HETATM   13  C   UNL     1      43.287  -7.587  13.500  1.00  0.00     0.009 A 
HETATM   14  C   UNL     1      42.270  -7.990  14.371  1.00  0.00    -0.062 A 
HETATM   15  C   UNL     1      41.975  -7.213  15.620  1.00  0.00     0.048 C 
HETATM   16  C   UNL     1      41.501  -9.112  14.042  1.00  0.00     0.009 A 
HETATM   17  C   UNL     1      41.751  -9.829  12.866  1.00  0.00     0.037 A 
ENDBRANCH  10  11
ENDBRANCH   9  10
ENDBRANCH   6   9
ENDBRANCH   2   5
BRANCH   1  18
HETATM   18  C   UNL     1      43.210 -13.260   5.359  1.00  0.00     0.077 A 
HETATM   19  C   UNL     1      42.661 -12.714   4.171  1.00  0.00     0.158 A 
HETATM   20  N   UNL     1      42.139 -13.630   3.362  1.00  0.00    -0.183 NA
HETATM   21  N   UNL     1      42.406 -14.794   3.983  1.00  0.00    -0.268 N 
HETATM   22  C   UNL     1      42.987 -14.627   5.228  1.00  0.00     0.052 A 
BRANCH  21  23
HETATM   23  C   UNL     1      42.036 -16.048   3.326  1.00  0.00     0.106 C 
HETATM   24  C   UNL     1      40.747 -15.857   2.524  1.00  0.00     0.034 C 
BRANCH  23  25
HETATM   25  C   UNL     1      43.147 -16.634   2.428  1.00  0.00     0.022 C 
HETATM   26  C   UNL     1      43.475 -18.087   2.754  1.00  0.00     0.007 C 
ENDBRANCH  23  25
ENDBRANCH  21  23
BRANCH  22  27
HETATM   27  C   UNL     1      43.228 -15.779   6.208  1.00  0.00     0.038 A 
HETATM   28  C   UNL     1      43.050 -15.593   7.693  1.00  0.00     0.011 A 
HETATM   29  C   UNL     1      42.063 -16.413   6.931  1.00  0.00     0.011 A 
ENDBRANCH  22  27
ENDBRANCH   1  18
TORSDOF 8
ENDMDL
MODEL 3
REMARK VINA RESULT:      -7.8      5.974      8.492
REMARK  8 active torsions:
REMARK  status: ('A' for Active; 'I' for Inactive)
REMARK    1  A    between atoms: C_2  and  C_3 
REMARK    2  A    between atoms: C_3  and  N_4 
REMARK    3  A    between atoms: C_7  and  C_8 
REMARK       I    between atoms: C_8  and  N_9 
REMARK    4  A    between atoms: N_9  and  N_10 
REMARK       I    between atoms: N_10  and  C_11 
REMARK    5  A    between atoms: C_11  and  C_12 
REMARK    6  A    between atoms: C_12  and  O_13 
REMARK    7  A    between atoms: O_13  and  C_14 
REMARK    8  A    between atoms: C_23  and  C_24 
ROOT
HETATM    1  C   UNL     1      40.040 -15.257   2.994  1.00  0.00     0.273 C 
HETATM    2  N   UNL     1      39.478 -14.089   3.482  1.00  0.00    -0.263 N 
HETATM    3  O   UNL     1      39.752 -15.700   1.885  1.00  0.00    -0.266 OA
HETATM    4  H   UNL     1      39.925 -13.581   4.244  1.00  0.00     0.190 HD
ENDROOT
BRANCH   2   5
HETATM    5  N   UNL     1      38.686 -13.313   2.619  1.00  0.00    -0.265 N 
HETATM    6  C   UNL     1      38.987 -11.969   2.513  1.00  0.00     0.260 C 
HETATM    7  O   UNL     1      39.828 -11.424   3.230  1.00  0.00    -0.269 OA
HETATM    8  H   UNL     1      38.188 -13.818   1.886  1.00  0.00     0.190 HD
BRANCH   6   9
HETATM    9  C   UNL     1      38.185 -11.224   1.457  1.00  0.00     0.280 C 
BRANCH   9  10
HETATM   10  O   UNL     1      38.991 -11.128   0.287  1.00  0.00    -0.342 OA
BRANCH  10  11
HETATM   11  C   UNL     1      38.697 -12.002  -0.723  1.00  0.00     0.069 A 
HETATM   12  C   UNL     1      39.626 -13.027  -0.906  1.00  0.00     0.037 A 
HETATM   13  C   UNL     1      39.444 -13.983  -1.909  1.00  0.00     0.009 A 
HETATM   14  C   UNL     1      38.334 -13.912  -2.757  1.00  0.00    -0.062 A 
HETATM   15  C   UNL     1      38.112 -14.945  -3.822  1.00  0.00     0.048 C 
HETATM   16  C   UNL     1      37.406 -12.881  -2.573  1.00  0.00     0.009 A 
HETATM   17  C   UNL     1      37.588 -11.926  -1.564  1.00  0.00     0.037 A 
ENDBRANCH  10  11
ENDBRANCH   9  10
ENDBRANCH   6   9
ENDBRANCH   2   5
BRANCH   1  18
HETATM   18  C   UNL     1      40.948 -15.896   3.931  1.00  0.00     0.077 A 
HETATM   19  C   UNL     1      40.618 -16.236   5.267  1.00  0.00     0.158 A 
HETATM   20  N   UNL     1      41.624 -16.793   5.934  1.00  0.00    -0.183 NA
HETATM   21  N   UNL     1      42.603 -16.887   5.014  1.00  0.00    -0.268 N 
HETATM   22  C   UNL     1      42.276 -16.294   3.807  1.00  0.00     0.052 A 
BRANCH  21  23
HETATM   23  C   UNL     1      43.861 -17.536   5.383  1.00  0.00     0.106 C 
HETATM   24  C   UNL     1      44.661 -16.629   6.321  1.00  0.00     0.034 C 
BRANCH  23  25
HETATM   25  C   UNL     1      43.680 -18.935   6.012  1.00  0.00     0.022 C 
HETATM   26  C   UNL     1      44.178 -20.062   5.115  1.00  0.00     0.007 C 
ENDBRANCH  23  25
ENDBRANCH  21  23
BRANCH  22  27
HETATM   27  C   UNL     1      43.273 -16.110   2.660  1.00  0.00     0.038 A 
HETATM   28  C   UNL     1      42.806 -15.945   1.237  1.00  0.00     0.011 A 
HETATM   29  C   UNL     1      43.383 -14.775   1.961  1.00  0.00     0.011 A 
ENDBRANCH  22  27
ENDBRANCH   1  18
TORSDOF 8
ENDMDL
MODEL 4
REMARK VINA RESULT:      -7.5      2.107      9.591
REMARK  8 active torsions:
REMARK  status: ('A' for Active; 'I' for Inactive)
REMARK    1  A    between atoms: C_2  and  C_3 
REMARK    2  A    between atoms: C_3  and  N_4 
REMARK    3  A    between atoms: C_7  and  C_8 
REMARK       I    between atoms: C_8  and  N_9 
REMARK    4  A    between atoms: N_9  and  N_10 
REMARK       I    between atoms: N_10  and  C_11 
REMARK    5  A    between atoms: C_11  and  C_12 
REMARK    6  A    between atoms: C_12  and  O_13 
REMARK    7  A    between atoms: O_13  and  C_14 
REMARK    8  A    between atoms: C_23  and  C_24 
ROOT
HETATM    1  C   UNL     1      42.609 -12.084   5.987  1.00  0.00     0.273 C 
HETATM    2  N   UNL     1      43.556 -12.506   6.905  1.00  0.00    -0.263 N 
HETATM    3  O   UNL     1      41.874 -11.124   6.209  1.00  0.00    -0.266 OA
HETATM    4  H   UNL     1      44.337 -13.089   6.608  1.00  0.00     0.190 HD
ENDROOT
BRANCH   2   5
HETATM    5  N   UNL     1      43.787 -11.716   8.043  1.00  0.00    -0.265 N 
HETATM    6  C   UNL     1      44.964 -10.994   8.090  1.00  0.00     0.260 C 
HETATM    7  O   UNL     1      45.847 -11.120   7.240  1.00  0.00    -0.269 OA
HETATM    8  H   UNL     1      42.964 -11.450   8.584  1.00  0.00     0.190 HD
BRANCH   6   9
HETATM    9  C   UNL     1      45.081 -10.054   9.280  1.00  0.00     0.280 C 
BRANCH   9  10
HETATM   10  O   UNL     1      43.827  -9.397   9.439  1.00  0.00    -0.342 OA
BRANCH  10  11
HETATM   11  C   UNL     1      43.352  -9.303  10.718  1.00  0.00     0.069 A 
HETATM   12  C   UNL     1      43.309  -8.009  11.238  1.00  0.00     0.037 A 
HETATM   13  C   UNL     1      42.848  -7.778  12.536  1.00  0.00     0.009 A 
HETATM   14  C   UNL     1      42.440  -8.847  13.340  1.00  0.00    -0.062 A 
HETATM   15  C   UNL     1      41.920  -8.613  14.728  1.00  0.00     0.048 C 
HETATM   16  C   UNL     1      42.488 -10.145  12.817  1.00  0.00     0.009 A 
HETATM   17  C   UNL     1      42.947 -10.373  11.514  1.00  0.00     0.037 A 
ENDBRANCH  10  11
ENDBRANCH   9  10
ENDBRANCH   6   9
ENDBRANCH   2   5
BRANCH   1  18
HETATM   18  C   UNL     1      42.559 -12.904   4.789  1.00  0.00     0.077 A 
HETATM   19  C   UNL     1      43.218 -12.594   3.573  1.00  0.00     0.158 A 
HETATM   20  N   UNL     1      43.004 -13.488   2.613  1.00  0.00    -0.183 NA
HETATM   21  N   UNL     1      42.258 -14.432   3.218  1.00  0.00    -0.268 N 
HETATM   22  C   UNL     1      41.898 -14.096   4.511  1.00  0.00     0.052 A 
BRANCH  21  23
HETATM   23  C   UNL     1      41.891 -15.633   2.467  1.00  0.00     0.106 C 
HETATM   24  C   UNL     1      40.928 -15.268   1.334  1.00  0.00     0.034 C 
BRANCH  23  25
HETATM   25  C   UNL     1      43.101 -16.416   1.913  1.00  0.00     0.022 C 
HETATM   26  C   UNL     1      43.249 -17.802   2.531  1.00  0.00     0.007 C 
ENDBRANCH  23  25
ENDBRANCH  21  23
BRANCH  22  27
HETATM   27  C   UNL     1      40.911 -14.912   5.351  1.00  0.00     0.038 A 
HETATM   28  C   UNL     1      41.076 -16.400   5.525  1.00  0.00     0.011 A 
HETATM   29  C   UNL     1      41.344 -15.491   6.678  1.00  0.00     0.011 A 
ENDBRANCH  22  27
ENDBRANCH   1  18
TORSDOF 8
ENDMDL
MODEL 5
REMARK VINA RESULT:      -7.4      2.005      9.709
REMARK  8 active torsions:
REMARK  status: ('A' for Active; 'I' for Inactive)
REMARK    1  A    between atoms: C_2  and  C_3 
REMARK    2  A    between atoms: C_3  and  N_4 
REMARK    3  A    between atoms: C_7  and  C_8 
REMARK       I    between atoms: C_8  and  N_9 
REMARK    4  A    between atoms: N_9  and  N_10 
REMARK       I    between atoms: N_10  and  C_11 
REMARK    5  A    between atoms: C_11  and  C_12 
REMARK    6  A    between atoms: C_12  and  O_13 
REMARK    7  A    between atoms: O_13  and  C_14 
REMARK    8  A    between atoms: C_23  and  C_24 
ROOT
HETATM    1  C   UNL     1      42.661 -13.087   5.132  1.00  0.00     0.273 C 
HETATM    2  N   UNL     1      43.865 -12.491   5.471  1.00  0.00    -0.263 N 
HETATM    3  O   UNL     1      41.582 -12.591   5.446  1.00  0.00    -0.266 OA
HETATM    4  H   UNL     1      44.719 -12.733   4.971  1.00  0.00     0.190 HD
ENDROOT
BRANCH   2   5
HETATM    5  N   UNL     1      43.841 -11.208   6.043  1.00  0.00    -0.265 N 
HETATM    6  C   UNL     1      44.072 -11.112   7.402  1.00  0.00     0.260 C 
HETATM    7  O   UNL     1      44.173 -12.104   8.124  1.00  0.00    -0.269 OA
HETATM    8  H   UNL     1      43.998 -10.426   5.408  1.00  0.00     0.190 HD
BRANCH   6   9
HETATM    9  C   UNL     1      44.173  -9.687   7.925  1.00  0.00     0.280 C 
BRANCH   9  10
HETATM   10  O   UNL     1      42.907  -9.337   8.476  1.00  0.00    -0.342 OA
BRANCH  10  11
HETATM   11  C   UNL     1      42.923  -8.797   9.732  1.00  0.00     0.069 A 
HETATM   12  C   UNL     1      43.513  -9.598  10.712  1.00  0.00     0.037 A 
HETATM   13  C   UNL     1      43.588  -9.163  12.037  1.00  0.00     0.009 A 
HETATM   14  C   UNL     1      43.054  -7.924  12.404  1.00  0.00    -0.062 A 
HETATM   15  C   UNL     1      43.149  -7.433  13.819  1.00  0.00     0.048 C 
HETATM   16  C   UNL     1      42.460  -7.125  11.420  1.00  0.00     0.009 A 
HETATM   17  C   UNL     1      42.390  -7.560  10.092  1.00  0.00     0.037 A 
ENDBRANCH  10  11
ENDBRANCH   9  10
ENDBRANCH   6   9
ENDBRANCH   2   5
BRANCH   1  18
HETATM   18  C   UNL     1      42.820 -14.345   4.422  1.00  0.00     0.077 A 
HETATM   19  C   UNL     1      43.037 -14.460   3.026  1.00  0.00     0.158 A 
HETATM   20  N   UNL     1      43.129 -15.718   2.608  1.00  0.00    -0.183 NA
HETATM   21  N   UNL     1      43.042 -16.438   3.743  1.00  0.00    -0.268 N 
HETATM   22  C   UNL     1      42.782 -15.665   4.861  1.00  0.00     0.052 A 
BRANCH  21  23
HETATM   23  C   UNL     1      43.185 -17.892   3.670  1.00  0.00     0.106 C 
HETATM   24  C   UNL     1      43.146 -18.349   2.210  1.00  0.00     0.034 C 
BRANCH  23  25
HETATM   25  C   UNL     1      44.451 -18.431   4.370  1.00  0.00     0.022 C 
HETATM   26  C   UNL     1      44.203 -19.717   5.149  1.00  0.00     0.007 C 
ENDBRANCH  23  25
ENDBRANCH  21  23
BRANCH  22  27
HETATM   27  C   UNL     1      42.464 -16.254   6.238  1.00  0.00     0.038 A 
HETATM   28  C   UNL     1      43.550 -16.489   7.257  1.00  0.00     0.011 A 
HETATM   29  C   UNL     1      42.566 -15.388   7.472  1.00  0.00     0.011 A 
ENDBRANCH  22  27
ENDBRANCH   1  18
TORSDOF 8
ENDMDL
MODEL 6
REMARK VINA RESULT:      -7.3      1.646      2.007
REMARK  8 active torsions:
REMARK  status: ('A' for Active; 'I' for Inactive)
REMARK    1  A    between atoms: C_2  and  C_3 
REMARK    2  A    between atoms: C_3  and  N_4 
REMARK    3  A    between atoms: C_7  and  C_8 
REMARK       I    between atoms: C_8  and  N_9 
REMARK    4  A    between atoms: N_9  and  N_10 
REMARK       I    between atoms: N_10  and  C_11 
REMARK    5  A    between atoms: C_11  and  C_12 
REMARK    6  A    between atoms: C_12  and  O_13 
REMARK    7  A    between atoms: O_13  and  C_14 
REMARK    8  A    between atoms: C_23  and  C_24 
ROOT
HETATM    1  C   UNL     1      42.301 -11.931   5.904  1.00  0.00     0.273 C 
HETATM    2  N   UNL     1      41.649 -11.550   4.743  1.00  0.00    -0.263 N 
HETATM    3  O   UNL     1      42.638 -13.095   6.105  1.00  0.00    -0.266 OA
HETATM    4  H   UNL     1      41.639 -10.573   4.455  1.00  0.00     0.190 HD
ENDROOT
BRANCH   2   5
HETATM    5  N   UNL     1      41.519 -12.489   3.707  1.00  0.00    -0.265 N 
HETATM    6  C   UNL     1      40.262 -13.018   3.479  1.00  0.00     0.260 C 
HETATM    7  O   UNL     1      39.307 -12.786   4.221  1.00  0.00    -0.269 OA
HETATM    8  H   UNL     1      42.239 -12.470   2.985  1.00  0.00     0.190 HD
BRANCH   6   9
HETATM    9  C   UNL     1      40.168 -13.916   2.255  1.00  0.00     0.280 C 
BRANCH   9  10
HETATM   10  O   UNL     1      39.889 -15.237   2.707  1.00  0.00    -0.342 OA
BRANCH  10  11
HETATM   11  C   UNL     1      40.953 -15.947   3.193  1.00  0.00     0.069 A 
HETATM   12  C   UNL     1      41.774 -16.521   2.220  1.00  0.00     0.037 A 
HETATM   13  C   UNL     1      42.891 -17.275   2.586  1.00  0.00     0.009 A 
HETATM   14  C   UNL     1      43.191 -17.482   3.935  1.00  0.00    -0.062 A 
HETATM   15  C   UNL     1      44.401 -18.270   4.343  1.00  0.00     0.048 C 
HETATM   16  C   UNL     1      42.364 -16.910   4.908  1.00  0.00     0.009 A 
HETATM   17  C   UNL     1      41.247 -16.150   4.540  1.00  0.00     0.037 A 
ENDBRANCH  10  11
ENDBRANCH   9  10
ENDBRANCH   6   9
ENDBRANCH   2   5
BRANCH   1  18
HETATM   18  C   UNL     1      42.497 -10.839   6.841  1.00  0.00     0.077 A 
HETATM   19  C   UNL     1      41.554  -9.810   7.088  1.00  0.00     0.158 A 
HETATM   20  N   UNL     1      41.972  -8.912   7.973  1.00  0.00    -0.183 NA
HETATM   21  N   UNL     1      43.169  -9.386   8.368  1.00  0.00    -0.268 N 
HETATM   22  C   UNL     1      43.570 -10.507   7.664  1.00  0.00     0.052 A 
BRANCH  21  23
HETATM   23  C   UNL     1      43.900  -8.675   9.417  1.00  0.00     0.106 C 
HETATM   24  C   UNL     1      43.369  -7.246   9.549  1.00  0.00     0.034 C 
BRANCH  23  25
HETATM   25  C   UNL     1      43.874  -9.388  10.787  1.00  0.00     0.022 C 
HETATM   26  C   UNL     1      43.559  -8.447  11.944  1.00  0.00     0.007 C 
ENDBRANCH  23  25
ENDBRANCH  21  23
BRANCH  22  27
HETATM   27  C   UNL     1      44.960 -11.134   7.796  1.00  0.00     0.038 A 
HETATM   28  C   UNL     1      45.803 -11.431   6.583  1.00  0.00     0.011 A 
HETATM   29  C   UNL     1      46.192 -10.313   7.492  1.00  0.00     0.011 A 
ENDBRANCH  22  27
ENDBRANCH   1  18
TORSDOF 8
ENDMDL
MODEL 7
REMARK VINA RESULT:      -7.0     17.807     19.864
REMARK  8 active torsions:
REMARK  status: ('A' for Active; 'I' for Inactive)
REMARK    1  A    between atoms: C_2  and  C_3 
REMARK    2  A    between atoms: C_3  and  N_4 
REMARK    3  A    between atoms: C_7  and  C_8 
REMARK       I    between atoms: C_8  and  N_9 
REMARK    4  A    between atoms: N_9  and  N_10 
REMARK       I    between atoms: N_10  and  C_11 
REMARK    5  A    between atoms: C_11  and  C_12 
REMARK    6  A    between atoms: C_12  and  O_13 
REMARK    7  A    between atoms: O_13  and  C_14 
REMARK    8  A    between atoms: C_23  and  C_24 
ROOT
HETATM    1  C   UNL     1      42.291 -29.713   2.333  1.00  0.00     0.273 C 
HETATM    2  N   UNL     1      43.578 -29.519   2.809  1.00  0.00    -0.263 N 
HETATM    3  O   UNL     1      41.867 -29.111   1.349  1.00  0.00    -0.266 OA
HETATM    4  H   UNL     1      44.012 -30.212   3.417  1.00  0.00     0.190 HD
ENDROOT
BRANCH   2   5
HETATM    5  N   UNL     1      44.464 -28.739   2.048  1.00  0.00    -0.265 N 
HETATM    6  C   UNL     1      45.443 -29.401   1.332  1.00  0.00     0.260 C 
HETATM    7  O   UNL     1      45.630 -30.614   1.440  1.00  0.00    -0.269 OA
HETATM    8  H   UNL     1      44.142 -27.806   1.792  1.00  0.00     0.190 HD
BRANCH   6   9
HETATM    9  C   UNL     1      46.273 -28.508   0.423  1.00  0.00     0.280 C 
BRANCH   9  10
HETATM   10  O   UNL     1      45.376 -27.801  -0.427  1.00  0.00    -0.342 OA
BRANCH  10  11
HETATM   11  C   UNL     1      45.012 -28.435  -1.583  1.00  0.00     0.069 A 
HETATM   12  C   UNL     1      45.647 -27.970  -2.737  1.00  0.00     0.037 A 
HETATM   13  C   UNL     1      45.359 -28.531  -3.983  1.00  0.00     0.009 A 
HETATM   14  C   UNL     1      44.413 -29.555  -4.094  1.00  0.00    -0.062 A 
HETATM   15  C   UNL     1      44.112 -30.184  -5.422  1.00  0.00     0.048 C 
HETATM   16  C   UNL     1      43.776 -30.016  -2.936  1.00  0.00     0.009 A 
HETATM   17  C   UNL     1      44.069 -29.456  -1.687  1.00  0.00     0.037 A 
ENDBRANCH  10  11
ENDBRANCH   9  10
ENDBRANCH   6   9
ENDBRANCH   2   5
BRANCH   1  18
HETATM   18  C   UNL     1      41.516 -30.647   3.130  1.00  0.00     0.077 A 
HETATM   19  C   UNL     1      41.177 -30.456   4.493  1.00  0.00     0.158 A 
HETATM   20  N   UNL     1      40.480 -31.461   5.010  1.00  0.00    -0.183 NA
HETATM   21  N   UNL     1      40.294 -32.291   3.966  1.00  0.00    -0.268 N 
HETATM   22  C   UNL     1      40.960 -31.886   2.822  1.00  0.00     0.052 A 
BRANCH  21  23
HETATM   23  C   UNL     1      39.482 -33.494   4.153  1.00  0.00     0.106 C 
HETATM   24  C   UNL     1      39.647 -34.018   5.582  1.00  0.00     0.034 C 
BRANCH  23  25
HETATM   25  C   UNL     1      37.988 -33.296   3.821  1.00  0.00     0.022 C 
HETATM   26  C   UNL     1      37.078 -33.467   5.032  1.00  0.00     0.007 C 
ENDBRANCH  23  25
ENDBRANCH  21  23
BRANCH  22  27
HETATM   27  C   UNL     1      41.055 -32.738   1.554  1.00  0.00     0.038 A 
HETATM   28  C   UNL     1      42.260 -32.666   0.652  1.00  0.00     0.011 A 
HETATM   29  C   UNL     1      42.038 -33.884   1.485  1.00  0.00     0.011 A 
ENDBRANCH  22  27
ENDBRANCH   1  18
TORSDOF 8
ENDMDL
MODEL 8
REMARK VINA RESULT:      -6.9      6.090      9.068
REMARK  8 active torsions:
REMARK  status: ('A' for Active; 'I' for Inactive)
REMARK    1  A    between atoms: C_2  and  C_3 
REMARK    2  A    between atoms: C_3  and  N_4 
REMARK    3  A    between atoms: C_7  and  C_8 
REMARK       I    between atoms: C_8  and  N_9 
REMARK    4  A    between atoms: N_9  and  N_10 
REMARK       I    between atoms: N_10  and  C_11 
REMARK    5  A    between atoms: C_11  and  C_12 
REMARK    6  A    between atoms: C_12  and  O_13 
REMARK    7  A    between atoms: O_13  and  C_14 
REMARK    8  A    between atoms: C_23  and  C_24 
ROOT
HETATM    1  C   UNL     1      40.203 -14.031  -0.183  1.00  0.00     0.273 C 
HETATM    2  N   UNL     1      41.294 -13.598   0.552  1.00  0.00    -0.263 N 
HETATM    3  O   UNL     1      39.735 -15.158  -0.045  1.00  0.00    -0.266 OA
HETATM    4  H   UNL     1      41.486 -12.602   0.651  1.00  0.00     0.190 HD
ENDROOT
BRANCH   2   5
HETATM    5  N   UNL     1      41.769 -14.414   1.592  1.00  0.00    -0.265 N 
HETATM    6  C   UNL     1      41.666 -13.928   2.881  1.00  0.00     0.260 C 
HETATM    7  O   UNL     1      41.294 -12.779   3.124  1.00  0.00    -0.269 OA
HETATM    8  H   UNL     1      41.835 -15.411   1.391  1.00  0.00     0.190 HD
BRANCH   6   9
HETATM    9  C   UNL     1      42.067 -14.919   3.963  1.00  0.00     0.280 C 
BRANCH   9  10
HETATM   10  O   UNL     1      43.373 -15.395   3.654  1.00  0.00    -0.342 OA
BRANCH  10  11
HETATM   11  C   UNL     1      43.553 -16.750   3.714  1.00  0.00     0.069 A 
HETATM   12  C   UNL     1      43.166 -17.449   2.570  1.00  0.00     0.037 A 
HETATM   13  C   UNL     1      43.295 -18.839   2.507  1.00  0.00     0.009 A 
HETATM   14  C   UNL     1      43.795 -19.551   3.601  1.00  0.00    -0.062 A 
HETATM   15  C   UNL     1      43.962 -21.041   3.539  1.00  0.00     0.048 C 
HETATM   16  C   UNL     1      44.178 -18.847   4.749  1.00  0.00     0.009 A 
HETATM   17  C   UNL     1      44.053 -17.454   4.808  1.00  0.00     0.037 A 
ENDBRANCH  10  11
ENDBRANCH   9  10
ENDBRANCH   6   9
ENDBRANCH   2   5
BRANCH   1  18
HETATM   18  C   UNL     1      39.718 -13.044  -1.133  1.00  0.00     0.077 A 
HETATM   19  C   UNL     1      40.250 -12.847  -2.431  1.00  0.00     0.158 A 
HETATM   20  N   UNL     1      39.653 -11.869  -3.104  1.00  0.00    -0.183 NA
HETATM   21  N   UNL     1      38.673 -11.464  -2.274  1.00  0.00    -0.268 N 
HETATM   22  C   UNL     1      38.711 -12.088  -1.040  1.00  0.00     0.052 A 
BRANCH  21  23
HETATM   23  C   UNL     1      37.744 -10.428  -2.728  1.00  0.00     0.106 C 
HETATM   24  C   UNL     1      38.356  -9.654  -3.899  1.00  0.00     0.034 C 
BRANCH  23  25
HETATM   25  C   UNL     1      36.348 -10.966  -3.110  1.00  0.00     0.022 C 
HETATM   26  C   UNL     1      35.222  -9.992  -2.780  1.00  0.00     0.007 C 
ENDBRANCH  23  25
ENDBRANCH  21  23
BRANCH  22  27
HETATM   27  C   UNL     1      37.821 -11.682   0.138  1.00  0.00     0.038 A 
HETATM   28  C   UNL     1      38.355 -11.654   1.548  1.00  0.00     0.011 A 
HETATM   29  C   UNL     1      38.058 -10.369   0.848  1.00  0.00     0.011 A 
ENDBRANCH  22  27
ENDBRANCH   1  18
TORSDOF 8
ENDMDL
MODEL 9
REMARK VINA RESULT:      -6.9      1.981      2.544
REMARK  8 active torsions:
REMARK  status: ('A' for Active; 'I' for Inactive)
REMARK    1  A    between atoms: C_2  and  C_3 
REMARK    2  A    between atoms: C_3  and  N_4 
REMARK    3  A    between atoms: C_7  and  C_8 
REMARK       I    between atoms: C_8  and  N_9 
REMARK    4  A    between atoms: N_9  and  N_10 
REMARK       I    between atoms: N_10  and  C_11 
REMARK    5  A    between atoms: C_11  and  C_12 
REMARK    6  A    between atoms: C_12  and  O_13 
REMARK    7  A    between atoms: O_13  and  C_14 
REMARK    8  A    between atoms: C_23  and  C_24 
ROOT
HETATM    1  C   UNL     1      41.720  -9.724   7.455  1.00  0.00     0.273 C 
HETATM    2  N   UNL     1      41.160 -10.975   7.257  1.00  0.00    -0.263 N 
HETATM    3  O   UNL     1      42.620  -9.296   6.737  1.00  0.00    -0.266 OA
HETATM    4  H   UNL     1      40.245 -11.198   7.647  1.00  0.00     0.190 HD
ENDROOT
BRANCH   2   5
HETATM    5  N   UNL     1      41.522 -11.698   6.108  1.00  0.00    -0.265 N 
HETATM    6  C   UNL     1      40.733 -12.778   5.759  1.00  0.00     0.260 C 
HETATM    7  O   UNL     1      39.821 -13.186   6.480  1.00  0.00    -0.269 OA
HETATM    8  H   UNL     1      42.102 -11.208   5.428  1.00  0.00     0.190 HD
BRANCH   6   9
HETATM    9  C   UNL     1      41.099 -13.424   4.432  1.00  0.00     0.280 C 
BRANCH   9  10
HETATM   10  O   UNL     1      42.470 -13.803   4.496  1.00  0.00    -0.342 OA
BRANCH  10  11
HETATM   11  C   UNL     1      42.762 -15.081   4.107  1.00  0.00     0.069 A 
HETATM   12  C   UNL     1      42.682 -15.314   2.733  1.00  0.00     0.037 A 
HETATM   13  C   UNL     1      42.952 -16.580   2.209  1.00  0.00     0.009 A 
HETATM   14  C   UNL     1      43.289 -17.638   3.058  1.00  0.00    -0.062 A 
HETATM   15  C   UNL     1      43.605 -18.997   2.507  1.00  0.00     0.048 C 
HETATM   16  C   UNL     1      43.365 -17.403   4.436  1.00  0.00     0.009 A 
HETATM   17  C   UNL     1      43.097 -16.132   4.959  1.00  0.00     0.037 A 
ENDBRANCH  10  11
ENDBRANCH   9  10
ENDBRANCH   6   9
ENDBRANCH   2   5
BRANCH   1  18
HETATM   18  C   UNL     1      41.165  -9.017   8.597  1.00  0.00     0.077 A 
HETATM   19  C   UNL     1      40.093  -8.094   8.528  1.00  0.00     0.158 A 
HETATM   20  N   UNL     1      39.779  -7.561   9.704  1.00  0.00    -0.183 NA
HETATM   21  N   UNL     1      40.601  -8.188  10.567  1.00  0.00    -0.268 N 
HETATM   22  C   UNL     1      41.510  -9.024   9.945  1.00  0.00     0.052 A 
BRANCH  21  23
HETATM   23  C   UNL     1      40.479  -7.900  11.997  1.00  0.00     0.106 C 
HETATM   24  C   UNL     1      40.240  -6.403  12.210  1.00  0.00     0.034 C 
BRANCH  23  25
HETATM   25  C   UNL     1      39.386  -8.726  12.708  1.00  0.00     0.022 C 
HETATM   26  C   UNL     1      39.716 -10.212  12.789  1.00  0.00     0.007 C 
ENDBRANCH  23  25
ENDBRANCH  21  23
BRANCH  22  27
HETATM   27  C   UNL     1      42.662  -9.715  10.680  1.00  0.00     0.038 A 
HETATM   28  C   UNL     1      44.062  -9.709  10.120  1.00  0.00     0.011 A 
HETATM   29  C   UNL     1      43.750  -8.889  11.327  1.00  0.00     0.011 A 
ENDBRANCH  22  27
ENDBRANCH   1  18
TORSDOF 8
ENDMDL
MODEL 10
REMARK VINA RESULT:      -6.7      4.832      8.785
REMARK  8 active torsions:
REMARK  status: ('A' for Active; 'I' for Inactive)
REMARK    1  A    between atoms: C_2  and  C_3 
REMARK    2  A    between atoms: C_3  and  N_4 
REMARK    3  A    between atoms: C_7  and  C_8 
REMARK       I    between atoms: C_8  and  N_9 
REMARK    4  A    between atoms: N_9  and  N_10 
REMARK       I    between atoms: N_10  and  C_11 
REMARK    5  A    between atoms: C_11  and  C_12 
REMARK    6  A    between atoms: C_12  and  O_13 
REMARK    7  A    between atoms: O_13  and  C_14 
REMARK    8  A    between atoms: C_23  and  C_24 
ROOT
HETATM    1  C   UNL     1      41.840 -14.608   4.787  1.00  0.00     0.273 C 
HETATM    2  N   UNL     1      42.461 -13.519   4.197  1.00  0.00    -0.263 N 
HETATM    3  O   UNL     1      40.677 -14.555   5.180  1.00  0.00    -0.266 OA
HETATM    4  H   UNL     1      43.292 -13.650   3.622  1.00  0.00     0.190 HD
ENDROOT
BRANCH   2   5
HETATM    5  N   UNL     1      41.688 -12.386   3.898  1.00  0.00    -0.265 N 
HETATM    6  C   UNL     1      42.309 -11.349   3.228  1.00  0.00     0.260 C 
HETATM    7  O   UNL     1      43.520 -11.343   3.003  1.00  0.00    -0.269 OA
HETATM    8  H   UNL     1      40.678 -12.520   3.874  1.00  0.00     0.190 HD
BRANCH   6   9
HETATM    9  C   UNL     1      41.379 -10.220   2.812  1.00  0.00     0.280 C 
BRANCH   9  10
HETATM   10  O   UNL     1      41.502 -10.052   1.404  1.00  0.00    -0.342 OA
BRANCH  10  11
HETATM   11  C   UNL     1      40.714 -10.858   0.628  1.00  0.00     0.069 A 
HETATM   12  C   UNL     1      39.513 -10.283   0.209  1.00  0.00     0.037 A 
HETATM   13  C   UNL     1      38.618 -11.004  -0.584  1.00  0.00     0.009 A 
HETATM   14  C   UNL     1      38.905 -12.322  -0.954  1.00  0.00    -0.062 A 
HETATM   15  C   UNL     1      37.964 -13.100  -1.826  1.00  0.00     0.048 C 
HETATM   16  C   UNL     1      40.109 -12.896  -0.529  1.00  0.00     0.009 A 
HETATM   17  C   UNL     1      41.007 -12.171   0.263  1.00  0.00     0.037 A 
ENDBRANCH  10  11
ENDBRANCH   9  10
ENDBRANCH   6   9
ENDBRANCH   2   5
BRANCH   1  18
HETATM   18  C   UNL     1      42.706 -15.767   4.918  1.00  0.00     0.077 A 
HETATM   19  C   UNL     1      43.439 -16.096   6.086  1.00  0.00     0.158 A 
HETATM   20  N   UNL     1      44.177 -17.192   5.954  1.00  0.00    -0.183 NA
HETATM   21  N   UNL     1      43.878 -17.632   4.717  1.00  0.00    -0.268 N 
HETATM   22  C   UNL     1      43.051 -16.771   4.018  1.00  0.00     0.052 A 
BRANCH  21  23
HETATM   23  C   UNL     1      44.463 -18.890   4.252  1.00  0.00     0.106 C 
HETATM   24  C   UNL     1      44.077 -20.028   5.200  1.00  0.00     0.034 C 
BRANCH  23  25
HETATM   25  C   UNL     1      44.090 -19.251   2.798  1.00  0.00     0.022 C 
HETATM   26  C   UNL     1      43.675 -20.709   2.632  1.00  0.00     0.007 C 
ENDBRANCH  23  25
ENDBRANCH  21  23
BRANCH  22  27
HETATM   27  C   UNL     1      42.704 -16.949   2.538  1.00  0.00     0.038 A 
HETATM   28  C   UNL     1      41.740 -16.023   1.842  1.00  0.00     0.011 A 
HETATM   29  C   UNL     1      43.195 -15.946   1.519  1.00  0.00     0.011 A 
ENDBRANCH  22  27
ENDBRANCH   1  18
TORSDOF 8
ENDMDL
