MODEL 1
REMARK VINA RESULT:      -9.5      0.000      0.000
REMARK  5 active torsions:
REMARK  status: ('A' for Active; 'I' for Inactive)
REMARK    1  A    between atoms: C_4  and  C_5 
REMARK    2  A    between atoms: C_5  and  N_6 
REMARK    3  A    between atoms: C_15  and  C_16 
REMARK    4  A    between atoms: C_16  and  N_17 
REMARK    5  A    between atoms: C_20  and  C_21 
REMARK       I    between atoms: C_21  and  N_22 
ROOT
HETATM    1  N   UNL     1      41.288 -15.638   3.775  1.00  0.00    -0.061 N 
HETATM    2  H   UNL     1      40.958 -16.545   4.124  1.00  0.00     0.280 HD
HETATM    3  C   UNL     1      41.340 -14.752   5.001  1.00  0.00     0.276 C 
HETATM    4  C   UNL     1      41.961 -13.401   4.794  1.00  0.00     0.002 A 
HETATM    5  C   UNL     1      41.368 -12.487   3.922  1.00  0.00     0.076 A 
HETATM    6  O   UNL     1      40.212 -12.794   3.262  1.00  0.00    -0.349 OA
HETATM    7  C   UNL     1      40.427 -13.779   2.243  1.00  0.00     0.203 C 
HETATM    8  C   UNL     1      40.221 -15.200   2.781  1.00  0.00     0.262 C 
HETATM    9  C   UNL     1      43.121 -13.013   5.492  1.00  0.00     0.020 A 
HETATM   10  C   UNL     1      43.681 -11.731   5.324  1.00  0.00    -0.032 A 
HETATM   11  C   UNL     1      43.056 -10.840   4.438  1.00  0.00     0.011 A 
HETATM   12  C   UNL     1      41.894 -11.210   3.758  1.00  0.00     0.038 A 
ENDROOT
BRANCH  10  13
HETATM   13  C   UNL     1      44.960 -11.357   6.040  1.00  0.00     0.273 C 
BRANCH  13  14
HETATM   14  N   UNL     1      44.793 -10.541   7.299  1.00  0.00    -0.066 N 
HETATM   15  H   UNL     1      44.161  -9.752   7.059  1.00  0.00     0.280 HD
HETATM   16  C   UNL     1      44.085 -11.275   8.422  1.00  0.00     0.249 C 
HETATM   17  C   UNL     1      43.809 -10.324   9.591  1.00  0.00     0.103 C 
HETATM   18  C   UNL     1      45.102  -9.658  10.069  1.00  0.00     0.017 C 
HETATM   19  C   UNL     1      45.868  -8.997   8.923  1.00  0.00     0.029 C 
HETATM   20  C   UNL     1      46.102  -9.942   7.752  1.00  0.00     0.235 C 
BRANCH  17  21
HETATM   21  C   UNL     1      42.798  -9.278   9.152  1.00  0.00     0.221 C 
HETATM   22  N   UNL     1      42.469  -8.335  10.069  1.00  0.00    -0.370 N 
HETATM   23  H   UNL     1      42.802  -8.322  11.026  1.00  0.00     0.159 HD
HETATM   24  H   UNL     1      41.810  -7.607   9.809  1.00  0.00     0.159 HD
HETATM   25  O   UNL     1      42.369  -9.250   8.001  1.00  0.00    -0.273 OA
ENDBRANCH  17  21
ENDBRANCH  13  14
ENDBRANCH  10  13
BRANCH   1  26
HETATM   26  C   UNL     1      42.626 -15.934   3.120  1.00  0.00     0.274 C 
BRANCH  26  27
HETATM   27  C   UNL     1      43.177 -17.322   3.363  1.00  0.00    -0.026 A 
HETATM   28  C   UNL     1      43.064 -18.304   2.356  1.00  0.00     0.016 A 
HETATM   29  C   UNL     1      43.519 -19.612   2.557  1.00  0.00    -0.061 A 
HETATM   30  C   UNL     1      43.413 -20.641   1.466  1.00  0.00     0.048 C 
HETATM   31  C   UNL     1      44.148 -19.934   3.759  1.00  0.00     0.007 A 
HETATM   32  C   UNL     1      44.319 -18.964   4.746  1.00  0.00     0.008 A 
HETATM   33  C   UNL     1      43.854 -17.653   4.559  1.00  0.00    -0.054 A 
HETATM   34  C   UNL     1      44.129 -16.643   5.645  1.00  0.00     0.049 C 
ENDBRANCH  26  27
ENDBRANCH   1  26
TORSDOF 5
ENDMDL
MODEL 2
REMARK VINA RESULT:      -8.7      3.534      7.415
REMARK  5 active torsions:
REMARK  status: ('A' for Active; 'I' for Inactive)
REMARK    1  A    between atoms: C_4  and  C_5 
REMARK    2  A    between atoms: C_5  and  N_6 
REMARK    3  A    between atoms: C_15  and  C_16 
REMARK    4  A    between atoms: C_16  and  N_17 
REMARK    5  A    between atoms: C_20  and  C_21 
REMARK       I    between atoms: C_21  and  N_22 
ROOT
HETATM    1  N   UNL     1      42.395 -14.504   5.161  1.00  0.00    -0.061 N 
HETATM    2  H   UNL     1      43.245 -14.945   5.531  1.00  0.00     0.280 HD
HETATM    3  C   UNL     1      42.886 -13.252   4.466  1.00  0.00     0.276 C 
HETATM    4  C   UNL     1      41.848 -12.502   3.683  1.00  0.00     0.002 A 
HETATM    5  C   UNL     1      40.752 -11.940   4.337  1.00  0.00     0.076 A 
HETATM    6  O   UNL     1      40.613 -12.044   5.693  1.00  0.00    -0.349 OA
HETATM    7  C   UNL     1      40.293 -13.383   6.093  1.00  0.00     0.203 C 
HETATM    8  C   UNL     1      41.556 -14.198   6.395  1.00  0.00     0.262 C 
HETATM    9  C   UNL     1      41.972 -12.317   2.292  1.00  0.00     0.020 A 
HETATM   10  C   UNL     1      41.016 -11.580   1.564  1.00  0.00    -0.032 A 
HETATM   11  C   UNL     1      39.927 -11.031   2.259  1.00  0.00     0.011 A 
HETATM   12  C   UNL     1      39.808 -11.192   3.640  1.00  0.00     0.038 A 
ENDROOT
BRANCH  10  13
HETATM   13  C   UNL     1      41.138 -11.443   0.063  1.00  0.00     0.273 C 
BRANCH  13  14
HETATM   14  N   UNL     1      40.241 -12.341  -0.754  1.00  0.00    -0.066 N 
HETATM   15  H   UNL     1      39.265 -12.101  -0.492  1.00  0.00     0.280 HD
HETATM   16  C   UNL     1      40.313 -12.092  -2.248  1.00  0.00     0.249 C 
HETATM   17  C   UNL     1      39.254 -12.923  -2.979  1.00  0.00     0.103 C 
HETATM   18  C   UNL     1      39.396 -14.409  -2.639  1.00  0.00     0.017 C 
HETATM   19  C   UNL     1      39.419 -14.656  -1.130  1.00  0.00     0.029 C 
HETATM   20  C   UNL     1      40.450 -13.796  -0.412  1.00  0.00     0.235 C 
BRANCH  17  21
HETATM   21  C   UNL     1      37.874 -12.415  -2.597  1.00  0.00     0.221 C 
HETATM   22  N   UNL     1      36.819 -13.049  -3.166  1.00  0.00    -0.370 N 
HETATM   23  H   UNL     1      36.895 -13.783  -3.861  1.00  0.00     0.159 HD
HETATM   24  H   UNL     1      35.879 -12.752  -2.922  1.00  0.00     0.159 HD
HETATM   25  O   UNL     1      37.731 -11.531  -1.755  1.00  0.00    -0.273 OA
ENDBRANCH  17  21
ENDBRANCH  13  14
ENDBRANCH  10  13
BRANCH   1  26
HETATM   26  C   UNL     1      41.769 -15.555   4.261  1.00  0.00     0.274 C 
BRANCH  26  27
HETATM   27  C   UNL     1      42.633 -16.763   3.971  1.00  0.00    -0.026 A 
HETATM   28  C   UNL     1      42.852 -17.723   4.982  1.00  0.00     0.016 A 
HETATM   29  C   UNL     1      43.680 -18.831   4.770  1.00  0.00    -0.061 A 
HETATM   30  C   UNL     1      43.885 -19.857   5.849  1.00  0.00     0.048 C 
HETATM   31  C   UNL     1      44.256 -19.016   3.514  1.00  0.00     0.007 A 
HETATM   32  C   UNL     1      44.009 -18.108   2.485  1.00  0.00     0.008 A 
HETATM   33  C   UNL     1      43.189 -16.987   2.691  1.00  0.00    -0.054 A 
HETATM   34  C   UNL     1      42.918 -16.083   1.516  1.00  0.00     0.049 C 
ENDBRANCH  26  27
ENDBRANCH   1  26
TORSDOF 5
ENDMDL
MODEL 3
REMARK VINA RESULT:      -8.6      2.153      7.508
REMARK  5 active torsions:
REMARK  status: ('A' for Active; 'I' for Inactive)
REMARK    1  A    between atoms: C_4  and  C_5 
REMARK    2  A    between atoms: C_5  and  N_6 
REMARK    3  A    between atoms: C_15  and  C_16 
REMARK    4  A    between atoms: C_16  and  N_17 
REMARK    5  A    between atoms: C_20  and  C_21 
REMARK       I    between atoms: C_21  and  N_22 
ROOT
HETATM    1  N   UNL     1      42.161  -9.697   5.721  1.00  0.00    -0.061 N 
HETATM    2  H   UNL     1      42.904  -9.006   5.874  1.00  0.00     0.280 HD
HETATM    3  C   UNL     1      42.480 -10.308   4.373  1.00  0.00     0.276 C 
HETATM    4  C   UNL     1      41.632 -11.483   3.981  1.00  0.00     0.002 A 
HETATM    5  C   UNL     1      40.259 -11.322   3.798  1.00  0.00     0.076 A 
HETATM    6  O   UNL     1      39.668 -10.099   3.951  1.00  0.00    -0.349 OA
HETATM    7  C   UNL     1      39.634  -9.694   5.325  1.00  0.00     0.203 C 
HETATM    8  C   UNL     1      40.877  -8.879   5.703  1.00  0.00     0.262 C 
HETATM    9  C   UNL     1      42.200 -12.752   3.756  1.00  0.00     0.020 A 
HETATM   10  C   UNL     1      41.408 -13.846   3.353  1.00  0.00    -0.032 A 
HETATM   11  C   UNL     1      40.029 -13.644   3.179  1.00  0.00     0.011 A 
HETATM   12  C   UNL     1      39.463 -12.384   3.380  1.00  0.00     0.038 A 
ENDROOT
BRANCH  10  13
HETATM   13  C   UNL     1      42.028 -15.214   3.173  1.00  0.00     0.273 C 
BRANCH  13  14
HETATM   14  N   UNL     1      42.576 -15.856   4.424  1.00  0.00    -0.066 N 
HETATM   15  H   UNL     1      43.068 -15.107   4.950  1.00  0.00     0.280 HD
HETATM   16  C   UNL     1      41.509 -16.361   5.377  1.00  0.00     0.249 C 
HETATM   17  C   UNL     1      42.146 -16.839   6.686  1.00  0.00     0.103 C 
HETATM   18  C   UNL     1      43.219 -17.898   6.415  1.00  0.00     0.017 C 
HETATM   19  C   UNL     1      44.245 -17.428   5.383  1.00  0.00     0.029 C 
HETATM   20  C   UNL     1      43.597 -16.920   4.102  1.00  0.00     0.235 C 
BRANCH  17  21
HETATM   21  C   UNL     1      42.741 -15.646   7.413  1.00  0.00     0.221 C 
HETATM   22  N   UNL     1      43.295 -15.894   8.626  1.00  0.00    -0.370 N 
HETATM   23  H   UNL     1      43.281 -16.793   9.092  1.00  0.00     0.159 HD
HETATM   24  H   UNL     1      43.720 -15.126   9.137  1.00  0.00     0.159 HD
HETATM   25  O   UNL     1      42.785 -14.536   6.887  1.00  0.00    -0.273 OA
ENDBRANCH  17  21
ENDBRANCH  13  14
ENDBRANCH  10  13
BRANCH   1  26
HETATM   26  C   UNL     1      42.251 -10.639   6.908  1.00  0.00     0.274 C 
BRANCH  26  27
HETATM   27  C   UNL     1      43.348 -10.331   7.903  1.00  0.00    -0.026 A 
HETATM   28  C   UNL     1      43.042  -9.616   9.080  1.00  0.00     0.016 A 
HETATM   29  C   UNL     1      44.035  -9.271  10.004  1.00  0.00    -0.061 A 
HETATM   30  C   UNL     1      43.689  -8.530  11.266  1.00  0.00     0.048 C 
HETATM   31  C   UNL     1      45.345  -9.691   9.780  1.00  0.00     0.007 A 
HETATM   32  C   UNL     1      45.659 -10.445   8.650  1.00  0.00     0.008 A 
HETATM   33  C   UNL     1      44.673 -10.786   7.711  1.00  0.00    -0.054 A 
HETATM   34  C   UNL     1      45.075 -11.654   6.546  1.00  0.00     0.049 C 
ENDBRANCH  26  27
ENDBRANCH   1  26
TORSDOF 5
ENDMDL
MODEL 4
REMARK VINA RESULT:      -8.3      3.318      7.326
REMARK  5 active torsions:
REMARK  status: ('A' for Active; 'I' for Inactive)
REMARK    1  A    between atoms: C_4  and  C_5 
REMARK    2  A    between atoms: C_5  and  N_6 
REMARK    3  A    between atoms: C_15  and  C_16 
REMARK    4  A    between atoms: C_16  and  N_17 
REMARK    5  A    between atoms: C_20  and  C_21 
REMARK       I    between atoms: C_21  and  N_22 
ROOT
HETATM    1  N   UNL     1      43.071 -13.984   4.512  1.00  0.00    -0.061 N 
HETATM    2  H   UNL     1      43.977 -14.409   4.285  1.00  0.00     0.280 HD
HETATM    3  C   UNL     1      42.883 -12.906   3.466  1.00  0.00     0.276 C 
HETATM    4  C   UNL     1      41.539 -12.235   3.466  1.00  0.00     0.002 A 
HETATM    5  C   UNL     1      41.129 -11.498   4.577  1.00  0.00     0.076 A 
HETATM    6  O   UNL     1      41.940 -11.358   5.667  1.00  0.00    -0.349 OA
HETATM    7  C   UNL     1      42.062 -12.583   6.400  1.00  0.00     0.203 C 
HETATM    8  C   UNL     1      43.255 -13.415   5.912  1.00  0.00     0.262 C 
HETATM    9  C   UNL     1      40.688 -12.302   2.347  1.00  0.00     0.020 A 
HETATM   10  C   UNL     1      39.443 -11.641   2.335  1.00  0.00    -0.032 A 
HETATM   11  C   UNL     1      39.065 -10.909   3.472  1.00  0.00     0.011 A 
HETATM   12  C   UNL     1      39.912 -10.822   4.577  1.00  0.00     0.038 A 
ENDROOT
BRANCH  10  13
HETATM   13  C   UNL     1      38.519 -11.773   1.144  1.00  0.00     0.273 C 
BRANCH  13  14
HETATM   14  N   UNL     1      39.183 -11.727  -0.211  1.00  0.00    -0.066 N 
HETATM   15  H   UNL     1      40.035 -12.317  -0.142  1.00  0.00     0.280 HD
HETATM   16  C   UNL     1      38.365 -12.358  -1.321  1.00  0.00     0.249 C 
HETATM   17  C   UNL     1      39.180 -12.420  -2.616  1.00  0.00     0.103 C 
HETATM   18  C   UNL     1      39.695 -11.030  -3.003  1.00  0.00     0.017 C 
HETATM   19  C   UNL     1      40.440 -10.351  -1.854  1.00  0.00     0.029 C 
HETATM   20  C   UNL     1      39.633 -10.331  -0.563  1.00  0.00     0.235 C 
BRANCH  17  21
HETATM   21  C   UNL     1      40.336 -13.387  -2.429  1.00  0.00     0.221 C 
HETATM   22  N   UNL     1      41.374 -13.261  -3.293  1.00  0.00    -0.370 N 
HETATM   23  H   UNL     1      41.397 -12.617  -4.075  1.00  0.00     0.159 HD
HETATM   24  H   UNL     1      42.175 -13.877  -3.189  1.00  0.00     0.159 HD
HETATM   25  O   UNL     1      40.356 -14.183  -1.492  1.00  0.00    -0.273 OA
ENDBRANCH  17  21
ENDBRANCH  13  14
ENDBRANCH  10  13
BRANCH   1  26
HETATM   26  C   UNL     1      42.076 -15.131   4.461  1.00  0.00     0.274 C 
BRANCH  26  27
HETATM   27  C   UNL     1      42.590 -16.411   3.840  1.00  0.00    -0.026 A 
HETATM   28  C   UNL     1      43.207 -17.384   4.656  1.00  0.00     0.016 A 
HETATM   29  C   UNL     1      43.736 -18.561   4.115  1.00  0.00    -0.061 A 
HETATM   30  C   UNL     1      44.369 -19.599   5.000  1.00  0.00     0.048 C 
HETATM   31  C   UNL     1      43.599 -18.800   2.748  1.00  0.00     0.007 A 
HETATM   32  C   UNL     1      42.946 -17.877   1.933  1.00  0.00     0.008 A 
HETATM   33  C   UNL     1      42.422 -16.688   2.464  1.00  0.00    -0.054 A 
HETATM   34  C   UNL     1      41.675 -15.767   1.534  1.00  0.00     0.049 C 
ENDBRANCH  26  27
ENDBRANCH   1  26
TORSDOF 5
ENDMDL
MODEL 5
REMARK VINA RESULT:      -8.2      2.152      8.704
REMARK  5 active torsions:
REMARK  status: ('A' for Active; 'I' for Inactive)
REMARK    1  A    between atoms: C_4  and  C_5 
REMARK    2  A    between atoms: C_5  and  N_6 
REMARK    3  A    between atoms: C_15  and  C_16 
REMARK    4  A    between atoms: C_16  and  N_17 
REMARK    5  A    between atoms: C_20  and  C_21 
REMARK       I    between atoms: C_21  and  N_22 
ROOT
HETATM    1  N   UNL     1      42.245 -10.590   5.216  1.00  0.00    -0.061 N 
HETATM    2  H   UNL     1      42.825  -9.763   5.036  1.00  0.00     0.280 HD
HETATM    3  C   UNL     1      42.941 -11.712   4.474  1.00  0.00     0.276 C 
HETATM    4  C   UNL     1      42.385 -13.086   4.716  1.00  0.00     0.002 A 
HETATM    5  C   UNL     1      41.078 -13.386   4.334  1.00  0.00     0.076 A 
HETATM    6  O   UNL     1      40.292 -12.451   3.721  1.00  0.00    -0.349 OA
HETATM    7  C   UNL     1      39.896 -11.414   4.628  1.00  0.00     0.203 C 
HETATM    8  C   UNL     1      40.889 -10.245   4.616  1.00  0.00     0.262 C 
HETATM    9  C   UNL     1      43.171 -14.102   5.292  1.00  0.00     0.020 A 
HETATM   10  C   UNL     1      42.660 -15.402   5.483  1.00  0.00    -0.032 A 
HETATM   11  C   UNL     1      41.339 -15.665   5.087  1.00  0.00     0.011 A 
HETATM   12  C   UNL     1      40.561 -14.668   4.496  1.00  0.00     0.038 A 
ENDROOT
BRANCH  10  13
HETATM   13  C   UNL     1      43.502 -16.462   6.157  1.00  0.00     0.273 C 
BRANCH  13  14
HETATM   14  N   UNL     1      43.552 -17.801   5.461  1.00  0.00    -0.066 N 
HETATM   15  H   UNL     1      42.727 -17.838   4.831  1.00  0.00     0.280 HD
HETATM   16  C   UNL     1      44.748 -17.976   4.544  1.00  0.00     0.249 C 
HETATM   17  C   UNL     1      44.629 -19.284   3.756  1.00  0.00     0.103 C 
HETATM   18  C   UNL     1      44.453 -20.476   4.701  1.00  0.00     0.017 C 
HETATM   19  C   UNL     1      43.307 -20.264   5.691  1.00  0.00     0.029 C 
HETATM   20  C   UNL     1      43.418 -18.942   6.439  1.00  0.00     0.235 C 
BRANCH  17  21
HETATM   21  C   UNL     1      43.454 -19.181   2.798  1.00  0.00     0.221 C 
HETATM   22  N   UNL     1      43.157 -20.296   2.085  1.00  0.00    -0.370 N 
HETATM   23  H   UNL     1      43.697 -21.153   2.107  1.00  0.00     0.159 HD
HETATM   24  H   UNL     1      42.368 -20.274   1.447  1.00  0.00     0.159 HD
HETATM   25  O   UNL     1      42.767 -18.164   2.740  1.00  0.00    -0.273 OA
ENDBRANCH  17  21
ENDBRANCH  13  14
ENDBRANCH  10  13
BRANCH   1  26
HETATM   26  C   UNL     1      42.211 -10.723   6.729  1.00  0.00     0.274 C 
BRANCH  26  27
HETATM   27  C   UNL     1      43.208  -9.869   7.480  1.00  0.00    -0.026 A 
HETATM   28  C   UNL     1      42.795  -8.638   8.034  1.00  0.00     0.016 A 
HETATM   29  C   UNL     1      43.696  -7.797   8.697  1.00  0.00    -0.061 A 
HETATM   30  C   UNL     1      43.235  -6.501   9.303  1.00  0.00     0.048 C 
HETATM   31  C   UNL     1      45.017  -8.212   8.860  1.00  0.00     0.007 A 
HETATM   32  C   UNL     1      45.433  -9.448   8.368  1.00  0.00     0.008 A 
HETATM   33  C   UNL     1      44.540 -10.294   7.690  1.00  0.00    -0.054 A 
HETATM   34  C   UNL     1      45.046 -11.640   7.240  1.00  0.00     0.049 C 
ENDBRANCH  26  27
ENDBRANCH   1  26
TORSDOF 5
ENDMDL
MODEL 6
REMARK VINA RESULT:      -8.2      1.998      3.196
REMARK  5 active torsions:
REMARK  status: ('A' for Active; 'I' for Inactive)
REMARK    1  A    between atoms: C_4  and  C_5 
REMARK    2  A    between atoms: C_5  and  N_6 
REMARK    3  A    between atoms: C_15  and  C_16 
REMARK    4  A    between atoms: C_16  and  N_17 
REMARK    5  A    between atoms: C_20  and  C_21 
REMARK       I    between atoms: C_21  and  N_22 
ROOT
HETATM    1  N   UNL     1      40.321 -13.455   4.544  1.00  0.00    -0.061 N 
HETATM    2  H   UNL     1      40.112 -14.453   4.653  1.00  0.00     0.280 HD
HETATM    3  C   UNL     1      39.551 -12.780   5.659  1.00  0.00     0.276 C 
HETATM    4  C   UNL     1      39.823 -11.314   5.834  1.00  0.00     0.002 A 
HETATM    5  C   UNL     1      39.503 -10.419   4.812  1.00  0.00     0.076 A 
HETATM    6  O   UNL     1      38.925 -10.853   3.653  1.00  0.00    -0.349 OA
HETATM    7  C   UNL     1      39.846 -11.600   2.847  1.00  0.00     0.203 C 
HETATM    8  C   UNL     1      39.784 -13.100   3.164  1.00  0.00     0.262 C 
HETATM    9  C   UNL     1      40.365 -10.807   7.031  1.00  0.00     0.020 A 
HETATM   10  C   UNL     1      40.584  -9.426   7.207  1.00  0.00    -0.032 A 
HETATM   11  C   UNL     1      40.250  -8.557   6.155  1.00  0.00     0.011 A 
HETATM   12  C   UNL     1      39.694  -9.050   4.974  1.00  0.00     0.038 A 
ENDROOT
BRANCH  10  13
HETATM   13  C   UNL     1      41.221  -8.909   8.478  1.00  0.00     0.273 C 
BRANCH  13  14
HETATM   14  N   UNL     1      42.630  -9.380   8.745  1.00  0.00    -0.066 N 
HETATM   15  H   UNL     1      42.758 -10.255   8.199  1.00  0.00     0.280 HD
HETATM   16  C   UNL     1      43.704  -8.442   8.228  1.00  0.00     0.249 C 
HETATM   17  C   UNL     1      45.089  -9.076   8.389  1.00  0.00     0.103 C 
HETATM   18  C   UNL     1      45.337  -9.482   9.845  1.00  0.00     0.017 C 
HETATM   19  C   UNL     1      44.209 -10.352  10.401  1.00  0.00     0.029 C 
HETATM   20  C   UNL     1      42.834  -9.728  10.199  1.00  0.00     0.235 C 
BRANCH  17  21
HETATM   21  C   UNL     1      45.194 -10.280   7.471  1.00  0.00     0.221 C 
HETATM   22  N   UNL     1      46.443 -10.751   7.232  1.00  0.00    -0.370 N 
HETATM   23  H   UNL     1      47.295 -10.319   7.572  1.00  0.00     0.159 HD
HETATM   24  H   UNL     1      46.554 -11.566   6.638  1.00  0.00     0.159 HD
HETATM   25  O   UNL     1      44.189 -10.840   7.037  1.00  0.00    -0.273 OA
ENDBRANCH  17  21
ENDBRANCH  13  14
ENDBRANCH  10  13
BRANCH   1  26
HETATM   26  C   UNL     1      41.834 -13.359   4.637  1.00  0.00     0.274 C 
BRANCH  26  27
HETATM   27  C   UNL     1      42.567 -14.681   4.698  1.00  0.00    -0.026 A 
HETATM   28  C   UNL     1      42.615 -15.506   3.554  1.00  0.00     0.016 A 
HETATM   29  C   UNL     1      43.244 -16.756   3.581  1.00  0.00    -0.061 A 
HETATM   30  C   UNL     1      43.307 -17.613   2.347  1.00  0.00     0.048 C 
HETATM   31  C   UNL     1      43.883 -17.168   4.749  1.00  0.00     0.007 A 
HETATM   32  C   UNL     1      43.895 -16.345   5.874  1.00  0.00     0.008 A 
HETATM   33  C   UNL     1      43.256 -15.095   5.861  1.00  0.00    -0.054 A 
HETATM   34  C   UNL     1      43.362 -14.234   7.094  1.00  0.00     0.049 C 
ENDBRANCH  26  27
ENDBRANCH   1  26
TORSDOF 5
ENDMDL
MODEL 7
REMARK VINA RESULT:      -8.1      2.386      8.883
REMARK  5 active torsions:
REMARK  status: ('A' for Active; 'I' for Inactive)
REMARK    1  A    between atoms: C_4  and  C_5 
REMARK    2  A    between atoms: C_5  and  N_6 
REMARK    3  A    between atoms: C_15  and  C_16 
REMARK    4  A    between atoms: C_16  and  N_17 
REMARK    5  A    between atoms: C_20  and  C_21 
REMARK       I    between atoms: C_21  and  N_22 
ROOT
HETATM    1  N   UNL     1      44.198  -9.747   9.436  1.00  0.00    -0.061 N 
HETATM    2  H   UNL     1      43.947  -9.777  10.431  1.00  0.00     0.280 HD
HETATM    3  C   UNL     1      44.171 -11.194   8.992  1.00  0.00     0.276 C 
HETATM    4  C   UNL     1      44.338 -11.418   7.517  1.00  0.00     0.002 A 
HETATM    5  C   UNL     1      45.525 -11.046   6.886  1.00  0.00     0.076 A 
HETATM    6  O   UNL     1      46.555 -10.493   7.593  1.00  0.00    -0.349 OA
HETATM    7  C   UNL     1      46.249  -9.161   8.024  1.00  0.00     0.203 C 
HETATM    8  C   UNL     1      45.600  -9.153   9.414  1.00  0.00     0.262 C 
HETATM    9  C   UNL     1      43.330 -12.035   6.752  1.00  0.00     0.020 A 
HETATM   10  C   UNL     1      43.504 -12.278   5.374  1.00  0.00    -0.032 A 
HETATM   11  C   UNL     1      44.712 -11.889   4.774  1.00  0.00     0.011 A 
HETATM   12  C   UNL     1      45.724 -11.296   5.531  1.00  0.00     0.038 A 
ENDROOT
BRANCH  10  13
HETATM   13  C   UNL     1      42.385 -12.889   4.559  1.00  0.00     0.273 C 
BRANCH  13  14
HETATM   14  N   UNL     1      42.699 -14.211   3.901  1.00  0.00    -0.066 N 
HETATM   15  H   UNL     1      43.603 -14.532   4.299  1.00  0.00     0.280 HD
HETATM   16  C   UNL     1      41.715 -15.316   4.235  1.00  0.00     0.249 C 
HETATM   17  C   UNL     1      42.202 -16.653   3.667  1.00  0.00     0.103 C 
HETATM   18  C   UNL     1      42.452 -16.546   2.160  1.00  0.00     0.017 C 
HETATM   19  C   UNL     1      43.369 -15.374   1.809  1.00  0.00     0.029 C 
HETATM   20  C   UNL     1      42.894 -14.058   2.413  1.00  0.00     0.235 C 
BRANCH  17  21
HETATM   21  C   UNL     1      43.469 -17.069   4.393  1.00  0.00     0.221 C 
HETATM   22  N   UNL     1      44.057 -18.217   3.971  1.00  0.00    -0.370 N 
HETATM   23  H   UNL     1      43.677 -18.830   3.260  1.00  0.00     0.159 HD
HETATM   24  H   UNL     1      44.916 -18.520   4.419  1.00  0.00     0.159 HD
HETATM   25  O   UNL     1      43.970 -16.356   5.260  1.00  0.00    -0.273 OA
ENDBRANCH  17  21
ENDBRANCH  13  14
ENDBRANCH  10  13
BRANCH   1  26
HETATM   26  C   UNL     1      43.158  -8.842   8.797  1.00  0.00     0.274 C 
BRANCH  26  27
HETATM   27  C   UNL     1      41.719  -9.172   9.124  1.00  0.00    -0.026 A 
HETATM   28  C   UNL     1      41.316  -9.276  10.473  1.00  0.00     0.016 A 
HETATM   29  C   UNL     1      40.005  -9.624  10.818  1.00  0.00    -0.061 A 
HETATM   30  C   UNL     1      39.585  -9.707  12.259  1.00  0.00     0.048 C 
HETATM   31  C   UNL     1      39.065  -9.817   9.806  1.00  0.00     0.007 A 
HETATM   32  C   UNL     1      39.430  -9.666   8.469  1.00  0.00     0.008 A 
HETATM   33  C   UNL     1      40.745  -9.330   8.111  1.00  0.00    -0.054 A 
HETATM   34  C   UNL     1      41.050  -9.125   6.650  1.00  0.00     0.049 C 
ENDBRANCH  26  27
ENDBRANCH   1  26
TORSDOF 5
ENDMDL
MODEL 8
REMARK VINA RESULT:      -8.1      1.948      2.548
REMARK  5 active torsions:
REMARK  status: ('A' for Active; 'I' for Inactive)
REMARK    1  A    between atoms: C_4  and  C_5 
REMARK    2  A    between atoms: C_5  and  N_6 
REMARK    3  A    between atoms: C_15  and  C_16 
REMARK    4  A    between atoms: C_16  and  N_17 
REMARK    5  A    between atoms: C_20  and  C_21 
REMARK       I    between atoms: C_21  and  N_22 
ROOT
HETATM    1  N   UNL     1      40.785 -14.010   4.438  1.00  0.00    -0.061 N 
HETATM    2  H   UNL     1      40.487 -14.970   4.643  1.00  0.00     0.280 HD
HETATM    3  C   UNL     1      40.579 -13.261   5.738  1.00  0.00     0.276 C 
HETATM    4  C   UNL     1      41.104 -11.854   5.761  1.00  0.00     0.002 A 
HETATM    5  C   UNL     1      40.569 -10.896   4.901  1.00  0.00     0.076 A 
HETATM    6  O   UNL     1      39.553 -11.210   4.042  1.00  0.00    -0.349 OA
HETATM    7  C   UNL     1      40.001 -12.060   2.979  1.00  0.00     0.203 C 
HETATM    8  C   UNL     1      39.842 -13.543   3.338  1.00  0.00     0.262 C 
HETATM    9  C   UNL     1      42.111 -11.464   6.665  1.00  0.00     0.020 A 
HETATM   10  C   UNL     1      42.576 -10.135   6.712  1.00  0.00    -0.032 A 
HETATM   11  C   UNL     1      42.013  -9.199   5.830  1.00  0.00     0.011 A 
HETATM   12  C   UNL     1      41.001  -9.574   4.945  1.00  0.00     0.038 A 
ENDROOT
BRANCH  10  13
HETATM   13  C   UNL     1      43.699  -9.750   7.650  1.00  0.00     0.273 C 
BRANCH  13  14
HETATM   14  N   UNL     1      43.281  -9.359   9.048  1.00  0.00    -0.066 N 
HETATM   15  H   UNL     1      42.579 -10.061   9.353  1.00  0.00     0.280 HD
HETATM   16  C   UNL     1      44.394  -9.453  10.073  1.00  0.00     0.249 C 
HETATM   17  C   UNL     1      43.844  -9.206  11.482  1.00  0.00     0.103 C 
HETATM   18  C   UNL     1      43.112  -7.862  11.553  1.00  0.00     0.017 C 
HETATM   19  C   UNL     1      42.052  -7.725  10.459  1.00  0.00     0.029 C 
HETATM   20  C   UNL     1      42.604  -8.011   9.069  1.00  0.00     0.235 C 
BRANCH  17  21
HETATM   21  C   UNL     1      42.913 -10.344  11.858  1.00  0.00     0.221 C 
HETATM   22  N   UNL     1      43.500 -11.527  12.168  1.00  0.00    -0.370 N 
HETATM   23  H   UNL     1      44.494 -11.709  12.106  1.00  0.00     0.159 HD
HETATM   24  H   UNL     1      42.912 -12.308  12.443  1.00  0.00     0.159 HD
HETATM   25  O   UNL     1      41.699 -10.171  11.952  1.00  0.00    -0.273 OA
ENDBRANCH  17  21
ENDBRANCH  13  14
ENDBRANCH  10  13
BRANCH   1  26
HETATM   26  C   UNL     1      42.226 -14.137   3.974  1.00  0.00     0.274 C 
BRANCH  26  27
HETATM   27  C   UNL     1      42.861 -15.493   4.185  1.00  0.00    -0.026 A 
HETATM   28  C   UNL     1      42.772 -16.471   3.171  1.00  0.00     0.016 A 
HETATM   29  C   UNL     1      43.306 -17.753   3.344  1.00  0.00    -0.061 A 
HETATM   30  C   UNL     1      43.225 -18.775   2.245  1.00  0.00     0.048 C 
HETATM   31  C   UNL     1      43.988 -18.050   4.523  1.00  0.00     0.007 A 
HETATM   32  C   UNL     1      44.133 -17.082   5.516  1.00  0.00     0.008 A 
HETATM   33  C   UNL     1      43.590 -15.797   5.357  1.00  0.00    -0.054 A 
HETATM   34  C   UNL     1      43.840 -14.784   6.445  1.00  0.00     0.049 C 
ENDBRANCH  26  27
ENDBRANCH   1  26
TORSDOF 5
ENDMDL
MODEL 9
REMARK VINA RESULT:      -8.0     16.654     18.933
REMARK  5 active torsions:
REMARK  status: ('A' for Active; 'I' for Inactive)
REMARK    1  A    between atoms: C_4  and  C_5 
REMARK    2  A    between atoms: C_5  and  N_6 
REMARK    3  A    between atoms: C_15  and  C_16 
REMARK    4  A    between atoms: C_16  and  N_17 
REMARK    5  A    between atoms: C_20  and  C_21 
REMARK       I    between atoms: C_21  and  N_22 
ROOT
HETATM    1  N   UNL     1      43.345 -30.717   0.473  1.00  0.00    -0.061 N 
HETATM    2  H   UNL     1      42.852 -31.120  -0.332  1.00  0.00     0.280 HD
HETATM    3  C   UNL     1      44.547 -31.615   0.672  1.00  0.00     0.276 C 
HETATM    4  C   UNL     1      45.542 -31.144   1.693  1.00  0.00     0.002 A 
HETATM    5  C   UNL     1      45.166 -31.028   3.031  1.00  0.00     0.076 A 
HETATM    6  O   UNL     1      43.903 -31.357   3.437  1.00  0.00    -0.349 OA
HETATM    7  C   UNL     1      42.933 -30.407   2.979  1.00  0.00     0.203 C 
HETATM    8  C   UNL     1      42.348 -30.811   1.619  1.00  0.00     0.262 C 
HETATM    9  C   UNL     1      46.871 -30.846   1.337  1.00  0.00     0.020 A 
HETATM   10  C   UNL     1      47.813 -30.440   2.303  1.00  0.00    -0.032 A 
HETATM   11  C   UNL     1      47.397 -30.335   3.639  1.00  0.00     0.011 A 
HETATM   12  C   UNL     1      46.086 -30.648   4.003  1.00  0.00     0.038 A 
ENDROOT
BRANCH  10  13
HETATM   13  C   UNL     1      49.221 -30.069   1.889  1.00  0.00     0.273 C 
BRANCH  13  14
HETATM   14  N   UNL     1      49.668 -30.588   0.544  1.00  0.00    -0.066 N 
HETATM   15  H   UNL     1      49.035 -31.376   0.306  1.00  0.00     0.280 HD
HETATM   16  C   UNL     1      49.494 -29.596  -0.590  1.00  0.00     0.249 C 
HETATM   17  C   UNL     1      49.811 -30.260  -1.933  1.00  0.00     0.103 C 
HETATM   18  C   UNL     1      51.214 -30.875  -1.921  1.00  0.00     0.017 C 
HETATM   19  C   UNL     1      51.425 -31.804  -0.725  1.00  0.00     0.029 C 
HETATM   20  C   UNL     1      51.070 -31.143   0.600  1.00  0.00     0.235 C 
BRANCH  17  21
HETATM   21  C   UNL     1      48.763 -31.321  -2.222  1.00  0.00     0.221 C 
HETATM   22  N   UNL     1      49.068 -32.224  -3.187  1.00  0.00    -0.370 N 
HETATM   23  H   UNL     1      49.906 -32.197  -3.755  1.00  0.00     0.159 HD
HETATM   24  H   UNL     1      48.402 -32.961  -3.397  1.00  0.00     0.159 HD
HETATM   25  O   UNL     1      47.733 -31.397  -1.556  1.00  0.00    -0.273 OA
ENDBRANCH  17  21
ENDBRANCH  13  14
ENDBRANCH  10  13
BRANCH   1  26
HETATM   26  C   UNL     1      43.653 -29.286   0.067  1.00  0.00     0.274 C 
BRANCH  26  27
HETATM   27  C   UNL     1      44.398 -29.126  -1.240  1.00  0.00    -0.026 A 
HETATM   28  C   UNL     1      43.821 -29.606  -2.435  1.00  0.00     0.016 A 
HETATM   29  C   UNL     1      44.496 -29.518  -3.658  1.00  0.00    -0.061 A 
HETATM   30  C   UNL     1      43.858 -30.012  -4.927  1.00  0.00     0.048 C 
HETATM   31  C   UNL     1      45.741 -28.893  -3.702  1.00  0.00     0.007 A 
HETATM   32  C   UNL     1      46.305 -28.364  -2.542  1.00  0.00     0.008 A 
HETATM   33  C   UNL     1      45.642 -28.458  -1.308  1.00  0.00    -0.054 A 
HETATM   34  C   UNL     1      46.284 -27.809  -0.109  1.00  0.00     0.049 C 
ENDBRANCH  26  27
ENDBRANCH   1  26
TORSDOF 5
ENDMDL
MODEL 10
REMARK VINA RESULT:      -8.0      3.211      5.993
REMARK  5 active torsions:
REMARK  status: ('A' for Active; 'I' for Inactive)
REMARK    1  A    between atoms: C_4  and  C_5 
REMARK    2  A    between atoms: C_5  and  N_6 
REMARK    3  A    between atoms: C_15  and  C_16 
REMARK    4  A    between atoms: C_16  and  N_17 
REMARK    5  A    between atoms: C_20  and  C_21 
REMARK       I    between atoms: C_21  and  N_22 
ROOT
HETATM    1  N   UNL     1      43.933 -11.411   6.298  1.00  0.00    -0.061 N 
HETATM    2  H   UNL     1      43.513 -11.481   5.365  1.00  0.00     0.280 HD
HETATM    3  C   UNL     1      43.310 -10.173   6.906  1.00  0.00     0.276 C 
HETATM    4  C   UNL     1      43.631  -9.935   8.353  1.00  0.00     0.002 A 
HETATM    5  C   UNL     1      44.948  -9.699   8.746  1.00  0.00     0.076 A 
HETATM    6  O   UNL     1      45.960  -9.661   7.828  1.00  0.00    -0.349 OA
HETATM    7  C   UNL     1      46.245 -10.961   7.298  1.00  0.00     0.203 C 
HETATM    8  C   UNL     1      45.424 -11.247   6.034  1.00  0.00     0.262 C 
HETATM    9  C   UNL     1      42.619  -9.907   9.332  1.00  0.00     0.020 A 
HETATM   10  C   UNL     1      42.917  -9.647  10.685  1.00  0.00    -0.032 A 
HETATM   11  C   UNL     1      44.255  -9.414  11.041  1.00  0.00     0.011 A 
HETATM   12  C   UNL     1      45.261  -9.420  10.073  1.00  0.00     0.038 A 
ENDROOT
BRANCH  10  13
HETATM   13  C   UNL     1      41.822  -9.679  11.729  1.00  0.00     0.273 C 
BRANCH  13  14
HETATM   14  N   UNL     1      41.792  -8.512  12.686  1.00  0.00    -0.066 N 
HETATM   15  H   UNL     1      42.595  -7.903  12.434  1.00  0.00     0.280 HD
HETATM   16  C   UNL     1      40.571  -7.625  12.539  1.00  0.00     0.249 C 
HETATM   17  C   UNL     1      40.706  -6.381  13.424  1.00  0.00     0.103 C 
HETATM   18  C   UNL     1      40.956  -6.775  14.883  1.00  0.00     0.017 C 
HETATM   19  C   UNL     1      42.129  -7.745  15.026  1.00  0.00     0.029 C 
HETATM   20  C   UNL     1      42.001  -8.957  14.112  1.00  0.00     0.235 C 
BRANCH  17  21
HETATM   21  C   UNL     1      41.841  -5.520  12.899  1.00  0.00     0.221 C 
HETATM   22  N   UNL     1      42.246  -4.502  13.699  1.00  0.00    -0.370 N 
HETATM   23  H   UNL     1      41.807  -4.251  14.577  1.00  0.00     0.159 HD
HETATM   24  H   UNL     1      43.015  -3.914  13.393  1.00  0.00     0.159 HD
HETATM   25  O   UNL     1      42.408  -5.787  11.842  1.00  0.00    -0.273 OA
ENDBRANCH  17  21
ENDBRANCH  13  14
ENDBRANCH  10  13
BRANCH   1  26
HETATM   26  C   UNL     1      43.591 -12.724   6.982  1.00  0.00     0.274 C 
BRANCH  26  27
HETATM   27  C   UNL     1      43.208 -13.858   6.057  1.00  0.00    -0.026 A 
HETATM   28  C   UNL     1      43.168 -13.640   4.664  1.00  0.00     0.016 A 
HETATM   29  C   UNL     1      42.775 -14.650   3.777  1.00  0.00    -0.061 A 
HETATM   30  C   UNL     1      42.762 -14.409   2.293  1.00  0.00     0.048 C 
HETATM   31  C   UNL     1      42.469 -15.913   4.281  1.00  0.00     0.007 A 
HETATM   32  C   UNL     1      42.554 -16.165   5.650  1.00  0.00     0.008 A 
HETATM   33  C   UNL     1      42.935 -15.156   6.548  1.00  0.00    -0.054 A 
HETATM   34  C   UNL     1      43.064 -15.518   8.006  1.00  0.00     0.049 C 
ENDBRANCH  26  27
ENDBRANCH   1  26
TORSDOF 5
ENDMDL
