MODEL 1
REMARK VINA RESULT:      -8.9      0.000      0.000
REMARK  6 active torsions:
REMARK  status: ('A' for Active; 'I' for Inactive)
REMARK    1  A    between atoms: O_2  and  C_3 
REMARK    2  A    between atoms: C_6  and  C_7 
REMARK    3  A    between atoms: C_13  and  C_14 
REMARK       I    between atoms: C_14  and  N_15 
REMARK    4  A    between atoms: N_15  and  C_16 
REMARK    5  A    between atoms: C_16  and  C_17 
REMARK    6  A    between atoms: C_24  and  C_25 
ROOT
HETATM    1  C   UNL     1      42.313 -12.804   2.222  1.00  0.00     0.118 C 
HETATM    2  N   UNL     1      42.639 -13.710   3.330  1.00  0.00    -0.365 N 
HETATM    3  C   UNL     1      41.916 -13.690   4.483  1.00  0.00     0.138 A 
HETATM    4  N   UNL     1      41.055 -12.653   4.757  1.00  0.00    -0.240 N 
HETATM    5  N   UNL     1      40.449 -12.744   5.950  1.00  0.00    -0.181 NA
HETATM    6  C   UNL     1      40.852 -13.935   6.402  1.00  0.00     0.160 A 
HETATM    7  C   UNL     1      41.786 -14.569   5.545  1.00  0.00     0.096 A 
HETATM    8  C   UNL     1      40.781 -11.541   3.869  1.00  0.00     0.221 C 
HETATM    9  C   UNL     1      41.868 -11.442   2.785  1.00  0.00     0.066 C 
HETATM   10  H   UNL     1      43.050 -14.585   3.007  1.00  0.00     0.161 HD
ENDROOT
BRANCH   7  11
HETATM   11  C   UNL     1      42.390 -15.863   5.775  1.00  0.00     0.257 C 
HETATM   12  N   UNL     1      43.632 -16.051   5.215  1.00  0.00    -0.352 N 
HETATM   13  H   UNL     1      44.098 -15.266   4.780  1.00  0.00     0.163 HD
HETATM   14  O   UNL     1      41.831 -16.726   6.445  1.00  0.00    -0.267 OA
BRANCH  12  15
HETATM   15  C   UNL     1      44.309 -17.317   5.347  1.00  0.00     0.161 C 
BRANCH  15  16
HETATM   16  C   UNL     1      43.906 -18.313   4.291  1.00  0.00    -0.041 A 
HETATM   17  C   UNL     1      43.368 -17.889   3.067  1.00  0.00     0.009 A 
HETATM   18  C   UNL     1      43.062 -18.814   2.066  1.00  0.00     0.001 A 
HETATM   19  C   UNL     1      43.304 -20.170   2.272  1.00  0.00     0.000 A 
HETATM   20  C   UNL     1      43.849 -20.605   3.479  1.00  0.00     0.001 A 
HETATM   21  C   UNL     1      44.150 -19.682   4.483  1.00  0.00     0.009 A 
ENDBRANCH  15  16
ENDBRANCH  12  15
ENDBRANCH   7  11
BRANCH   1  22
HETATM   22  C   UNL     1      41.381 -13.434   1.198  1.00  0.00    -0.035 A 
HETATM   23  C   UNL     1      40.836 -14.721   1.352  1.00  0.00     0.012 A 
HETATM   24  C   UNL     1      40.003 -15.284   0.378  1.00  0.00     0.037 A 
HETATM   25  C   UNL     1      39.696 -14.575  -0.779  1.00  0.00     0.068 A 
HETATM   26  C   UNL     1      40.238 -13.302  -0.954  1.00  0.00     0.037 A 
HETATM   27  C   UNL     1      41.075 -12.739   0.017  1.00  0.00     0.012 A 
BRANCH  25  28
HETATM   28  O   UNL     1      38.897 -15.010  -1.800  1.00  0.00    -0.356 OA
HETATM   29  C   UNL     1      38.880 -14.216  -2.980  1.00  0.00     0.210 C 
ENDBRANCH  25  28
ENDBRANCH   1  22
BRANCH   8  30
HETATM   30  C   UNL     1      39.373 -11.646   3.316  1.00  0.00     0.409 C 
HETATM   31  F   UNL     1      38.917 -12.909   3.217  1.00  0.00    -0.169 F 
HETATM   32  F   UNL     1      38.481 -10.949   4.057  1.00  0.00    -0.169 F 
HETATM   33  F   UNL     1      39.325 -11.106   2.068  1.00  0.00    -0.169 F 
ENDBRANCH   8  30
TORSDOF 6
ENDMDL
MODEL 2
REMARK VINA RESULT:      -8.8      3.394      6.947
REMARK  6 active torsions:
REMARK  status: ('A' for Active; 'I' for Inactive)
REMARK    1  A    between atoms: O_2  and  C_3 
REMARK    2  A    between atoms: C_6  and  C_7 
REMARK    3  A    between atoms: C_13  and  C_14 
REMARK       I    between atoms: C_14  and  N_15 
REMARK    4  A    between atoms: N_15  and  C_16 
REMARK    5  A    between atoms: C_16  and  C_17 
REMARK    6  A    between atoms: C_24  and  C_25 
ROOT
HETATM    1  C   UNL     1      43.321 -14.596   3.382  1.00  0.00     0.118 C 
HETATM    2  N   UNL     1      42.706 -13.464   4.086  1.00  0.00    -0.365 N 
HETATM    3  C   UNL     1      41.389 -13.165   3.910  1.00  0.00     0.138 A 
HETATM    4  N   UNL     1      40.674 -13.720   2.875  1.00  0.00    -0.240 N 
HETATM    5  N   UNL     1      39.405 -13.296   2.796  1.00  0.00    -0.181 NA
HETATM    6  C   UNL     1      39.275 -12.531   3.883  1.00  0.00     0.160 A 
HETATM    7  C   UNL     1      40.483 -12.389   4.611  1.00  0.00     0.096 A 
HETATM    8  C   UNL     1      41.192 -14.690   1.930  1.00  0.00     0.221 C 
HETATM    9  C   UNL     1      42.729 -14.703   1.965  1.00  0.00     0.066 C 
HETATM   10  H   UNL     1      43.148 -13.281   4.986  1.00  0.00     0.161 HD
ENDROOT
BRANCH   7  11
HETATM   11  C   UNL     1      40.643 -11.625   5.829  1.00  0.00     0.257 C 
HETATM   12  N   UNL     1      41.811 -10.907   5.935  1.00  0.00    -0.352 N 
HETATM   13  H   UNL     1      42.431 -10.858   5.138  1.00  0.00     0.163 HD
HETATM   14  O   UNL     1      39.777 -11.607   6.698  1.00  0.00    -0.267 OA
BRANCH  12  15
HETATM   15  C   UNL     1      42.092 -10.141   7.124  1.00  0.00     0.161 C 
BRANCH  15  16
HETATM   16  C   UNL     1      43.560 -10.091   7.459  1.00  0.00    -0.041 A 
HETATM   17  C   UNL     1      44.457 -11.021   6.912  1.00  0.00     0.009 A 
HETATM   18  C   UNL     1      45.826 -10.926   7.172  1.00  0.00     0.001 A 
HETATM   19  C   UNL     1      46.314  -9.894   7.968  1.00  0.00     0.000 A 
HETATM   20  C   UNL     1      45.437  -8.956   8.509  1.00  0.00     0.001 A 
HETATM   21  C   UNL     1      44.067  -9.053   8.255  1.00  0.00     0.009 A 
ENDBRANCH  15  16
ENDBRANCH  12  15
ENDBRANCH   7  11
BRANCH   1  22
HETATM   22  C   UNL     1      43.314 -15.877   4.203  1.00  0.00    -0.035 A 
HETATM   23  C   UNL     1      42.827 -15.937   5.520  1.00  0.00     0.012 A 
HETATM   24  C   UNL     1      42.860 -17.126   6.258  1.00  0.00     0.037 A 
HETATM   25  C   UNL     1      43.385 -18.286   5.698  1.00  0.00     0.068 A 
HETATM   26  C   UNL     1      43.884 -18.242   4.397  1.00  0.00     0.037 A 
HETATM   27  C   UNL     1      43.856 -17.053   3.659  1.00  0.00     0.012 A 
BRANCH  25  28
HETATM   28  O   UNL     1      43.471 -19.506   6.310  1.00  0.00    -0.356 OA
HETATM   29  C   UNL     1      43.955 -20.585   5.518  1.00  0.00     0.210 C 
ENDBRANCH  25  28
ENDBRANCH   1  22
BRANCH   8  30
HETATM   30  C   UNL     1      40.563 -16.048   2.174  1.00  0.00     0.409 C 
HETATM   31  F   UNL     1      41.373 -17.085   1.893  1.00  0.00    -0.169 F 
HETATM   32  F   UNL     1      40.146 -16.194   3.454  1.00  0.00    -0.169 F 
HETATM   33  F   UNL     1      39.452 -16.188   1.402  1.00  0.00    -0.169 F 
ENDBRANCH   8  30
TORSDOF 6
ENDMDL
MODEL 3
REMARK VINA RESULT:      -8.4      5.985      8.518
REMARK  6 active torsions:
REMARK  status: ('A' for Active; 'I' for Inactive)
REMARK    1  A    between atoms: O_2  and  C_3 
REMARK    2  A    between atoms: C_6  and  C_7 
REMARK    3  A    between atoms: C_13  and  C_14 
REMARK       I    between atoms: C_14  and  N_15 
REMARK    4  A    between atoms: N_15  and  C_16 
REMARK    5  A    between atoms: C_16  and  C_17 
REMARK    6  A    between atoms: C_24  and  C_25 
ROOT
HETATM    1  C   UNL     1      42.663  -8.095   8.262  1.00  0.00     0.118 C 
HETATM    2  N   UNL     1      42.507  -9.112   7.216  1.00  0.00    -0.365 N 
HETATM    3  C   UNL     1      43.265 -10.243   7.223  1.00  0.00     0.138 A 
HETATM    4  N   UNL     1      44.376 -10.340   8.027  1.00  0.00    -0.240 N 
HETATM    5  N   UNL     1      45.053 -11.489   7.892  1.00  0.00    -0.181 NA
HETATM    6  C   UNL     1      44.285 -12.194   7.057  1.00  0.00     0.160 A 
HETATM    7  C   UNL     1      43.164 -11.466   6.583  1.00  0.00     0.096 A 
HETATM    8  C   UNL     1      44.819  -9.325   8.964  1.00  0.00     0.221 C 
HETATM    9  C   UNL     1      44.149  -7.977   8.647  1.00  0.00     0.066 C 
HETATM   10  H   UNL     1      41.557  -9.144   6.845  1.00  0.00     0.161 HD
ENDROOT
BRANCH   7  11
HETATM   11  C   UNL     1      42.160 -11.972   5.673  1.00  0.00     0.257 C 
HETATM   12  N   UNL     1      42.075 -13.342   5.579  1.00  0.00    -0.352 N 
HETATM   13  H   UNL     1      42.621 -13.912   6.211  1.00  0.00     0.163 HD
HETATM   14  O   UNL     1      41.421 -11.220   5.045  1.00  0.00    -0.267 OA
BRANCH  12  15
HETATM   15  C   UNL     1      41.136 -13.954   4.672  1.00  0.00     0.161 C 
BRANCH  15  16
HETATM   16  C   UNL     1      41.801 -14.810   3.626  1.00  0.00    -0.041 A 
HETATM   17  C   UNL     1      42.768 -14.272   2.763  1.00  0.00     0.009 A 
HETATM   18  C   UNL     1      43.430 -15.088   1.842  1.00  0.00     0.001 A 
HETATM   19  C   UNL     1      43.144 -16.449   1.784  1.00  0.00     0.000 A 
HETATM   20  C   UNL     1      42.194 -16.999   2.642  1.00  0.00     0.001 A 
HETATM   21  C   UNL     1      41.526 -16.184   3.560  1.00  0.00     0.009 A 
ENDBRANCH  15  16
ENDBRANCH  12  15
ENDBRANCH   7  11
BRANCH   1  22
HETATM   22  C   UNL     1      41.691  -8.281   9.418  1.00  0.00    -0.035 A 
HETATM   23  C   UNL     1      40.730  -9.306   9.450  1.00  0.00     0.012 A 
HETATM   24  C   UNL     1      39.831  -9.434  10.515  1.00  0.00     0.037 A 
HETATM   25  C   UNL     1      39.869  -8.536  11.577  1.00  0.00     0.068 A 
HETATM   26  C   UNL     1      40.807  -7.505  11.557  1.00  0.00     0.037 A 
HETATM   27  C   UNL     1      41.704  -7.373  10.489  1.00  0.00     0.012 A 
BRANCH  25  28
HETATM   28  O   UNL     1      39.051  -8.554  12.673  1.00  0.00    -0.356 OA
HETATM   29  C   UNL     1      38.490  -7.309  13.071  1.00  0.00     0.210 C 
ENDBRANCH  25  28
ENDBRANCH   1  22
BRANCH   8  30
HETATM   30  C   UNL     1      44.602  -9.797  10.388  1.00  0.00     0.409 C 
HETATM   31  F   UNL     1      44.434  -8.799  11.276  1.00  0.00    -0.169 F 
HETATM   32  F   UNL     1      43.533 -10.620  10.496  1.00  0.00    -0.169 F 
HETATM   33  F   UNL     1      45.675 -10.523  10.803  1.00  0.00    -0.169 F 
ENDBRANCH   8  30
TORSDOF 6
ENDMDL
MODEL 4
REMARK VINA RESULT:      -8.4      1.238      1.605
REMARK  6 active torsions:
REMARK  status: ('A' for Active; 'I' for Inactive)
REMARK    1  A    between atoms: O_2  and  C_3 
REMARK    2  A    between atoms: C_6  and  C_7 
REMARK    3  A    between atoms: C_13  and  C_14 
REMARK       I    between atoms: C_14  and  N_15 
REMARK    4  A    between atoms: N_15  and  C_16 
REMARK    5  A    between atoms: C_16  and  C_17 
REMARK    6  A    between atoms: C_24  and  C_25 
ROOT
HETATM    1  C   UNL     1      42.048 -11.689   1.680  1.00  0.00     0.118 C 
HETATM    2  N   UNL     1      42.528 -12.269   2.941  1.00  0.00    -0.365 N 
HETATM    3  C   UNL     1      41.814 -12.124   4.091  1.00  0.00     0.138 A 
HETATM    4  N   UNL     1      40.789 -11.211   4.174  1.00  0.00    -0.240 N 
HETATM    5  N   UNL     1      40.210 -11.144   5.381  1.00  0.00    -0.181 NA
HETATM    6  C   UNL     1      40.812 -12.126   6.058  1.00  0.00     0.160 A 
HETATM    7  C   UNL     1      41.839 -12.763   5.318  1.00  0.00     0.096 A 
HETATM    8  C   UNL     1      40.326 -10.377   3.082  1.00  0.00     0.221 C 
HETATM    9  C   UNL     1      41.378 -10.332   1.961  1.00  0.00     0.066 C 
HETATM   10  H   UNL     1      43.082 -13.112   2.794  1.00  0.00     0.161 HD
ENDROOT
BRANCH   7  11
HETATM   11  C   UNL     1      42.657 -13.859   5.792  1.00  0.00     0.257 C 
HETATM   12  N   UNL     1      42.566 -15.027   5.071  1.00  0.00    -0.352 N 
HETATM   13  H   UNL     1      42.039 -15.032   4.209  1.00  0.00     0.163 HD
HETATM   14  O   UNL     1      43.396 -13.739   6.764  1.00  0.00    -0.267 OA
BRANCH  12  15
HETATM   15  C   UNL     1      43.307 -16.196   5.478  1.00  0.00     0.161 C 
BRANCH  15  16
HETATM   16  C   UNL     1      43.399 -17.241   4.397  1.00  0.00    -0.041 A 
HETATM   17  C   UNL     1      44.031 -18.470   4.635  1.00  0.00     0.009 A 
HETATM   18  C   UNL     1      44.052 -19.461   3.650  1.00  0.00     0.001 A 
HETATM   19  C   UNL     1      43.428 -19.239   2.425  1.00  0.00     0.000 A 
HETATM   20  C   UNL     1      42.786 -18.027   2.179  1.00  0.00     0.001 A 
HETATM   21  C   UNL     1      42.770 -17.033   3.160  1.00  0.00     0.009 A 
ENDBRANCH  15  16
ENDBRANCH  12  15
ENDBRANCH   7  11
BRANCH   1  22
HETATM   22  C   UNL     1      41.236 -12.671   0.849  1.00  0.00    -0.035 A 
HETATM   23  C   UNL     1      40.952 -13.981   1.275  1.00  0.00     0.012 A 
HETATM   24  C   UNL     1      40.225 -14.869   0.475  1.00  0.00     0.037 A 
HETATM   25  C   UNL     1      39.766 -14.472  -0.776  1.00  0.00     0.068 A 
HETATM   26  C   UNL     1      40.048 -13.181  -1.221  1.00  0.00     0.037 A 
HETATM   27  C   UNL     1      40.779 -12.292  -0.424  1.00  0.00     0.012 A 
BRANCH  25  28
HETATM   28  O   UNL     1      39.046 -15.241  -1.649  1.00  0.00    -0.356 OA
HETATM   29  C   UNL     1      38.735 -14.656  -2.908  1.00  0.00     0.210 C 
ENDBRANCH  25  28
ENDBRANCH   1  22
BRANCH   8  30
HETATM   30  C   UNL     1      38.956 -10.832   2.619  1.00  0.00     0.409 C 
HETATM   31  F   UNL     1      38.743 -12.154   2.756  1.00  0.00    -0.169 F 
HETATM   32  F   UNL     1      37.958 -10.191   3.271  1.00  0.00    -0.169 F 
HETATM   33  F   UNL     1      38.791 -10.536   1.301  1.00  0.00    -0.169 F 
ENDBRANCH   8  30
TORSDOF 6
ENDMDL
MODEL 5
REMARK VINA RESULT:      -8.4      4.214      7.145
REMARK  6 active torsions:
REMARK  status: ('A' for Active; 'I' for Inactive)
REMARK    1  A    between atoms: O_2  and  C_3 
REMARK    2  A    between atoms: C_6  and  C_7 
REMARK    3  A    between atoms: C_13  and  C_14 
REMARK       I    between atoms: C_14  and  N_15 
REMARK    4  A    between atoms: N_15  and  C_16 
REMARK    5  A    between atoms: C_16  and  C_17 
REMARK    6  A    between atoms: C_24  and  C_25 
ROOT
HETATM    1  C   UNL     1      43.380 -12.544   2.962  1.00  0.00     0.118 C 
HETATM    2  N   UNL     1      43.639 -11.974   4.290  1.00  0.00    -0.365 N 
HETATM    3  C   UNL     1      42.617 -11.518   5.064  1.00  0.00     0.138 A 
HETATM    4  N   UNL     1      41.366 -11.315   4.530  1.00  0.00    -0.240 N 
HETATM    5  N   UNL     1      40.474 -10.816   5.398  1.00  0.00    -0.181 NA
HETATM    6  C   UNL     1      41.148 -10.806   6.551  1.00  0.00     0.160 A 
HETATM    7  C   UNL     1      42.499 -11.211   6.408  1.00  0.00     0.096 A 
HETATM    8  C   UNL     1      40.986 -11.606   3.162  1.00  0.00     0.221 C 
HETATM    9  C   UNL     1      42.238 -11.767   2.283  1.00  0.00     0.066 C 
HETATM   10  H   UNL     1      44.464 -12.379   4.731  1.00  0.00     0.161 HD
ENDROOT
BRANCH   7  11
HETATM   11  C   UNL     1      43.465 -11.301   7.482  1.00  0.00     0.257 C 
HETATM   12  N   UNL     1      43.206 -10.520   8.585  1.00  0.00    -0.352 N 
HETATM   13  H   UNL     1      42.327 -10.023   8.639  1.00  0.00     0.163 HD
HETATM   14  O   UNL     1      44.438 -12.045   7.414  1.00  0.00    -0.267 OA
BRANCH  12  15
HETATM   15  C   UNL     1      44.123 -10.502   9.697  1.00  0.00     0.161 C 
BRANCH  15  16
HETATM   16  C   UNL     1      43.553  -9.829  10.919  1.00  0.00    -0.041 A 
HETATM   17  C   UNL     1      42.986 -10.582  11.958  1.00  0.00     0.009 A 
HETATM   18  C   UNL     1      42.522  -9.956  13.117  1.00  0.00     0.001 A 
HETATM   19  C   UNL     1      42.635  -8.575  13.257  1.00  0.00     0.000 A 
HETATM   20  C   UNL     1      43.207  -7.816  12.238  1.00  0.00     0.001 A 
HETATM   21  C   UNL     1      43.665  -8.439  11.075  1.00  0.00     0.009 A 
ENDBRANCH  15  16
ENDBRANCH  12  15
ENDBRANCH   7  11
BRANCH   1  22
HETATM   22  C   UNL     1      43.230 -14.058   2.987  1.00  0.00    -0.035 A 
HETATM   23  C   UNL     1      43.056 -14.788   4.175  1.00  0.00     0.012 A 
HETATM   24  C   UNL     1      42.948 -16.184   4.167  1.00  0.00     0.037 A 
HETATM   25  C   UNL     1      43.016 -16.887   2.969  1.00  0.00     0.068 A 
HETATM   26  C   UNL     1      43.201 -16.180   1.781  1.00  0.00     0.037 A 
HETATM   27  C   UNL     1      43.314 -14.784   1.788  1.00  0.00     0.012 A 
BRANCH  25  28
HETATM   28  O   UNL     1      42.922 -18.244   2.827  1.00  0.00    -0.356 OA
HETATM   29  C   UNL     1      44.127 -18.985   2.977  1.00  0.00     0.210 C 
ENDBRANCH  25  28
ENDBRANCH   1  22
BRANCH   8  30
HETATM   30  C   UNL     1      40.051 -12.799   3.120  1.00  0.00     0.409 C 
HETATM   31  F   UNL     1      40.215 -13.586   2.041  1.00  0.00    -0.169 F 
HETATM   32  F   UNL     1      40.173 -13.582   4.217  1.00  0.00    -0.169 F 
HETATM   33  F   UNL     1      38.759 -12.372   3.109  1.00  0.00    -0.169 F 
ENDBRANCH   8  30
TORSDOF 6
ENDMDL
MODEL 6
REMARK VINA RESULT:      -8.3      2.609      6.396
REMARK  6 active torsions:
REMARK  status: ('A' for Active; 'I' for Inactive)
REMARK    1  A    between atoms: O_2  and  C_3 
REMARK    2  A    between atoms: C_6  and  C_7 
REMARK    3  A    between atoms: C_13  and  C_14 
REMARK       I    between atoms: C_14  and  N_15 
REMARK    4  A    between atoms: N_15  and  C_16 
REMARK    5  A    between atoms: C_16  and  C_17 
REMARK    6  A    between atoms: C_24  and  C_25 
ROOT
HETATM    1  C   UNL     1      40.494 -14.835   5.194  1.00  0.00     0.118 C 
HETATM    2  N   UNL     1      39.769 -13.893   4.333  1.00  0.00    -0.365 N 
HETATM    3  C   UNL     1      40.275 -12.656   4.071  1.00  0.00     0.138 A 
HETATM    4  N   UNL     1      41.316 -12.150   4.812  1.00  0.00    -0.240 N 
HETATM    5  N   UNL     1      41.675 -10.903   4.474  1.00  0.00    -0.181 NA
HETATM    6  C   UNL     1      40.911 -10.649   3.408  1.00  0.00     0.160 A 
HETATM    7  C   UNL     1      39.998 -11.694   3.116  1.00  0.00     0.096 A 
HETATM    8  C   UNL     1      42.009 -12.859   5.870  1.00  0.00     0.221 C 
HETATM    9  C   UNL     1      41.176 -14.064   6.339  1.00  0.00     0.066 C 
HETATM   10  H   UNL     1      39.206 -14.367   3.629  1.00  0.00     0.161 HD
ENDROOT
BRANCH   7  11
HETATM   11  C   UNL     1      39.053 -11.698   2.021  1.00  0.00     0.257 C 
HETATM   12  N   UNL     1      39.572 -11.402   0.782  1.00  0.00    -0.352 N 
HETATM   13  H   UNL     1      40.573 -11.309   0.679  1.00  0.00     0.163 HD
HETATM   14  O   UNL     1      37.868 -11.970   2.192  1.00  0.00    -0.267 OA
BRANCH  12  15
HETATM   15  C   UNL     1      38.712 -11.339  -0.374  1.00  0.00     0.161 C 
BRANCH  15  16
HETATM   16  C   UNL     1      38.670 -12.631  -1.147  1.00  0.00    -0.041 A 
HETATM   17  C   UNL     1      37.846 -12.770  -2.274  1.00  0.00     0.009 A 
HETATM   18  C   UNL     1      37.864 -13.947  -3.026  1.00  0.00     0.001 A 
HETATM   19  C   UNL     1      38.715 -14.990  -2.669  1.00  0.00     0.000 A 
HETATM   20  C   UNL     1      39.547 -14.861  -1.559  1.00  0.00     0.001 A 
HETATM   21  C   UNL     1      39.526 -13.687  -0.802  1.00  0.00     0.009 A 
ENDBRANCH  15  16
ENDBRANCH  12  15
ENDBRANCH   7  11
BRANCH   1  22
HETATM   22  C   UNL     1      41.387 -15.785   4.410  1.00  0.00    -0.035 A 
HETATM   23  C   UNL     1      41.339 -15.898   3.010  1.00  0.00     0.012 A 
HETATM   24  C   UNL     1      42.155 -16.802   2.320  1.00  0.00     0.037 A 
HETATM   25  C   UNL     1      43.039 -17.621   3.015  1.00  0.00     0.068 A 
HETATM   26  C   UNL     1      43.092 -17.532   4.405  1.00  0.00     0.037 A 
HETATM   27  C   UNL     1      42.274 -16.631   5.097  1.00  0.00     0.012 A 
BRANCH  25  28
HETATM   28  O   UNL     1      43.888 -18.539   2.461  1.00  0.00    -0.356 OA
HETATM   29  C   UNL     1      43.349 -19.831   2.202  1.00  0.00     0.210 C 
ENDBRANCH  25  28
ENDBRANCH   1  22
BRANCH   8  30
HETATM   30  C   UNL     1      43.413 -13.220   5.427  1.00  0.00     0.409 C 
HETATM   31  F   UNL     1      43.948 -14.259   6.095  1.00  0.00    -0.169 F 
HETATM   32  F   UNL     1      43.471 -13.514   4.107  1.00  0.00    -0.169 F 
HETATM   33  F   UNL     1      44.243 -12.158   5.610  1.00  0.00    -0.169 F 
ENDBRANCH   8  30
TORSDOF 6
ENDMDL
MODEL 7
REMARK VINA RESULT:      -8.2      2.594      7.294
REMARK  6 active torsions:
REMARK  status: ('A' for Active; 'I' for Inactive)
REMARK    1  A    between atoms: O_2  and  C_3 
REMARK    2  A    between atoms: C_6  and  C_7 
REMARK    3  A    between atoms: C_13  and  C_14 
REMARK       I    between atoms: C_14  and  N_15 
REMARK    4  A    between atoms: N_15  and  C_16 
REMARK    5  A    between atoms: C_16  and  C_17 
REMARK    6  A    between atoms: C_24  and  C_25 
ROOT
HETATM    1  C   UNL     1      40.540 -15.273   4.952  1.00  0.00     0.118 C 
HETATM    2  N   UNL     1      40.220 -14.832   3.588  1.00  0.00    -0.365 N 
HETATM    3  C   UNL     1      40.827 -13.740   3.048  1.00  0.00     0.138 A 
HETATM    4  N   UNL     1      41.530 -12.862   3.839  1.00  0.00    -0.240 N 
HETATM    5  N   UNL     1      42.029 -11.807   3.178  1.00  0.00    -0.181 NA
HETATM    6  C   UNL     1      41.729 -12.080   1.906  1.00  0.00     0.160 A 
HETATM    7  C   UNL     1      40.959 -13.261   1.756  1.00  0.00     0.096 A 
HETATM    8  C   UNL     1      41.754 -13.018   5.263  1.00  0.00     0.221 C 
HETATM    9  C   UNL     1      40.768 -14.043   5.849  1.00  0.00     0.066 C 
HETATM   10  H   UNL     1      39.947 -15.607   2.985  1.00  0.00     0.161 HD
ENDROOT
BRANCH   7  11
HETATM   11  C   UNL     1      40.492 -13.804   0.499  1.00  0.00     0.257 C 
HETATM   12  N   UNL     1      40.860 -13.104  -0.627  1.00  0.00    -0.352 N 
HETATM   13  H   UNL     1      41.510 -12.335  -0.536  1.00  0.00     0.163 HD
HETATM   14  O   UNL     1      39.828 -14.834   0.448  1.00  0.00    -0.267 OA
BRANCH  12  15
HETATM   15  C   UNL     1      40.417 -13.533  -1.930  1.00  0.00     0.161 C 
BRANCH  15  16
HETATM   16  C   UNL     1      39.118 -12.895  -2.350  1.00  0.00    -0.041 A 
HETATM   17  C   UNL     1      37.996 -13.679  -2.658  1.00  0.00     0.009 A 
HETATM   18  C   UNL     1      36.776 -13.079  -2.978  1.00  0.00     0.001 A 
HETATM   19  C   UNL     1      36.661 -11.691  -2.980  1.00  0.00     0.000 A 
HETATM   20  C   UNL     1      37.764 -10.900  -2.665  1.00  0.00     0.001 A 
HETATM   21  C   UNL     1      38.986 -11.498  -2.350  1.00  0.00     0.009 A 
ENDBRANCH  15  16
ENDBRANCH  12  15
ENDBRANCH   7  11
BRANCH   1  22
HETATM   22  C   UNL     1      41.631 -16.333   4.990  1.00  0.00    -0.035 A 
HETATM   23  C   UNL     1      42.166 -16.835   6.189  1.00  0.00     0.012 A 
HETATM   24  C   UNL     1      43.189 -17.791   6.190  1.00  0.00     0.037 A 
HETATM   25  C   UNL     1      43.706 -18.267   4.989  1.00  0.00     0.068 A 
HETATM   26  C   UNL     1      43.196 -17.771   3.790  1.00  0.00     0.037 A 
HETATM   27  C   UNL     1      42.176 -16.812   3.787  1.00  0.00     0.012 A 
BRANCH  25  28
HETATM   28  O   UNL     1      44.700 -19.197   4.855  1.00  0.00    -0.356 OA
HETATM   29  C   UNL     1      44.326 -20.559   5.031  1.00  0.00     0.210 C 
ENDBRANCH  25  28
ENDBRANCH   1  22
BRANCH   8  30
HETATM   30  C   UNL     1      43.209 -13.345   5.532  1.00  0.00     0.409 C 
HETATM   31  F   UNL     1      44.010 -12.266   5.597  1.00  0.00    -0.169 F 
HETATM   32  F   UNL     1      43.372 -14.040   6.682  1.00  0.00    -0.169 F 
HETATM   33  F   UNL     1      43.694 -14.143   4.543  1.00  0.00    -0.169 F 
ENDBRANCH   8  30
TORSDOF 6
ENDMDL
MODEL 8
REMARK VINA RESULT:      -8.0      3.786      6.357
REMARK  6 active torsions:
REMARK  status: ('A' for Active; 'I' for Inactive)
REMARK    1  A    between atoms: O_2  and  C_3 
REMARK    2  A    between atoms: C_6  and  C_7 
REMARK    3  A    between atoms: C_13  and  C_14 
REMARK       I    between atoms: C_14  and  N_15 
REMARK    4  A    between atoms: N_15  and  C_16 
REMARK    5  A    between atoms: C_16  and  C_17 
REMARK    6  A    between atoms: C_24  and  C_25 
ROOT
HETATM    1  C   UNL     1      39.837 -14.687   2.510  1.00  0.00     0.118 C 
HETATM    2  N   UNL     1      40.070 -13.934   3.748  1.00  0.00    -0.365 N 
HETATM    3  C   UNL     1      41.235 -14.071   4.439  1.00  0.00     0.138 A 
HETATM    4  N   UNL     1      42.098 -15.107   4.166  1.00  0.00    -0.240 N 
HETATM    5  N   UNL     1      43.179 -15.143   4.958  1.00  0.00    -0.181 NA
HETATM    6  C   UNL     1      43.056 -14.030   5.686  1.00  0.00     0.160 A 
HETATM    7  C   UNL     1      41.854 -13.326   5.427  1.00  0.00     0.096 A 
HETATM    8  C   UNL     1      41.912 -16.093   3.119  1.00  0.00     0.221 C 
HETATM    9  C   UNL     1      40.451 -16.093   2.640  1.00  0.00     0.066 C 
HETATM   10  H   UNL     1      39.582 -13.040   3.755  1.00  0.00     0.161 HD
ENDROOT
BRANCH   7  11
HETATM   11  C   UNL     1      41.454 -12.089   6.062  1.00  0.00     0.257 C 
HETATM   12  N   UNL     1      42.472 -11.343   6.610  1.00  0.00    -0.352 N 
HETATM   13  H   UNL     1      43.429 -11.627   6.451  1.00  0.00     0.163 HD
HETATM   14  O   UNL     1      40.282 -11.725   6.087  1.00  0.00    -0.267 OA
BRANCH  12  15
HETATM   15  C   UNL     1      42.183 -10.111   7.302  1.00  0.00     0.161 C 
BRANCH  15  16
HETATM   16  C   UNL     1      43.121  -9.848   8.451  1.00  0.00    -0.041 A 
HETATM   17  C   UNL     1      42.634  -9.433   9.699  1.00  0.00     0.009 A 
HETATM   18  C   UNL     1      43.503  -9.258  10.779  1.00  0.00     0.001 A 
HETATM   19  C   UNL     1      44.864  -9.510  10.627  1.00  0.00     0.000 A 
HETATM   20  C   UNL     1      45.360  -9.934   9.396  1.00  0.00     0.001 A 
HETATM   21  C   UNL     1      44.494 -10.103   8.314  1.00  0.00     0.009 A 
ENDBRANCH  15  16
ENDBRANCH  12  15
ENDBRANCH   7  11
BRANCH   1  22
HETATM   22  C   UNL     1      40.224 -13.907   1.262  1.00  0.00    -0.035 A 
HETATM   23  C   UNL     1      40.857 -12.654   1.311  1.00  0.00     0.012 A 
HETATM   24  C   UNL     1      41.175 -11.948   0.144  1.00  0.00     0.037 A 
HETATM   25  C   UNL     1      40.864 -12.479  -1.104  1.00  0.00     0.068 A 
HETATM   26  C   UNL     1      40.224 -13.716  -1.171  1.00  0.00     0.037 A 
HETATM   27  C   UNL     1      39.901 -14.420  -0.005  1.00  0.00     0.012 A 
BRANCH  25  28
HETATM   28  O   UNL     1      41.123 -11.893  -2.312  1.00  0.00    -0.356 OA
HETATM   29  C   UNL     1      40.562 -10.604  -2.530  1.00  0.00     0.210 C 
ENDBRANCH  25  28
ENDBRANCH   1  22
BRANCH   8  30
HETATM   30  C   UNL     1      42.921 -15.877   2.009  1.00  0.00     0.409 C 
HETATM   31  F   UNL     1      42.431 -16.093   0.774  1.00  0.00    -0.169 F 
HETATM   32  F   UNL     1      43.439 -14.627   2.027  1.00  0.00    -0.169 F 
HETATM   33  F   UNL     1      43.976 -16.720   2.173  1.00  0.00    -0.169 F 
ENDBRANCH   8  30
TORSDOF 6
ENDMDL
MODEL 9
REMARK VINA RESULT:      -7.9      3.888      5.312
REMARK  6 active torsions:
REMARK  status: ('A' for Active; 'I' for Inactive)
REMARK    1  A    between atoms: O_2  and  C_3 
REMARK    2  A    between atoms: C_6  and  C_7 
REMARK    3  A    between atoms: C_13  and  C_14 
REMARK       I    between atoms: C_14  and  N_15 
REMARK    4  A    between atoms: N_15  and  C_16 
REMARK    5  A    between atoms: C_16  and  C_17 
REMARK    6  A    between atoms: C_24  and  C_25 
ROOT
HETATM    1  C   UNL     1      38.920 -10.561   0.099  1.00  0.00     0.118 C 
HETATM    2  N   UNL     1      39.535 -11.571   0.969  1.00  0.00    -0.365 N 
HETATM    3  C   UNL     1      39.732 -12.845   0.529  1.00  0.00     0.138 A 
HETATM    4  N   UNL     1      39.118 -13.297  -0.615  1.00  0.00    -0.240 N 
HETATM    5  N   UNL     1      39.364 -14.584  -0.897  1.00  0.00    -0.181 NA
HETATM    6  C   UNL     1      40.253 -14.932   0.037  1.00  0.00     0.160 A 
HETATM    7  C   UNL     1      40.511 -13.899   0.973  1.00  0.00     0.096 A 
HETATM    8  C   UNL     1      38.278 -12.495  -1.483  1.00  0.00     0.221 C 
HETATM    9  C   UNL     1      37.821 -11.219  -0.754  1.00  0.00     0.066 C 
HETATM   10  H   UNL     1      40.188 -11.162   1.637  1.00  0.00     0.161 HD
ENDROOT
BRANCH   7  11
HETATM   11  C   UNL     1      41.429 -13.988   2.087  1.00  0.00     0.257 C 
HETATM   12  N   UNL     1      42.081 -15.191   2.229  1.00  0.00    -0.352 N 
HETATM   13  H   UNL     1      41.979 -15.893   1.508  1.00  0.00     0.163 HD
HETATM   14  O   UNL     1      41.622 -13.040   2.842  1.00  0.00    -0.267 OA
BRANCH  12  15
HETATM   15  C   UNL     1      42.989 -15.404   3.329  1.00  0.00     0.161 C 
BRANCH  15  16
HETATM   16  C   UNL     1      43.406 -16.843   3.478  1.00  0.00    -0.041 A 
HETATM   17  C   UNL     1      43.932 -17.320   4.688  1.00  0.00     0.009 A 
HETATM   18  C   UNL     1      44.251 -18.671   4.841  1.00  0.00     0.001 A 
HETATM   19  C   UNL     1      44.035 -19.562   3.792  1.00  0.00     0.000 A 
HETATM   20  C   UNL     1      43.503 -19.104   2.588  1.00  0.00     0.001 A 
HETATM   21  C   UNL     1      43.189 -17.752   2.432  1.00  0.00     0.009 A 
ENDBRANCH  15  16
ENDBRANCH  12  15
ENDBRANCH   7  11
BRANCH   1  22
HETATM   22  C   UNL     1      39.945  -9.734  -0.662  1.00  0.00    -0.035 A 
HETATM   23  C   UNL     1      39.587  -8.736  -1.586  1.00  0.00     0.012 A 
HETATM   24  C   UNL     1      40.555  -8.011  -2.290  1.00  0.00     0.037 A 
HETATM   25  C   UNL     1      41.907  -8.267  -2.092  1.00  0.00     0.068 A 
HETATM   26  C   UNL     1      42.281  -9.262  -1.189  1.00  0.00     0.037 A 
HETATM   27  C   UNL     1      41.315  -9.992  -0.486  1.00  0.00     0.012 A 
BRANCH  25  28
HETATM   28  O   UNL     1      42.945  -7.630  -2.714  1.00  0.00    -0.356 OA
HETATM   29  C   UNL     1      42.725  -7.211  -4.056  1.00  0.00     0.210 C 
ENDBRANCH  25  28
ENDBRANCH   1  22
BRANCH   8  30
HETATM   30  C   UNL     1      38.985 -12.229  -2.797  1.00  0.00     0.409 C 
HETATM   31  F   UNL     1      38.840 -13.213  -3.705  1.00  0.00    -0.169 F 
HETATM   32  F   UNL     1      38.570 -11.078  -3.376  1.00  0.00    -0.169 F 
HETATM   33  F   UNL     1      40.319 -12.079  -2.582  1.00  0.00    -0.169 F 
ENDBRANCH   8  30
TORSDOF 6
ENDMDL
MODEL 10
REMARK VINA RESULT:      -7.4      3.208      4.699
REMARK  6 active torsions:
REMARK  status: ('A' for Active; 'I' for Inactive)
REMARK    1  A    between atoms: O_2  and  C_3 
REMARK    2  A    between atoms: C_6  and  C_7 
REMARK    3  A    between atoms: C_13  and  C_14 
REMARK       I    between atoms: C_14  and  N_15 
REMARK    4  A    between atoms: N_15  and  C_16 
REMARK    5  A    between atoms: C_16  and  C_17 
REMARK    6  A    between atoms: C_24  and  C_25 
ROOT
HETATM    1  C   UNL     1      40.854 -11.224  -2.399  1.00  0.00     0.118 C 
HETATM    2  N   UNL     1      41.067 -12.382  -1.522  1.00  0.00    -0.365 N 
HETATM    3  C   UNL     1      41.186 -12.225  -0.175  1.00  0.00     0.138 A 
HETATM    4  N   UNL     1      41.392 -10.981   0.373  1.00  0.00    -0.240 N 
HETATM    5  N   UNL     1      41.539 -10.986   1.706  1.00  0.00    -0.181 NA
HETATM    6  C   UNL     1      41.309 -12.261   2.029  1.00  0.00     0.160 A 
HETATM    7  C   UNL     1      41.103 -13.093   0.899  1.00  0.00     0.096 A 
HETATM    8  C   UNL     1      41.443  -9.739  -0.374  1.00  0.00     0.221 C 
HETATM    9  C   UNL     1      41.659 -10.024  -1.870  1.00  0.00     0.066 C 
HETATM   10  H   UNL     1      40.648 -13.233  -1.896  1.00  0.00     0.161 HD
ENDROOT
BRANCH   7  11
HETATM   11  C   UNL     1      40.828 -14.513   0.943  1.00  0.00     0.257 C 
HETATM   12  N   UNL     1      41.540 -15.230   1.877  1.00  0.00    -0.352 N 
HETATM   13  H   UNL     1      42.118 -14.733   2.541  1.00  0.00     0.163 HD
HETATM   14  O   UNL     1      39.997 -15.033   0.205  1.00  0.00    -0.267 OA
BRANCH  12  15
HETATM   15  C   UNL     1      41.375 -16.659   1.981  1.00  0.00     0.161 C 
BRANCH  15  16
HETATM   16  C   UNL     1      42.433 -17.314   2.830  1.00  0.00    -0.041 A 
HETATM   17  C   UNL     1      43.099 -18.468   2.389  1.00  0.00     0.009 A 
HETATM   18  C   UNL     1      44.127 -19.029   3.150  1.00  0.00     0.001 A 
HETATM   19  C   UNL     1      44.510 -18.435   4.350  1.00  0.00     0.000 A 
HETATM   20  C   UNL     1      43.866 -17.282   4.794  1.00  0.00     0.001 A 
HETATM   21  C   UNL     1      42.833 -16.723   4.037  1.00  0.00     0.009 A 
ENDBRANCH  15  16
ENDBRANCH  12  15
ENDBRANCH   7  11
BRANCH   1  22
HETATM   22  C   UNL     1      39.383 -10.961  -2.684  1.00  0.00    -0.035 A 
HETATM   23  C   UNL     1      38.351 -11.774  -2.184  1.00  0.00     0.012 A 
HETATM   24  C   UNL     1      37.008 -11.522  -2.488  1.00  0.00     0.037 A 
HETATM   25  C   UNL     1      36.662 -10.450  -3.305  1.00  0.00     0.068 A 
HETATM   26  C   UNL     1      37.673  -9.640  -3.820  1.00  0.00     0.037 A 
HETATM   27  C   UNL     1      39.017  -9.894  -3.521  1.00  0.00     0.012 A 
BRANCH  25  28
HETATM   28  O   UNL     1      35.393 -10.097  -3.672  1.00  0.00    -0.356 OA
HETATM   29  C   UNL     1      34.504 -11.160  -3.998  1.00  0.00     0.210 C 
ENDBRANCH  25  28
ENDBRANCH   1  22
BRANCH   8  30
HETATM   30  C   UNL     1      40.214  -8.900  -0.082  1.00  0.00     0.409 C 
HETATM   31  F   UNL     1      39.107  -9.622   0.172  1.00  0.00    -0.169 F 
HETATM   32  F   UNL     1      40.404  -8.066   0.967  1.00  0.00    -0.169 F 
HETATM   33  F   UNL     1      39.935  -8.103  -1.148  1.00  0.00    -0.169 F 
ENDBRANCH   8  30
TORSDOF 6
ENDMDL
