MODEL 1
REMARK VINA RESULT:      -8.6      0.000      0.000
REMARK  3 active torsions:
REMARK  status: ('A' for Active; 'I' for Inactive)
REMARK    1  A    between atoms: C_6  and  N_7 
REMARK       I    between atoms: N_7  and  C_8 
REMARK    2  A    between atoms: C_8  and  C_9 
REMARK    3  A    between atoms: C_9  and  C_10 
ROOT
HETATM    1  C   UNL     1      40.014 -13.669   2.605  1.00  0.00     0.286 C 
HETATM    2  N   UNL     1      40.796 -12.813   1.605  1.00  0.00    -0.056 N 
HETATM    3  H   UNL     1      40.771 -11.839   1.970  1.00  0.00     0.278 HD
HETATM    4  H   UNL     1      41.785 -13.090   1.595  1.00  0.00     0.278 HD
HETATM    5  C   UNL     1      40.186 -12.898   0.241  1.00  0.00     0.209 C 
HETATM    6  C   UNL     1      40.239 -14.373  -0.222  1.00  0.00     0.115 C 
HETATM    7  N   UNL     1      39.660 -15.289   0.760  1.00  0.00    -0.353 N 
HETATM    8  C   UNL     1      39.838 -15.122   2.118  1.00  0.00     0.249 C 
HETATM    9  O   UNL     1      39.756 -16.079   2.878  1.00  0.00    -0.271 OA
HETATM   10  C   UNL     1      40.930 -11.995  -0.733  1.00  0.00     0.035 C 
HETATM   11  C   UNL     1      40.312 -12.117  -2.127  1.00  0.00     0.002 C 
HETATM   12  C   UNL     1      40.243 -13.568  -2.609  1.00  0.00     0.002 C 
HETATM   13  C   UNL     1      39.577 -14.501  -1.593  1.00  0.00     0.027 C 
HETATM   14  H   UNL     1      39.571 -16.270   0.497  1.00  0.00     0.163 HD
ENDROOT
BRANCH   1  15
HETATM   15  C   UNL     1      40.650 -13.573   3.995  1.00  0.00     0.146 C 
BRANCH  15  16
HETATM   16  C   UNL     1      42.093 -13.170   3.815  1.00  0.00     0.224 C 
HETATM   17  N   UNL     1      43.078 -14.010   3.424  1.00  0.00    -0.327 N 
HETATM   18  H   UNL     1      43.907 -13.496   3.135  1.00  0.00     0.169 HD
HETATM   19  O   UNL     1      42.359 -11.962   3.925  1.00  0.00    -0.273 OA
BRANCH  17  20
HETATM   20  C   UNL     1      43.220 -15.409   3.357  1.00  0.00     0.035 A 
HETATM   21  C   UNL     1      43.434 -16.258   4.442  1.00  0.00     0.037 A 
HETATM   22  C   UNL     1      43.581 -17.649   4.266  1.00  0.00    -0.054 A 
HETATM   23  C   UNL     1      43.527 -18.197   2.971  1.00  0.00    -0.056 A 
HETATM   24  C   UNL     1      43.781 -18.527   5.474  1.00  0.00     0.049 C 
HETATM   25  C   UNL     1      43.698 -19.672   2.724  1.00  0.00     0.049 C 
HETATM   26  C   UNL     1      43.366 -17.338   1.880  1.00  0.00     0.009 A 
HETATM   27  C   UNL     1      43.218 -15.962   2.072  1.00  0.00     0.030 A 
ENDBRANCH  17  20
ENDBRANCH  15  16
ENDBRANCH   1  15
TORSDOF 3
ENDMDL
MODEL 2
REMARK VINA RESULT:      -8.5      3.299      5.817
REMARK  3 active torsions:
REMARK  status: ('A' for Active; 'I' for Inactive)
REMARK    1  A    between atoms: C_6  and  N_7 
REMARK       I    between atoms: N_7  and  C_8 
REMARK    2  A    between atoms: C_8  and  C_9 
REMARK    3  A    between atoms: C_9  and  C_10 
ROOT
HETATM    1  C   UNL     1      41.714 -13.576   5.784  1.00  0.00     0.286 C 
HETATM    2  N   UNL     1      43.193 -13.200   5.663  1.00  0.00    -0.056 N 
HETATM    3  H   UNL     1      43.726 -14.093   5.686  1.00  0.00     0.278 HD
HETATM    4  H   UNL     1      43.379 -12.778   4.745  1.00  0.00     0.278 HD
HETATM    5  C   UNL     1      43.604 -12.293   6.780  1.00  0.00     0.209 C 
HETATM    6  C   UNL     1      42.757 -11.003   6.693  1.00  0.00     0.115 C 
HETATM    7  N   UNL     1      41.322 -11.278   6.633  1.00  0.00    -0.353 N 
HETATM    8  C   UNL     1      40.805 -12.337   5.914  1.00  0.00     0.249 C 
HETATM    9  O   UNL     1      39.652 -12.304   5.503  1.00  0.00    -0.271 OA
HETATM   10  C   UNL     1      45.090 -11.976   6.690  1.00  0.00     0.035 C 
HETATM   11  C   UNL     1      45.487 -11.025   7.821  1.00  0.00     0.002 C 
HETATM   12  C   UNL     1      44.619  -9.764   7.854  1.00  0.00     0.002 C 
HETATM   13  C   UNL     1      43.119 -10.076   7.853  1.00  0.00     0.027 C 
HETATM   14  H   UNL     1      40.685 -10.483   6.666  1.00  0.00     0.163 HD
ENDROOT
BRANCH   1  15
HETATM   15  C   UNL     1      41.307 -14.503   4.635  1.00  0.00     0.146 C 
BRANCH  15  16
HETATM   16  C   UNL     1      42.295 -14.305   3.511  1.00  0.00     0.224 C 
HETATM   17  N   UNL     1      43.031 -15.295   2.957  1.00  0.00    -0.327 N 
HETATM   18  H   UNL     1      43.440 -14.999   2.074  1.00  0.00     0.169 HD
HETATM   19  O   UNL     1      42.343 -13.176   2.995  1.00  0.00    -0.273 OA
BRANCH  17  20
HETATM   20  C   UNL     1      43.372 -16.607   3.335  1.00  0.00     0.035 A 
HETATM   21  C   UNL     1      43.266 -17.740   2.529  1.00  0.00     0.037 A 
HETATM   22  C   UNL     1      43.618 -19.018   3.010  1.00  0.00    -0.054 A 
HETATM   23  C   UNL     1      44.071 -19.163   4.335  1.00  0.00    -0.056 A 
HETATM   24  C   UNL     1      43.514 -20.206   2.090  1.00  0.00     0.049 C 
HETATM   25  C   UNL     1      44.439 -20.505   4.906  1.00  0.00     0.049 C 
HETATM   26  C   UNL     1      44.124 -18.034   5.158  1.00  0.00     0.009 A 
HETATM   27  C   UNL     1      43.776 -16.775   4.664  1.00  0.00     0.030 A 
ENDBRANCH  17  20
ENDBRANCH  15  16
ENDBRANCH   1  15
TORSDOF 3
ENDMDL
MODEL 3
REMARK VINA RESULT:      -8.5      2.134      3.169
REMARK  3 active torsions:
REMARK  status: ('A' for Active; 'I' for Inactive)
REMARK    1  A    between atoms: C_6  and  N_7 
REMARK       I    between atoms: N_7  and  C_8 
REMARK    2  A    between atoms: C_8  and  C_9 
REMARK    3  A    between atoms: C_9  and  C_10 
ROOT
HETATM    1  C   UNL     1      40.965 -14.698   4.970  1.00  0.00     0.286 C 
HETATM    2  N   UNL     1      40.670 -15.405   3.645  1.00  0.00    -0.056 N 
HETATM    3  H   UNL     1      41.437 -16.094   3.502  1.00  0.00     0.278 HD
HETATM    4  H   UNL     1      39.803 -15.951   3.716  1.00  0.00     0.278 HD
HETATM    5  C   UNL     1      40.609 -14.420   2.519  1.00  0.00     0.209 C 
HETATM    6  C   UNL     1      39.466 -13.420   2.812  1.00  0.00     0.115 C 
HETATM    7  N   UNL     1      39.576 -12.817   4.140  1.00  0.00    -0.353 N 
HETATM    8  C   UNL     1      39.987 -13.537   5.243  1.00  0.00     0.249 C 
HETATM    9  O   UNL     1      39.657 -13.188   6.370  1.00  0.00    -0.271 OA
HETATM   10  C   UNL     1      40.381 -15.136   1.195  1.00  0.00     0.035 C 
HETATM   11  C   UNL     1      40.291 -14.113   0.061  1.00  0.00     0.002 C 
HETATM   12  C   UNL     1      39.242 -13.032   0.332  1.00  0.00     0.002 C 
HETATM   13  C   UNL     1      39.412 -12.370   1.703  1.00  0.00     0.027 C 
HETATM   14  H   UNL     1      38.916 -12.079   4.381  1.00  0.00     0.163 HD
ENDROOT
BRANCH   1  15
HETATM   15  C   UNL     1      41.023 -15.717   6.112  1.00  0.00     0.146 C 
BRANCH  15  16
HETATM   16  C   UNL     1      42.434 -15.731   6.646  1.00  0.00     0.224 C 
HETATM   17  N   UNL     1      43.457 -16.415   6.087  1.00  0.00    -0.327 N 
HETATM   18  H   UNL     1      44.353 -16.100   6.451  1.00  0.00     0.169 HD
HETATM   19  O   UNL     1      42.685 -14.968   7.595  1.00  0.00    -0.273 OA
BRANCH  17  20
HETATM   20  C   UNL     1      43.555 -17.465   5.155  1.00  0.00     0.035 A 
HETATM   21  C   UNL     1      43.761 -18.810   5.461  1.00  0.00     0.037 A 
HETATM   22  C   UNL     1      43.862 -19.786   4.448  1.00  0.00    -0.054 A 
HETATM   23  C   UNL     1      43.771 -19.400   3.098  1.00  0.00    -0.056 A 
HETATM   24  C   UNL     1      44.055 -21.230   4.834  1.00  0.00     0.049 C 
HETATM   25  C   UNL     1      43.894 -20.397   1.977  1.00  0.00     0.049 C 
HETATM   26  C   UNL     1      43.619 -18.045   2.792  1.00  0.00     0.009 A 
HETATM   27  C   UNL     1      43.516 -17.091   3.807  1.00  0.00     0.030 A 
ENDBRANCH  17  20
ENDBRANCH  15  16
ENDBRANCH   1  15
TORSDOF 3
ENDMDL
MODEL 4
REMARK VINA RESULT:      -8.0      2.110      6.422
REMARK  3 active torsions:
REMARK  status: ('A' for Active; 'I' for Inactive)
REMARK    1  A    between atoms: C_6  and  N_7 
REMARK       I    between atoms: N_7  and  C_8 
REMARK    2  A    between atoms: C_8  and  C_9 
REMARK    3  A    between atoms: C_9  and  C_10 
ROOT
HETATM    1  C   UNL     1      42.521 -16.118   4.934  1.00  0.00     0.286 C 
HETATM    2  N   UNL     1      42.866 -16.682   3.554  1.00  0.00    -0.056 N 
HETATM    3  H   UNL     1      42.127 -16.343   2.905  1.00  0.00     0.278 HD
HETATM    4  H   UNL     1      43.750 -16.282   3.216  1.00  0.00     0.278 HD
HETATM    5  C   UNL     1      42.916 -18.177   3.588  1.00  0.00     0.209 C 
HETATM    6  C   UNL     1      44.018 -18.603   4.586  1.00  0.00     0.115 C 
HETATM    7  N   UNL     1      43.860 -17.972   5.896  1.00  0.00    -0.353 N 
HETATM    8  C   UNL     1      43.452 -16.660   6.037  1.00  0.00     0.249 C 
HETATM    9  O   UNL     1      43.747 -16.023   7.041  1.00  0.00    -0.271 OA
HETATM   10  C   UNL     1      43.196 -18.733   2.198  1.00  0.00     0.035 C 
HETATM   11  C   UNL     1      43.273 -20.260   2.257  1.00  0.00     0.002 C 
HETATM   12  C   UNL     1      44.279 -20.754   3.301  1.00  0.00     0.002 C 
HETATM   13  C   UNL     1      44.059 -20.128   4.681  1.00  0.00     0.027 C 
HETATM   14  H   UNL     1      44.489 -18.265   6.642  1.00  0.00     0.163 HD
ENDROOT
BRANCH   1  15
HETATM   15  C   UNL     1      42.474 -14.588   4.884  1.00  0.00     0.146 C 
BRANCH  15  16
HETATM   16  C   UNL     1      41.059 -14.159   5.183  1.00  0.00     0.224 C 
HETATM   17  N   UNL     1      40.077 -14.066   4.257  1.00  0.00    -0.327 N 
HETATM   18  H   UNL     1      39.162 -14.000   4.697  1.00  0.00     0.169 HD
HETATM   19  O   UNL     1      40.759 -13.995   6.377  1.00  0.00    -0.273 OA
BRANCH  17  20
HETATM   20  C   UNL     1      40.043 -14.011   2.851  1.00  0.00     0.035 A 
HETATM   21  C   UNL     1      39.949 -12.851   2.084  1.00  0.00     0.037 A 
HETATM   22  C   UNL     1      39.903 -12.905   0.675  1.00  0.00    -0.054 A 
HETATM   23  C   UNL     1      39.935 -14.152   0.025  1.00  0.00    -0.056 A 
HETATM   24  C   UNL     1      39.833 -11.620  -0.109  1.00  0.00     0.049 C 
HETATM   25  C   UNL     1      39.868 -14.269  -1.474  1.00  0.00     0.049 C 
HETATM   26  C   UNL     1      39.974 -15.316   0.798  1.00  0.00     0.009 A 
HETATM   27  C   UNL     1      40.024 -15.245   2.192  1.00  0.00     0.030 A 
ENDBRANCH  17  20
ENDBRANCH  15  16
ENDBRANCH   1  15
TORSDOF 3
ENDMDL
MODEL 5
REMARK VINA RESULT:      -7.9      3.778      6.914
REMARK  3 active torsions:
REMARK  status: ('A' for Active; 'I' for Inactive)
REMARK    1  A    between atoms: C_6  and  N_7 
REMARK       I    between atoms: N_7  and  C_8 
REMARK    2  A    between atoms: C_8  and  C_9 
REMARK    3  A    between atoms: C_9  and  C_10 
ROOT
HETATM    1  C   UNL     1      42.085 -14.296   4.953  1.00  0.00     0.286 C 
HETATM    2  N   UNL     1      42.441 -14.859   3.575  1.00  0.00    -0.056 N 
HETATM    3  H   UNL     1      41.660 -14.598   2.939  1.00  0.00     0.278 HD
HETATM    4  H   UNL     1      43.280 -14.393   3.205  1.00  0.00     0.278 HD
HETATM    5  C   UNL     1      42.618 -16.344   3.636  1.00  0.00     0.209 C 
HETATM    6  C   UNL     1      43.777 -16.654   4.612  1.00  0.00     0.115 C 
HETATM    7  N   UNL     1      43.601 -16.010   5.913  1.00  0.00    -0.353 N 
HETATM    8  C   UNL     1      43.087 -14.735   6.040  1.00  0.00     0.249 C 
HETATM    9  O   UNL     1      43.353 -14.054   7.023  1.00  0.00    -0.271 OA
HETATM   10  C   UNL     1      42.909 -16.904   2.251  1.00  0.00     0.035 C 
HETATM   11  C   UNL     1      43.116 -18.418   2.337  1.00  0.00     0.002 C 
HETATM   12  C   UNL     1      44.186 -18.802   3.362  1.00  0.00     0.002 C 
HETATM   13  C   UNL     1      43.949 -18.168   4.735  1.00  0.00     0.027 C 
HETATM   14  H   UNL     1      44.271 -16.234   6.647  1.00  0.00     0.163 HD
ENDROOT
BRANCH   1  15
HETATM   15  C   UNL     1      41.909 -12.777   4.874  1.00  0.00     0.146 C 
BRANCH  15  16
HETATM   16  C   UNL     1      43.141 -12.203   4.220  1.00  0.00     0.224 C 
HETATM   17  N   UNL     1      44.173 -11.642   4.892  1.00  0.00    -0.327 N 
HETATM   18  H   UNL     1      44.990 -11.544   4.296  1.00  0.00     0.169 HD
HETATM   19  O   UNL     1      43.257 -12.364   2.994  1.00  0.00    -0.273 OA
BRANCH  17  20
HETATM   20  C   UNL     1      44.353 -11.148   6.198  1.00  0.00     0.035 A 
HETATM   21  C   UNL     1      43.380 -10.514   6.969  1.00  0.00     0.037 A 
HETATM   22  C   UNL     1      43.667 -10.037   8.265  1.00  0.00    -0.054 A 
HETATM   23  C   UNL     1      44.964 -10.186   8.790  1.00  0.00    -0.056 A 
HETATM   24  C   UNL     1      42.572  -9.386   9.070  1.00  0.00     0.049 C 
HETATM   25  C   UNL     1      45.331  -9.677  10.158  1.00  0.00     0.049 C 
HETATM   26  C   UNL     1      45.952 -10.772   7.994  1.00  0.00     0.009 A 
HETATM   27  C   UNL     1      45.650 -11.244   6.714  1.00  0.00     0.030 A 
ENDBRANCH  17  20
ENDBRANCH  15  16
ENDBRANCH   1  15
TORSDOF 3
ENDMDL
MODEL 6
REMARK VINA RESULT:      -7.8      1.730      2.435
REMARK  3 active torsions:
REMARK  status: ('A' for Active; 'I' for Inactive)
REMARK    1  A    between atoms: C_6  and  N_7 
REMARK       I    between atoms: N_7  and  C_8 
REMARK    2  A    between atoms: C_8  and  C_9 
REMARK    3  A    between atoms: C_9  and  C_10 
ROOT
HETATM    1  C   UNL     1      39.952 -14.252   2.766  1.00  0.00     0.286 C 
HETATM    2  N   UNL     1      39.933 -12.722   2.772  1.00  0.00    -0.056 N 
HETATM    3  H   UNL     1      39.682 -12.435   3.740  1.00  0.00     0.278 HD
HETATM    4  H   UNL     1      40.876 -12.352   2.598  1.00  0.00     0.278 HD
HETATM    5  C   UNL     1      38.945 -12.198   1.777  1.00  0.00     0.209 C 
HETATM    6  C   UNL     1      39.370 -12.682   0.372  1.00  0.00     0.115 C 
HETATM    7  N   UNL     1      39.577 -14.128   0.316  1.00  0.00    -0.353 N 
HETATM    8  C   UNL     1      40.165 -14.828   1.351  1.00  0.00     0.249 C 
HETATM    9  O   UNL     1      40.730 -15.894   1.138  1.00  0.00    -0.271 OA
HETATM   10  C   UNL     1      38.885 -10.678   1.835  1.00  0.00     0.035 C 
HETATM   11  C   UNL     1      37.893 -10.159   0.792  1.00  0.00     0.002 C 
HETATM   12  C   UNL     1      38.198 -10.681  -0.615  1.00  0.00     0.002 C 
HETATM   13  C   UNL     1      38.350 -12.204  -0.662  1.00  0.00     0.027 C 
HETATM   14  H   UNL     1      39.770 -14.545  -0.594  1.00  0.00     0.163 HD
ENDROOT
BRANCH   1  15
HETATM   15  C   UNL     1      40.968 -14.773   3.787  1.00  0.00     0.146 C 
BRANCH  15  16
HETATM   16  C   UNL     1      42.347 -14.431   3.280  1.00  0.00     0.224 C 
HETATM   17  N   UNL     1      43.312 -15.342   3.017  1.00  0.00    -0.327 N 
HETATM   18  H   UNL     1      44.063 -14.933   2.466  1.00  0.00     0.169 HD
HETATM   19  O   UNL     1      42.561 -13.245   2.982  1.00  0.00    -0.273 OA
BRANCH  17  20
HETATM   20  C   UNL     1      43.518 -16.693   3.352  1.00  0.00     0.035 A 
HETATM   21  C   UNL     1      43.377 -17.777   2.486  1.00  0.00     0.037 A 
HETATM   22  C   UNL     1      43.589 -19.100   2.927  1.00  0.00    -0.054 A 
HETATM   23  C   UNL     1      43.934 -19.339   4.270  1.00  0.00    -0.056 A 
HETATM   24  C   UNL     1      43.454 -20.234   1.944  1.00  0.00     0.049 C 
HETATM   25  C   UNL     1      44.151 -20.732   4.798  1.00  0.00     0.049 C 
HETATM   26  C   UNL     1      44.021 -18.256   5.148  1.00  0.00     0.009 A 
HETATM   27  C   UNL     1      43.812 -16.951   4.695  1.00  0.00     0.030 A 
ENDBRANCH  17  20
ENDBRANCH  15  16
ENDBRANCH   1  15
TORSDOF 3
ENDMDL
MODEL 7
REMARK VINA RESULT:      -7.8      2.059      6.163
REMARK  3 active torsions:
REMARK  status: ('A' for Active; 'I' for Inactive)
REMARK    1  A    between atoms: C_6  and  N_7 
REMARK       I    between atoms: N_7  and  C_8 
REMARK    2  A    between atoms: C_8  and  C_9 
REMARK    3  A    between atoms: C_9  and  C_10 
ROOT
HETATM    1  C   UNL     1      41.893 -14.943   5.431  1.00  0.00     0.286 C 
HETATM    2  N   UNL     1      42.239 -15.287   3.980  1.00  0.00    -0.056 N 
HETATM    3  H   UNL     1      41.422 -14.996   3.406  1.00  0.00     0.278 HD
HETATM    4  H   UNL     1      43.033 -14.718   3.659  1.00  0.00     0.278 HD
HETATM    5  C   UNL     1      42.515 -16.750   3.832  1.00  0.00     0.209 C 
HETATM    6  C   UNL     1      43.723 -17.109   4.728  1.00  0.00     0.115 C 
HETATM    7  N   UNL     1      43.548 -16.662   6.109  1.00  0.00    -0.353 N 
HETATM    8  C   UNL     1      42.956 -15.455   6.423  1.00  0.00     0.249 C 
HETATM    9  O   UNL     1      43.209 -14.897   7.484  1.00  0.00    -0.271 OA
HETATM   10  C   UNL     1      42.795 -17.095   2.376  1.00  0.00     0.035 C 
HETATM   11  C   UNL     1      43.104 -18.589   2.247  1.00  0.00     0.002 C 
HETATM   12  C   UNL     1      44.230 -19.034   3.184  1.00  0.00     0.002 C 
HETATM   13  C   UNL     1      43.997 -18.610   4.637  1.00  0.00     0.027 C 
HETATM   14  H   UNL     1      44.255 -16.937   6.790  1.00  0.00     0.163 HD
ENDROOT
BRANCH   1  15
HETATM   15  C   UNL     1      41.615 -13.443   5.567  1.00  0.00     0.146 C 
BRANCH  15  16
HETATM   16  C   UNL     1      40.120 -13.245   5.519  1.00  0.00     0.224 C 
HETATM   17  N   UNL     1      39.394 -13.174   4.380  1.00  0.00    -0.327 N 
HETATM   18  H   UNL     1      38.401 -13.282   4.569  1.00  0.00     0.169 HD
HETATM   19  O   UNL     1      39.513 -13.264   6.603  1.00  0.00    -0.273 OA
BRANCH  17  20
HETATM   20  C   UNL     1      39.699 -12.960   3.023  1.00  0.00     0.035 A 
HETATM   21  C   UNL     1      39.677 -13.930   2.021  1.00  0.00     0.037 A 
HETATM   22  C   UNL     1      40.018 -13.616   0.689  1.00  0.00    -0.054 A 
HETATM   23  C   UNL     1      40.406 -12.304   0.360  1.00  0.00    -0.056 A 
HETATM   24  C   UNL     1      39.949 -14.694  -0.362  1.00  0.00     0.049 C 
HETATM   25  C   UNL     1      40.800 -11.920  -1.041  1.00  0.00     0.049 C 
HETATM   26  C   UNL     1      40.480 -11.347   1.376  1.00  0.00     0.009 A 
HETATM   27  C   UNL     1      40.134 -11.673   2.689  1.00  0.00     0.030 A 
ENDBRANCH  17  20
ENDBRANCH  15  16
ENDBRANCH   1  15
TORSDOF 3
ENDMDL
MODEL 8
REMARK VINA RESULT:      -7.7      1.714      6.615
REMARK  3 active torsions:
REMARK  status: ('A' for Active; 'I' for Inactive)
REMARK    1  A    between atoms: C_6  and  N_7 
REMARK       I    between atoms: N_7  and  C_8 
REMARK    2  A    between atoms: C_8  and  C_9 
REMARK    3  A    between atoms: C_9  and  C_10 
ROOT
HETATM    1  C   UNL     1      40.983 -15.018   3.652  1.00  0.00     0.286 C 
HETATM    2  N   UNL     1      41.899 -15.745   2.664  1.00  0.00    -0.056 N 
HETATM    3  H   UNL     1      41.333 -15.913   1.808  1.00  0.00     0.278 HD
HETATM    4  H   UNL     1      42.674 -15.132   2.380  1.00  0.00     0.278 HD
HETATM    5  C   UNL     1      42.398 -17.030   3.248  1.00  0.00     0.209 C 
HETATM    6  C   UNL     1      43.208 -16.700   4.523  1.00  0.00     0.115 C 
HETATM    7  N   UNL     1      42.462 -15.859   5.458  1.00  0.00    -0.353 N 
HETATM    8  C   UNL     1      41.643 -14.832   5.033  1.00  0.00     0.249 C 
HETATM    9  O   UNL     1      41.396 -13.888   5.774  1.00  0.00    -0.271 OA
HETATM   10  C   UNL     1      43.256 -17.777   2.236  1.00  0.00     0.035 C 
HETATM   11  C   UNL     1      43.782 -19.072   2.858  1.00  0.00     0.002 C 
HETATM   12  C   UNL     1      44.513 -18.828   4.181  1.00  0.00     0.002 C 
HETATM   13  C   UNL     1      43.689 -17.998   5.171  1.00  0.00     0.027 C 
HETATM   14  H   UNL     1      42.884 -15.669   6.366  1.00  0.00     0.163 HD
ENDROOT
BRANCH   1  15
HETATM   15  C   UNL     1      40.481 -13.706   3.042  1.00  0.00     0.146 C 
BRANCH  15  16
HETATM   16  C   UNL     1      41.536 -13.209   2.085  1.00  0.00     0.224 C 
HETATM   17  N   UNL     1      41.292 -12.812   0.816  1.00  0.00    -0.327 N 
HETATM   18  H   UNL     1      42.080 -12.295   0.434  1.00  0.00     0.169 HD
HETATM   19  O   UNL     1      42.682 -13.052   2.540  1.00  0.00    -0.273 OA
BRANCH  17  20
HETATM   20  C   UNL     1      40.222 -12.975  -0.084  1.00  0.00     0.035 A 
HETATM   21  C   UNL     1      40.037 -14.061  -0.939  1.00  0.00     0.037 A 
HETATM   22  C   UNL     1      38.937 -14.121  -1.820  1.00  0.00    -0.054 A 
HETATM   23  C   UNL     1      38.013 -13.060  -1.855  1.00  0.00    -0.056 A 
HETATM   24  C   UNL     1      38.765 -15.331  -2.702  1.00  0.00     0.049 C 
HETATM   25  C   UNL     1      36.835 -13.064  -2.790  1.00  0.00     0.049 C 
HETATM   26  C   UNL     1      38.232 -11.948  -1.037  1.00  0.00     0.009 A 
HETATM   27  C   UNL     1      39.323 -11.906  -0.166  1.00  0.00     0.030 A 
ENDBRANCH  17  20
ENDBRANCH  15  16
ENDBRANCH   1  15
TORSDOF 3
ENDMDL
MODEL 9
REMARK VINA RESULT:      -7.6      3.642      5.232
REMARK  3 active torsions:
REMARK  status: ('A' for Active; 'I' for Inactive)
REMARK    1  A    between atoms: C_6  and  N_7 
REMARK       I    between atoms: N_7  and  C_8 
REMARK    2  A    between atoms: C_8  and  C_9 
REMARK    3  A    between atoms: C_9  and  C_10 
ROOT
HETATM    1  C   UNL     1      43.619 -13.677   5.986  1.00  0.00     0.286 C 
HETATM    2  N   UNL     1      42.239 -14.139   5.511  1.00  0.00    -0.056 N 
HETATM    3  H   UNL     1      42.407 -14.881   4.801  1.00  0.00     0.278 HD
HETATM    4  H   UNL     1      41.729 -14.589   6.281  1.00  0.00     0.278 HD
HETATM    5  C   UNL     1      41.466 -12.996   4.930  1.00  0.00     0.209 C 
HETATM    6  C   UNL     1      41.277 -11.930   6.034  1.00  0.00     0.115 C 
HETATM    7  N   UNL     1      42.539 -11.548   6.667  1.00  0.00    -0.353 N 
HETATM    8  C   UNL     1      43.533 -12.467   6.940  1.00  0.00     0.249 C 
HETATM    9  O   UNL     1      44.346 -12.255   7.831  1.00  0.00    -0.271 OA
HETATM   10  C   UNL     1      40.122 -13.476   4.401  1.00  0.00     0.035 C 
HETATM   11  C   UNL     1      39.333 -12.291   3.839  1.00  0.00     0.002 C 
HETATM   12  C   UNL     1      39.192 -11.152   4.852  1.00  0.00     0.002 C 
HETATM   13  C   UNL     1      40.533 -10.725   5.457  1.00  0.00     0.027 C 
HETATM   14  H   UNL     1      42.520 -10.785   7.341  1.00  0.00     0.163 HD
ENDROOT
BRANCH   1  15
HETATM   15  C   UNL     1      44.397 -14.855   6.578  1.00  0.00     0.146 C 
BRANCH  15  16
HETATM   16  C   UNL     1      43.403 -15.784   7.230  1.00  0.00     0.224 C 
HETATM   17  N   UNL     1      43.112 -17.027   6.785  1.00  0.00    -0.327 N 
HETATM   18  H   UNL     1      42.612 -17.563   7.491  1.00  0.00     0.169 HD
HETATM   19  O   UNL     1      42.911 -15.415   8.310  1.00  0.00    -0.273 OA
BRANCH  17  20
HETATM   20  C   UNL     1      43.317 -17.721   5.578  1.00  0.00     0.035 A 
HETATM   21  C   UNL     1      43.049 -17.228   4.301  1.00  0.00     0.037 A 
HETATM   22  C   UNL     1      43.274 -18.013   3.151  1.00  0.00    -0.054 A 
HETATM   23  C   UNL     1      43.763 -19.325   3.287  1.00  0.00    -0.056 A 
HETATM   24  C   UNL     1      42.997 -17.423   1.792  1.00  0.00     0.049 C 
HETATM   25  C   UNL     1      44.000 -20.212   2.095  1.00  0.00     0.049 C 
HETATM   26  C   UNL     1      43.978 -19.835   4.571  1.00  0.00     0.009 A 
HETATM   27  C   UNL     1      43.755 -19.044   5.700  1.00  0.00     0.030 A 
ENDBRANCH  17  20
ENDBRANCH  15  16
ENDBRANCH   1  15
TORSDOF 3
ENDMDL
MODEL 10
REMARK VINA RESULT:      -7.5      4.379      7.247
REMARK  3 active torsions:
REMARK  status: ('A' for Active; 'I' for Inactive)
REMARK    1  A    between atoms: C_6  and  N_7 
REMARK       I    between atoms: N_7  and  C_8 
REMARK    2  A    between atoms: C_8  and  C_9 
REMARK    3  A    between atoms: C_9  and  C_10 
ROOT
HETATM    1  C   UNL     1      42.329 -10.422   5.999  1.00  0.00     0.286 C 
HETATM    2  N   UNL     1      41.977 -10.293   7.483  1.00  0.00    -0.056 N 
HETATM    3  H   UNL     1      41.134  -9.685   7.534  1.00  0.00     0.278 HD
HETATM    4  H   UNL     1      41.696 -11.205   7.864  1.00  0.00     0.278 HD
HETATM    5  C   UNL     1      43.119  -9.704   8.252  1.00  0.00     0.209 C 
HETATM    6  C   UNL     1      44.335 -10.648   8.111  1.00  0.00     0.115 C 
HETATM    7  N   UNL     1      44.641 -10.964   6.717  1.00  0.00    -0.353 N 
HETATM    8  C   UNL     1      43.654 -11.179   5.777  1.00  0.00     0.249 C 
HETATM    9  O   UNL     1      43.881 -11.857   4.782  1.00  0.00    -0.271 OA
HETATM   10  C   UNL     1      42.738  -9.519   9.714  1.00  0.00     0.035 C 
HETATM   11  C   UNL     1      43.926  -8.944  10.489  1.00  0.00     0.002 C 
HETATM   12  C   UNL     1      45.196  -9.780  10.315  1.00  0.00     0.002 C 
HETATM   13  C   UNL     1      45.534 -10.047   8.845  1.00  0.00     0.027 C 
HETATM   14  H   UNL     1      45.483 -11.506   6.527  1.00  0.00     0.163 HD
ENDROOT
BRANCH   1  15
HETATM   15  C   UNL     1      41.153 -11.026   5.227  1.00  0.00     0.146 C 
BRANCH  15  16
HETATM   16  C   UNL     1      40.337 -11.846   6.197  1.00  0.00     0.224 C 
HETATM   17  N   UNL     1      40.592 -13.137   6.510  1.00  0.00    -0.327 N 
HETATM   18  H   UNL     1      40.086 -13.419   7.346  1.00  0.00     0.169 HD
HETATM   19  O   UNL     1      39.447 -11.253   6.827  1.00  0.00    -0.273 OA
BRANCH  17  20
HETATM   20  C   UNL     1      41.364 -14.163   5.933  1.00  0.00     0.035 A 
HETATM   21  C   UNL     1      42.567 -14.657   6.435  1.00  0.00     0.037 A 
HETATM   22  C   UNL     1      43.275 -15.679   5.769  1.00  0.00    -0.054 A 
HETATM   23  C   UNL     1      42.772 -16.203   4.565  1.00  0.00    -0.056 A 
HETATM   24  C   UNL     1      44.555 -16.199   6.370  1.00  0.00     0.049 C 
HETATM   25  C   UNL     1      43.498 -17.279   3.802  1.00  0.00     0.049 C 
HETATM   26  C   UNL     1      41.594 -15.669   4.035  1.00  0.00     0.009 A 
HETATM   27  C   UNL     1      40.903 -14.660   4.709  1.00  0.00     0.030 A 
ENDBRANCH  17  20
ENDBRANCH  15  16
ENDBRANCH   1  15
TORSDOF 3
ENDMDL
