MODEL 1
REMARK VINA RESULT:      -8.6      0.000      0.000
REMARK  7 active torsions:
REMARK  status: ('A' for Active; 'I' for Inactive)
REMARK    1  A    between atoms: C_2  and  C_3 
REMARK    2  A    between atoms: C_7  and  C_8 
REMARK       I    between atoms: C_8  and  N_9 
REMARK    3  A    between atoms: N_9  and  C_10 
REMARK    4  A    between atoms: C_10  and  C_11 
REMARK    5  A    between atoms: C_13  and  N_14 
REMARK       I    between atoms: N_14  and  C_15 
REMARK    6  A    between atoms: C_15  and  C_16 
REMARK    7  A    between atoms: C_20  and  C_21 
ROOT
HETATM    1  C   UNL     1      43.379 -13.507   6.440  1.00  0.00    -0.035 A 
HETATM    2  C   UNL     1      42.860 -13.621   5.143  1.00  0.00     0.059 A 
HETATM    3  C   UNL     1      42.073 -14.722   4.810  1.00  0.00     0.130 A 
HETATM    4  N   UNL     1      41.825 -15.706   5.690  1.00  0.00    -0.243 NA
HETATM    5  C   UNL     1      42.354 -15.604   6.926  1.00  0.00     0.119 A 
HETATM    6  C   UNL     1      43.124 -14.536   7.347  1.00  0.00     0.028 A 
ENDROOT
BRANCH   1   7
HETATM    7  C   UNL     1      44.177 -12.300   6.843  1.00  0.00     0.161 C 
BRANCH   7   8
HETATM    8  N   UNL     1      43.530 -11.554   7.893  1.00  0.00    -0.351 N 
HETATM    9  C   UNL     1      44.238 -10.884   8.859  1.00  0.00     0.270 C 
HETATM   10  O   UNL     1      45.463 -10.908   8.919  1.00  0.00    -0.266 OA
HETATM   11  H   UNL     1      42.523 -11.572   7.940  1.00  0.00     0.163 HD
BRANCH   9  12
HETATM   12  C   UNL     1      43.439 -10.131   9.789  1.00  0.00     0.119 A 
HETATM   13  N   UNL     1      42.146  -9.782   9.506  1.00  0.00    -0.273 N 
HETATM   14  N   UNL     1      41.528  -9.112  10.490  1.00  0.00    -0.178 NA
HETATM   15  H   UNL     1      41.633  -9.990   8.655  1.00  0.00     0.189 HD
HETATM   16  C   UNL     1      42.451  -9.009  11.455  1.00  0.00     0.064 A 
HETATM   17  C   UNL     1      43.665  -9.629  11.056  1.00  0.00     0.066 A 
BRANCH  16  18
HETATM   18  C   UNL     1      42.150  -8.321  12.778  1.00  0.00    -0.005 C 
HETATM   19  C   UNL     1      43.377  -7.573  13.343  1.00  0.00     0.021 C 
HETATM   20  C   UNL     1      41.708  -9.363  13.826  1.00  0.00     0.021 C 
HETATM   21  C   UNL     1      41.013  -7.296  12.586  1.00  0.00     0.021 C 
ENDBRANCH  16  18
ENDBRANCH   9  12
ENDBRANCH   7   8
ENDBRANCH   1   7
BRANCH   3  22
HETATM   22  N   UNL     1      41.520 -14.752   3.523  1.00  0.00    -0.306 N 
HETATM   23  C   UNL     1      40.425 -14.027   3.108  1.00  0.00     0.275 C 
HETATM   24  O   UNL     1      39.745 -13.275   3.798  1.00  0.00    -0.266 OA
HETATM   25  H   UNL     1      42.006 -15.305   2.839  1.00  0.00     0.170 HD
BRANCH  23  26
HETATM   26  C   UNL     1      40.116 -14.181   1.702  1.00  0.00     0.120 A 
HETATM   27  N   UNL     1      39.871 -15.419   1.172  1.00  0.00    -0.273 N 
HETATM   28  H   UNL     1      39.883 -16.303   1.672  1.00  0.00     0.189 HD
HETATM   29  N   UNL     1      39.563 -15.407  -0.133  1.00  0.00    -0.178 NA
HETATM   30  C   UNL     1      39.648 -14.118  -0.484  1.00  0.00     0.064 A 
HETATM   31  C   UNL     1      39.985 -13.312   0.637  1.00  0.00     0.066 A 
BRANCH  30  32
HETATM   32  C   UNL     1      39.354 -13.691  -1.916  1.00  0.00    -0.005 C 
HETATM   33  C   UNL     1      38.271 -12.595  -1.914  1.00  0.00     0.021 C 
HETATM   34  C   UNL     1      40.613 -13.131  -2.609  1.00  0.00     0.021 C 
HETATM   35  C   UNL     1      38.853 -14.884  -2.758  1.00  0.00     0.021 C 
ENDBRANCH  30  32
ENDBRANCH  23  26
ENDBRANCH   3  22
TORSDOF 7
ENDMDL
MODEL 2
REMARK VINA RESULT:      -8.2      1.938     10.598
REMARK  7 active torsions:
REMARK  status: ('A' for Active; 'I' for Inactive)
REMARK    1  A    between atoms: C_2  and  C_3 
REMARK    2  A    between atoms: C_7  and  C_8 
REMARK       I    between atoms: C_8  and  N_9 
REMARK    3  A    between atoms: N_9  and  C_10 
REMARK    4  A    between atoms: C_10  and  C_11 
REMARK    5  A    between atoms: C_13  and  N_14 
REMARK       I    between atoms: N_14  and  C_15 
REMARK    6  A    between atoms: C_15  and  C_16 
REMARK    7  A    between atoms: C_20  and  C_21 
ROOT
HETATM    1  C   UNL     1      41.821 -15.890   5.518  1.00  0.00    -0.035 A 
HETATM    2  C   UNL     1      41.996 -14.713   6.259  1.00  0.00     0.059 A 
HETATM    3  C   UNL     1      43.251 -14.413   6.787  1.00  0.00     0.130 A 
HETATM    4  N   UNL     1      44.298 -15.241   6.639  1.00  0.00    -0.243 NA
HETATM    5  C   UNL     1      44.113 -16.385   5.951  1.00  0.00     0.119 A 
HETATM    6  C   UNL     1      42.911 -16.750   5.374  1.00  0.00     0.028 A 
ENDROOT
BRANCH   1   7
HETATM    7  C   UNL     1      40.496 -16.207   4.885  1.00  0.00     0.161 C 
BRANCH   7   8
HETATM    8  N   UNL     1      40.273 -15.432   3.690  1.00  0.00    -0.351 N 
HETATM    9  C   UNL     1      40.719 -15.840   2.457  1.00  0.00     0.270 C 
HETATM   10  O   UNL     1      41.371 -16.867   2.296  1.00  0.00    -0.266 OA
HETATM   11  H   UNL     1      39.816 -14.538   3.780  1.00  0.00     0.163 HD
BRANCH   9  12
HETATM   12  C   UNL     1      40.349 -14.985   1.361  1.00  0.00     0.119 A 
HETATM   13  N   UNL     1      40.445 -13.623   1.449  1.00  0.00    -0.273 N 
HETATM   14  N   UNL     1      40.093 -12.972   0.330  1.00  0.00    -0.178 NA
HETATM   15  H   UNL     1      40.759 -13.086   2.252  1.00  0.00     0.189 HD
HETATM   16  C   UNL     1      39.745 -13.942  -0.525  1.00  0.00     0.064 A 
HETATM   17  C   UNL     1      39.885 -15.219   0.081  1.00  0.00     0.066 A 
BRANCH  16  18
HETATM   18  C   UNL     1      39.292 -13.631  -1.944  1.00  0.00    -0.005 C 
HETATM   19  C   UNL     1      40.411 -12.985  -2.789  1.00  0.00     0.021 C 
HETATM   20  C   UNL     1      38.097 -12.655  -1.915  1.00  0.00     0.021 C 
HETATM   21  C   UNL     1      38.854 -14.933  -2.648  1.00  0.00     0.021 C 
ENDBRANCH  16  18
ENDBRANCH   9  12
ENDBRANCH   7   8
ENDBRANCH   1   7
BRANCH   3  22
HETATM   22  N   UNL     1      43.390 -13.191   7.458  1.00  0.00    -0.306 N 
HETATM   23  C   UNL     1      44.166 -12.133   7.037  1.00  0.00     0.275 C 
HETATM   24  O   UNL     1      44.878 -12.103   6.040  1.00  0.00    -0.266 OA
HETATM   25  H   UNL     1      42.826 -13.063   8.281  1.00  0.00     0.170 HD
BRANCH  23  26
HETATM   26  C   UNL     1      44.062 -10.958   7.876  1.00  0.00     0.120 A 
HETATM   27  N   UNL     1      45.185 -10.320   8.329  1.00  0.00    -0.273 N 
HETATM   28  H   UNL     1      46.147 -10.587   8.144  1.00  0.00     0.189 HD
HETATM   29  N   UNL     1      44.937  -9.226   9.064  1.00  0.00    -0.178 NA
HETATM   30  C   UNL     1      43.601  -9.164   9.131  1.00  0.00     0.064 A 
HETATM   31  C   UNL     1      43.010 -10.227   8.393  1.00  0.00     0.066 A 
BRANCH  30  32
HETATM   32  C   UNL     1      42.922  -8.031   9.888  1.00  0.00    -0.005 C 
HETATM   33  C   UNL     1      43.257  -8.141  11.389  1.00  0.00     0.021 C 
HETATM   34  C   UNL     1      43.394  -6.651   9.384  1.00  0.00     0.021 C 
HETATM   35  C   UNL     1      41.389  -8.089   9.715  1.00  0.00     0.021 C 
ENDBRANCH  30  32
ENDBRANCH  23  26
ENDBRANCH   3  22
TORSDOF 7
ENDMDL
MODEL 3
REMARK VINA RESULT:      -8.1      2.694     10.819
REMARK  7 active torsions:
REMARK  status: ('A' for Active; 'I' for Inactive)
REMARK    1  A    between atoms: C_2  and  C_3 
REMARK    2  A    between atoms: C_7  and  C_8 
REMARK       I    between atoms: C_8  and  N_9 
REMARK    3  A    between atoms: N_9  and  C_10 
REMARK    4  A    between atoms: C_10  and  C_11 
REMARK    5  A    between atoms: C_13  and  N_14 
REMARK       I    between atoms: N_14  and  C_15 
REMARK    6  A    between atoms: C_15  and  C_16 
REMARK    7  A    between atoms: C_20  and  C_21 
ROOT
HETATM    1  C   UNL     1      41.296 -15.638   2.316  1.00  0.00    -0.035 A 
HETATM    2  C   UNL     1      41.563 -14.584   3.201  1.00  0.00     0.059 A 
HETATM    3  C   UNL     1      42.614 -14.697   4.109  1.00  0.00     0.130 A 
HETATM    4  N   UNL     1      43.363 -15.808   4.190  1.00  0.00    -0.243 NA
HETATM    5  C   UNL     1      43.079 -16.830   3.357  1.00  0.00     0.119 A 
HETATM    6  C   UNL     1      42.072 -16.794   2.411  1.00  0.00     0.028 A 
ENDROOT
BRANCH   1   7
HETATM    7  C   UNL     1      40.210 -15.517   1.285  1.00  0.00     0.161 C 
BRANCH   7   8
HETATM    8  N   UNL     1      40.438 -14.410   0.392  1.00  0.00    -0.351 N 
HETATM    9  C   UNL     1      39.867 -14.345  -0.855  1.00  0.00     0.270 C 
HETATM   10  O   UNL     1      39.162 -15.241  -1.308  1.00  0.00    -0.266 OA
HETATM   11  H   UNL     1      41.077 -13.686   0.682  1.00  0.00     0.163 HD
BRANCH   9  12
HETATM   12  C   UNL     1      40.141 -13.138  -1.589  1.00  0.00     0.119 A 
HETATM   13  N   UNL     1      41.087 -13.097  -2.576  1.00  0.00    -0.273 N 
HETATM   14  N   UNL     1      41.196 -11.906  -3.186  1.00  0.00    -0.178 NA
HETATM   15  H   UNL     1      41.680 -13.862  -2.883  1.00  0.00     0.189 HD
HETATM   16  C   UNL     1      40.293 -11.132  -2.571  1.00  0.00     0.064 A 
HETATM   17  C   UNL     1      39.612 -11.862  -1.560  1.00  0.00     0.066 A 
BRANCH  16  18
HETATM   18  C   UNL     1      40.075  -9.682  -2.978  1.00  0.00    -0.005 C 
HETATM   19  C   UNL     1      38.580  -9.344  -3.163  1.00  0.00     0.021 C 
HETATM   20  C   UNL     1      40.794  -9.394  -4.312  1.00  0.00     0.021 C 
HETATM   21  C   UNL     1      40.645  -8.746  -1.892  1.00  0.00     0.021 C 
ENDBRANCH  16  18
ENDBRANCH   9  12
ENDBRANCH   7   8
ENDBRANCH   1   7
BRANCH   3  22
HETATM   22  N   UNL     1      42.884 -13.587   4.921  1.00  0.00    -0.306 N 
HETATM   23  C   UNL     1      43.043 -13.619   6.289  1.00  0.00     0.275 C 
HETATM   24  O   UNL     1      42.940 -14.603   7.012  1.00  0.00    -0.266 OA
HETATM   25  H   UNL     1      43.033 -12.712   4.449  1.00  0.00     0.170 HD
BRANCH  23  26
HETATM   26  C   UNL     1      43.400 -12.341   6.868  1.00  0.00     0.120 A 
HETATM   27  N   UNL     1      42.524 -11.290   6.838  1.00  0.00    -0.273 N 
HETATM   28  H   UNL     1      41.594 -11.290   6.429  1.00  0.00     0.189 HD
HETATM   29  N   UNL     1      42.974 -10.181   7.444  1.00  0.00    -0.178 NA
HETATM   30  C   UNL     1      44.208 -10.502   7.853  1.00  0.00     0.064 A 
HETATM   31  C   UNL     1      44.514 -11.850   7.520  1.00  0.00     0.066 A 
BRANCH  30  32
HETATM   32  C   UNL     1      45.055  -9.486   8.607  1.00  0.00    -0.005 C 
HETATM   33  C   UNL     1      46.427  -9.347   7.918  1.00  0.00     0.021 C 
HETATM   34  C   UNL     1      44.382  -8.097   8.634  1.00  0.00     0.021 C 
HETATM   35  C   UNL     1      45.274  -9.923  10.071  1.00  0.00     0.021 C 
ENDBRANCH  30  32
ENDBRANCH  23  26
ENDBRANCH   3  22
TORSDOF 7
ENDMDL
MODEL 4
REMARK VINA RESULT:      -8.1      3.437     12.320
REMARK  7 active torsions:
REMARK  status: ('A' for Active; 'I' for Inactive)
REMARK    1  A    between atoms: C_2  and  C_3 
REMARK    2  A    between atoms: C_7  and  C_8 
REMARK       I    between atoms: C_8  and  N_9 
REMARK    3  A    between atoms: N_9  and  C_10 
REMARK    4  A    between atoms: C_10  and  C_11 
REMARK    5  A    between atoms: C_13  and  N_14 
REMARK       I    between atoms: N_14  and  C_15 
REMARK    6  A    between atoms: C_15  and  C_16 
REMARK    7  A    between atoms: C_20  and  C_21 
ROOT
HETATM    1  C   UNL     1      43.302  -9.965   8.409  1.00  0.00    -0.035 A 
HETATM    2  C   UNL     1      42.863  -9.433   9.629  1.00  0.00     0.059 A 
HETATM    3  C   UNL     1      43.763  -9.294  10.684  1.00  0.00     0.130 A 
HETATM    4  N   UNL     1      45.042  -9.693  10.580  1.00  0.00    -0.243 NA
HETATM    5  C   UNL     1      45.448 -10.233   9.414  1.00  0.00     0.119 A 
HETATM    6  C   UNL     1      44.629 -10.386   8.310  1.00  0.00     0.028 A 
ENDROOT
BRANCH   1   7
HETATM    7  C   UNL     1      42.369 -10.068   7.236  1.00  0.00     0.161 C 
BRANCH   7   8
HETATM    8  N   UNL     1      42.415 -11.374   6.627  1.00  0.00    -0.351 N 
HETATM    9  C   UNL     1      42.846 -11.565   5.337  1.00  0.00     0.270 C 
HETATM   10  O   UNL     1      43.180 -10.638   4.606  1.00  0.00    -0.266 OA
HETATM   11  H   UNL     1      42.071 -12.160   7.156  1.00  0.00     0.163 HD
BRANCH   9  12
HETATM   12  C   UNL     1      42.897 -12.938   4.909  1.00  0.00     0.119 A 
HETATM   13  N   UNL     1      43.265 -13.942   5.762  1.00  0.00    -0.273 N 
HETATM   14  N   UNL     1      43.229 -15.168   5.218  1.00  0.00    -0.178 NA
HETATM   15  H   UNL     1      43.539 -13.844   6.735  1.00  0.00     0.189 HD
HETATM   16  C   UNL     1      42.829 -14.962   3.957  1.00  0.00     0.064 A 
HETATM   17  C   UNL     1      42.614 -13.578   3.718  1.00  0.00     0.066 A 
BRANCH  16  18
HETATM   18  C   UNL     1      42.636 -16.114   2.981  1.00  0.00    -0.005 C 
HETATM   19  C   UNL     1      41.148 -16.358   2.650  1.00  0.00     0.021 C 
HETATM   20  C   UNL     1      43.207 -17.416   3.582  1.00  0.00     0.021 C 
HETATM   21  C   UNL     1      43.375 -15.809   1.662  1.00  0.00     0.021 C 
ENDBRANCH  16  18
ENDBRANCH   9  12
ENDBRANCH   7   8
ENDBRANCH   1   7
BRANCH   3  22
HETATM   22  N   UNL     1      43.292  -8.689  11.856  1.00  0.00    -0.306 N 
HETATM   23  C   UNL     1      42.511  -9.301  12.812  1.00  0.00     0.275 C 
HETATM   24  O   UNL     1      42.079 -10.447  12.775  1.00  0.00    -0.266 OA
HETATM   25  H   UNL     1      43.605  -7.750  12.034  1.00  0.00     0.170 HD
BRANCH  23  26
HETATM   26  C   UNL     1      42.236  -8.471  13.966  1.00  0.00     0.120 A 
HETATM   27  N   UNL     1      43.012  -7.378  14.241  1.00  0.00    -0.273 N 
HETATM   28  H   UNL     1      43.814  -7.056  13.707  1.00  0.00     0.189 HD
HETATM   29  N   UNL     1      42.619  -6.682  15.318  1.00  0.00    -0.178 NA
HETATM   30  C   UNL     1      41.570  -7.365  15.793  1.00  0.00     0.064 A 
HETATM   31  C   UNL     1      41.289  -8.490  14.971  1.00  0.00     0.066 A 
BRANCH  30  32
HETATM   32  C   UNL     1      40.829  -6.873  17.029  1.00  0.00    -0.005 C 
HETATM   33  C   UNL     1      39.573  -6.091  16.599  1.00  0.00     0.021 C 
HETATM   34  C   UNL     1      40.388  -8.048  17.927  1.00  0.00     0.021 C 
HETATM   35  C   UNL     1      41.725  -5.948  17.880  1.00  0.00     0.021 C 
ENDBRANCH  30  32
ENDBRANCH  23  26
ENDBRANCH   3  22
TORSDOF 7
ENDMDL
MODEL 5
REMARK VINA RESULT:      -8.0      3.290     11.422
REMARK  7 active torsions:
REMARK  status: ('A' for Active; 'I' for Inactive)
REMARK    1  A    between atoms: C_2  and  C_3 
REMARK    2  A    between atoms: C_7  and  C_8 
REMARK       I    between atoms: C_8  and  N_9 
REMARK    3  A    between atoms: N_9  and  C_10 
REMARK    4  A    between atoms: C_10  and  C_11 
REMARK    5  A    between atoms: C_13  and  N_14 
REMARK       I    between atoms: N_14  and  C_15 
REMARK    6  A    between atoms: C_15  and  C_16 
REMARK    7  A    between atoms: C_20  and  C_21 
ROOT
HETATM    1  C   UNL     1      43.773 -11.528   5.927  1.00  0.00    -0.035 A 
HETATM    2  C   UNL     1      43.147 -11.133   7.117  1.00  0.00     0.059 A 
HETATM    3  C   UNL     1      43.920 -10.672   8.182  1.00  0.00     0.130 A 
HETATM    4  N   UNL     1      45.260 -10.629   8.116  1.00  0.00    -0.243 NA
HETATM    5  C   UNL     1      45.856 -11.041   6.979  1.00  0.00     0.119 A 
HETATM    6  C   UNL     1      45.167 -11.489   5.868  1.00  0.00     0.028 A 
ENDROOT
BRANCH   1   7
HETATM    7  C   UNL     1      42.961 -11.969   4.743  1.00  0.00     0.161 C 
BRANCH   7   8
HETATM    8  N   UNL     1      43.098 -13.382   4.495  1.00  0.00    -0.351 N 
HETATM    9  C   UNL     1      42.080 -14.136   3.965  1.00  0.00     0.270 C 
HETATM   10  O   UNL     1      40.975 -13.668   3.708  1.00  0.00    -0.266 OA
HETATM   11  H   UNL     1      43.958 -13.833   4.768  1.00  0.00     0.163 HD
BRANCH   9  12
HETATM   12  C   UNL     1      42.408 -15.514   3.714  1.00  0.00     0.119 A 
HETATM   13  N   UNL     1      41.823 -16.217   2.697  1.00  0.00    -0.273 N 
HETATM   14  N   UNL     1      42.262 -17.479   2.575  1.00  0.00    -0.178 NA
HETATM   15  H   UNL     1      41.124 -15.875   2.045  1.00  0.00     0.189 HD
HETATM   16  C   UNL     1      43.165 -17.614   3.555  1.00  0.00     0.064 A 
HETATM   17  C   UNL     1      43.285 -16.409   4.297  1.00  0.00     0.066 A 
BRANCH  16  18
HETATM   18  C   UNL     1      43.930 -18.913   3.763  1.00  0.00    -0.005 C 
HETATM   19  C   UNL     1      43.715 -19.501   5.174  1.00  0.00     0.021 C 
HETATM   20  C   UNL     1      45.442 -18.671   3.577  1.00  0.00     0.021 C 
HETATM   21  C   UNL     1      43.464 -19.963   2.733  1.00  0.00     0.021 C 
ENDBRANCH  16  18
ENDBRANCH   9  12
ENDBRANCH   7   8
ENDBRANCH   1   7
BRANCH   3  22
HETATM   22  N   UNL     1      43.241 -10.221   9.321  1.00  0.00    -0.306 N 
HETATM   23  C   UNL     1      43.601 -10.489  10.624  1.00  0.00     0.275 C 
HETATM   24  O   UNL     1      44.540 -11.185  10.991  1.00  0.00    -0.266 OA
HETATM   25  H   UNL     1      42.464  -9.602   9.165  1.00  0.00     0.170 HD
BRANCH  23  26
HETATM   26  C   UNL     1      42.773  -9.828  11.610  1.00  0.00     0.120 A 
HETATM   27  N   UNL     1      41.525 -10.304  11.908  1.00  0.00    -0.273 N 
HETATM   28  H   UNL     1      41.073 -11.113  11.494  1.00  0.00     0.189 HD
HETATM   29  N   UNL     1      40.888  -9.615  12.866  1.00  0.00    -0.178 NA
HETATM   30  C   UNL     1      41.731  -8.623  13.182  1.00  0.00     0.064 A 
HETATM   31  C   UNL     1      42.930  -8.723  12.424  1.00  0.00     0.066 A 
BRANCH  30  32
HETATM   32  C   UNL     1      41.361  -7.614  14.259  1.00  0.00    -0.005 C 
HETATM   33  C   UNL     1      42.408  -6.484  14.288  1.00  0.00     0.021 C 
HETATM   34  C   UNL     1      39.976  -6.988  13.995  1.00  0.00     0.021 C 
HETATM   35  C   UNL     1      41.311  -8.281  15.650  1.00  0.00     0.021 C 
ENDBRANCH  30  32
ENDBRANCH  23  26
ENDBRANCH   3  22
TORSDOF 7
ENDMDL
MODEL 6
REMARK VINA RESULT:      -7.9      3.784     12.982
REMARK  7 active torsions:
REMARK  status: ('A' for Active; 'I' for Inactive)
REMARK    1  A    between atoms: C_2  and  C_3 
REMARK    2  A    between atoms: C_7  and  C_8 
REMARK       I    between atoms: C_8  and  N_9 
REMARK    3  A    between atoms: N_9  and  C_10 
REMARK    4  A    between atoms: C_10  and  C_11 
REMARK    5  A    between atoms: C_13  and  N_14 
REMARK       I    between atoms: N_14  and  C_15 
REMARK    6  A    between atoms: C_15  and  C_16 
REMARK    7  A    between atoms: C_20  and  C_21 
ROOT
HETATM    1  C   UNL     1      43.749  -8.880  10.728  1.00  0.00    -0.035 A 
HETATM    2  C   UNL     1      43.306  -8.625  12.033  1.00  0.00     0.059 A 
HETATM    3  C   UNL     1      42.621  -7.443  12.309  1.00  0.00     0.130 A 
HETATM    4  N   UNL     1      42.402  -6.515  11.363  1.00  0.00    -0.243 NA
HETATM    5  C   UNL     1      42.861  -6.753  10.118  1.00  0.00     0.119 A 
HETATM    6  C   UNL     1      43.528  -7.907   9.752  1.00  0.00     0.028 A 
ENDROOT
BRANCH   1   7
HETATM    7  C   UNL     1      44.435 -10.173  10.390  1.00  0.00     0.161 C 
BRANCH   7   8
HETATM    8  N   UNL     1      43.791 -10.852   9.294  1.00  0.00    -0.351 N 
HETATM    9  C   UNL     1      44.488 -11.305   8.201  1.00  0.00     0.270 C 
HETATM   10  O   UNL     1      45.694 -11.128   8.065  1.00  0.00    -0.266 OA
HETATM   11  H   UNL     1      42.788 -10.948   9.316  1.00  0.00     0.163 HD
BRANCH   9  12
HETATM   12  C   UNL     1      43.703 -12.024   7.232  1.00  0.00     0.119 A 
HETATM   13  N   UNL     1      42.475 -11.576   6.830  1.00  0.00    -0.273 N 
HETATM   14  N   UNL     1      41.888 -12.341   5.897  1.00  0.00    -0.178 NA
HETATM   15  H   UNL     1      41.995 -10.741   7.154  1.00  0.00     0.189 HD
HETATM   16  C   UNL     1      42.760 -13.334   5.683  1.00  0.00     0.064 A 
HETATM   17  C   UNL     1      43.910 -13.178   6.502  1.00  0.00     0.066 A 
BRANCH  16  18
HETATM   18  C   UNL     1      42.486 -14.432   4.665  1.00  0.00    -0.005 C 
HETATM   19  C   UNL     1      43.247 -15.736   4.991  1.00  0.00     0.021 C 
HETATM   20  C   UNL     1      42.921 -13.969   3.259  1.00  0.00     0.021 C 
HETATM   21  C   UNL     1      40.978 -14.754   4.639  1.00  0.00     0.021 C 
ENDBRANCH  16  18
ENDBRANCH   9  12
ENDBRANCH   7   8
ENDBRANCH   1   7
BRANCH   3  22
HETATM   22  N   UNL     1      42.135  -7.270  13.612  1.00  0.00    -0.306 N 
HETATM   23  C   UNL     1      40.809  -7.320  13.983  1.00  0.00     0.275 C 
HETATM   24  O   UNL     1      39.850  -7.486  13.238  1.00  0.00    -0.266 OA
HETATM   25  H   UNL     1      42.824  -7.163  14.336  1.00  0.00     0.170 HD
BRANCH  23  26
HETATM   26  C   UNL     1      40.593  -7.192  15.409  1.00  0.00     0.120 A 
HETATM   27  N   UNL     1      39.647  -6.335  15.899  1.00  0.00    -0.273 N 
HETATM   28  H   UNL     1      39.039  -5.731  15.354  1.00  0.00     0.189 HD
HETATM   29  N   UNL     1      39.531  -6.348  17.235  1.00  0.00    -0.178 NA
HETATM   30  C   UNL     1      40.465  -7.218  17.642  1.00  0.00     0.064 A 
HETATM   31  C   UNL     1      41.150  -7.778  16.529  1.00  0.00     0.066 A 
BRANCH  30  32
HETATM   32  C   UNL     1      40.641  -7.517  19.124  1.00  0.00    -0.005 C 
HETATM   33  C   UNL     1      39.518  -8.463  19.595  1.00  0.00     0.021 C 
HETATM   34  C   UNL     1      41.998  -8.195  19.407  1.00  0.00     0.021 C 
HETATM   35  C   UNL     1      40.585  -6.222  19.962  1.00  0.00     0.021 C 
ENDBRANCH  30  32
ENDBRANCH  23  26
ENDBRANCH   3  22
TORSDOF 7
ENDMDL
MODEL 7
REMARK VINA RESULT:      -7.8      2.640      4.092
REMARK  7 active torsions:
REMARK  status: ('A' for Active; 'I' for Inactive)
REMARK    1  A    between atoms: C_2  and  C_3 
REMARK    2  A    between atoms: C_7  and  C_8 
REMARK       I    between atoms: C_8  and  N_9 
REMARK    3  A    between atoms: N_9  and  C_10 
REMARK    4  A    between atoms: C_10  and  C_11 
REMARK    5  A    between atoms: C_13  and  N_14 
REMARK       I    between atoms: N_14  and  C_15 
REMARK    6  A    between atoms: C_15  and  C_16 
REMARK    7  A    between atoms: C_20  and  C_21 
ROOT
HETATM    1  C   UNL     1      42.175 -15.583   4.115  1.00  0.00    -0.035 A 
HETATM    2  C   UNL     1      41.680 -14.639   3.204  1.00  0.00     0.059 A 
HETATM    3  C   UNL     1      41.976 -14.770   1.849  1.00  0.00     0.130 A 
HETATM    4  N   UNL     1      42.758 -15.760   1.387  1.00  0.00    -0.243 NA
HETATM    5  C   UNL     1      43.256 -16.645   2.275  1.00  0.00     0.119 A 
HETATM    6  C   UNL     1      42.994 -16.604   3.631  1.00  0.00     0.028 A 
ENDROOT
BRANCH   1   7
HETATM    7  C   UNL     1      41.820 -15.501   5.573  1.00  0.00     0.161 C 
BRANCH   7   8
HETATM    8  N   UNL     1      42.147 -14.213   6.133  1.00  0.00    -0.351 N 
HETATM    9  C   UNL     1      43.417 -13.895   6.547  1.00  0.00     0.270 C 
HETATM   10  O   UNL     1      44.346 -14.695   6.506  1.00  0.00    -0.266 OA
HETATM   11  H   UNL     1      41.401 -13.548   6.267  1.00  0.00     0.163 HD
BRANCH   9  12
HETATM   12  C   UNL     1      43.585 -12.545   7.014  1.00  0.00     0.119 A 
HETATM   13  N   UNL     1      42.602 -11.605   6.863  1.00  0.00    -0.273 N 
HETATM   14  N   UNL     1      42.903 -10.405   7.382  1.00  0.00    -0.178 NA
HETATM   15  H   UNL     1      41.698 -11.737   6.421  1.00  0.00     0.189 HD
HETATM   16  C   UNL     1      44.133 -10.558   7.888  1.00  0.00     0.064 A 
HETATM   17  C   UNL     1      44.601 -11.883   7.676  1.00  0.00     0.066 A 
BRANCH  16  18
HETATM   18  C   UNL     1      44.852  -9.421   8.599  1.00  0.00    -0.005 C 
HETATM   19  C   UNL     1      44.084  -8.086   8.495  1.00  0.00     0.021 C 
HETATM   20  C   UNL     1      46.250  -9.212   7.979  1.00  0.00     0.021 C 
HETATM   21  C   UNL     1      45.016  -9.762  10.094  1.00  0.00     0.021 C 
ENDBRANCH  16  18
ENDBRANCH   9  12
ENDBRANCH   7   8
ENDBRANCH   1   7
BRANCH   3  22
HETATM   22  N   UNL     1      41.398 -13.843   0.972  1.00  0.00    -0.306 N 
HETATM   23  C   UNL     1      40.335 -14.094   0.132  1.00  0.00     0.275 C 
HETATM   24  O   UNL     1      39.753 -15.163  -0.007  1.00  0.00    -0.266 OA
HETATM   25  H   UNL     1      41.757 -12.904   1.011  1.00  0.00     0.170 HD
BRANCH  23  26
HETATM   26  C   UNL     1      39.883 -12.933  -0.605  1.00  0.00     0.120 A 
HETATM   27  N   UNL     1      38.625 -12.427  -0.412  1.00  0.00    -0.273 N 
HETATM   28  H   UNL     1      37.919 -12.791   0.221  1.00  0.00     0.189 HD
HETATM   29  N   UNL     1      38.357 -11.330  -1.134  1.00  0.00    -0.178 NA
HETATM   30  C   UNL     1      39.465 -11.128  -1.860  1.00  0.00     0.064 A 
HETATM   31  C   UNL     1      40.451 -12.106  -1.554  1.00  0.00     0.066 A 
BRANCH  30  32
HETATM   32  C   UNL     1      39.552  -9.947  -2.816  1.00  0.00    -0.005 C 
HETATM   33  C   UNL     1      39.587  -8.633  -2.009  1.00  0.00     0.021 C 
HETATM   34  C   UNL     1      40.823 -10.017  -3.687  1.00  0.00     0.021 C 
HETATM   35  C   UNL     1      38.337  -9.913  -3.768  1.00  0.00     0.021 C 
ENDBRANCH  30  32
ENDBRANCH  23  26
ENDBRANCH   3  22
TORSDOF 7
ENDMDL
MODEL 8
REMARK VINA RESULT:      -7.8      3.164      5.328
REMARK  7 active torsions:
REMARK  status: ('A' for Active; 'I' for Inactive)
REMARK    1  A    between atoms: C_2  and  C_3 
REMARK    2  A    between atoms: C_7  and  C_8 
REMARK       I    between atoms: C_8  and  N_9 
REMARK    3  A    between atoms: N_9  and  C_10 
REMARK    4  A    between atoms: C_10  and  C_11 
REMARK    5  A    between atoms: C_13  and  N_14 
REMARK       I    between atoms: N_14  and  C_15 
REMARK    6  A    between atoms: C_15  and  C_16 
REMARK    7  A    between atoms: C_20  and  C_21 
ROOT
HETATM    1  C   UNL     1      43.301  -8.935   9.105  1.00  0.00    -0.035 A 
HETATM    2  C   UNL     1      42.979  -9.956   8.200  1.00  0.00     0.059 A 
HETATM    3  C   UNL     1      43.883 -10.993   7.982  1.00  0.00     0.130 A 
HETATM    4  N   UNL     1      45.081 -11.028   8.590  1.00  0.00    -0.243 NA
HETATM    5  C   UNL     1      45.396 -10.025   9.434  1.00  0.00     0.119 A 
HETATM    6  C   UNL     1      44.550  -8.971   9.726  1.00  0.00     0.028 A 
ENDROOT
BRANCH   1   7
HETATM    7  C   UNL     1      42.320  -7.838   9.406  1.00  0.00     0.161 C 
BRANCH   7   8
HETATM    8  N   UNL     1      42.080  -7.705  10.821  1.00  0.00    -0.351 N 
HETATM    9  C   UNL     1      40.916  -8.133  11.411  1.00  0.00     0.270 C 
HETATM   10  O   UNL     1      39.989  -8.617  10.770  1.00  0.00    -0.266 OA
HETATM   11  H   UNL     1      42.775  -7.236  11.380  1.00  0.00     0.163 HD
BRANCH   9  12
HETATM   12  C   UNL     1      40.870  -7.990  12.842  1.00  0.00     0.119 A 
HETATM   13  N   UNL     1      41.234  -9.011  13.677  1.00  0.00    -0.273 N 
HETATM   14  N   UNL     1      41.166  -8.707  14.982  1.00  0.00    -0.178 NA
HETATM   15  H   UNL     1      41.550  -9.937  13.403  1.00  0.00     0.189 HD
HETATM   16  C   UNL     1      40.733  -7.440  15.007  1.00  0.00     0.064 A 
HETATM   17  C   UNL     1      40.530  -6.953  13.688  1.00  0.00     0.066 A 
BRANCH  16  18
HETATM   18  C   UNL     1      40.533  -6.690  16.316  1.00  0.00    -0.005 C 
HETATM   19  C   UNL     1      41.585  -5.579  16.521  1.00  0.00     0.021 C 
HETATM   20  C   UNL     1      40.637  -7.667  17.505  1.00  0.00     0.021 C 
HETATM   21  C   UNL     1      39.137  -6.034  16.331  1.00  0.00     0.021 C 
ENDBRANCH  16  18
ENDBRANCH   9  12
ENDBRANCH   7   8
ENDBRANCH   1   7
BRANCH   3  22
HETATM   22  N   UNL     1      43.483 -12.026   7.124  1.00  0.00    -0.306 N 
HETATM   23  C   UNL     1      43.579 -12.004   5.750  1.00  0.00     0.275 C 
HETATM   24  O   UNL     1      43.992 -11.077   5.063  1.00  0.00    -0.266 OA
HETATM   25  H   UNL     1      43.156 -12.871   7.561  1.00  0.00     0.170 HD
BRANCH  23  26
HETATM   26  C   UNL     1      43.170 -13.239   5.113  1.00  0.00     0.120 A 
HETATM   27  N   UNL     1      42.557 -14.227   5.834  1.00  0.00    -0.273 N 
HETATM   28  H   UNL     1      42.342 -14.207   6.826  1.00  0.00     0.189 HD
HETATM   29  N   UNL     1      42.201 -15.297   5.107  1.00  0.00    -0.178 NA
HETATM   30  C   UNL     1      42.632 -15.019   3.870  1.00  0.00     0.064 A 
HETATM   31  C   UNL     1      43.240 -13.735   3.826  1.00  0.00     0.066 A 
BRANCH  30  32
HETATM   32  C   UNL     1      42.401 -16.009   2.737  1.00  0.00    -0.005 C 
HETATM   33  C   UNL     1      42.807 -17.423   3.197  1.00  0.00     0.021 C 
HETATM   34  C   UNL     1      40.919 -16.042   2.309  1.00  0.00     0.021 C 
HETATM   35  C   UNL     1      43.235 -15.632   1.493  1.00  0.00     0.021 C 
ENDBRANCH  30  32
ENDBRANCH  23  26
ENDBRANCH   3  22
TORSDOF 7
ENDMDL
MODEL 9
REMARK VINA RESULT:      -7.8      2.697     11.855
REMARK  7 active torsions:
REMARK  status: ('A' for Active; 'I' for Inactive)
REMARK    1  A    between atoms: C_2  and  C_3 
REMARK    2  A    between atoms: C_7  and  C_8 
REMARK       I    between atoms: C_8  and  N_9 
REMARK    3  A    between atoms: N_9  and  C_10 
REMARK    4  A    between atoms: C_10  and  C_11 
REMARK    5  A    between atoms: C_13  and  N_14 
REMARK       I    between atoms: N_14  and  C_15 
REMARK    6  A    between atoms: C_15  and  C_16 
REMARK    7  A    between atoms: C_20  and  C_21 
ROOT
HETATM    1  C   UNL     1      40.226 -11.327   5.117  1.00  0.00    -0.035 A 
HETATM    2  C   UNL     1      40.473 -10.830   6.404  1.00  0.00     0.059 A 
HETATM    3  C   UNL     1      39.608  -9.887   6.956  1.00  0.00     0.130 A 
HETATM    4  N   UNL     1      38.556  -9.407   6.273  1.00  0.00    -0.243 NA
HETATM    5  C   UNL     1      38.344  -9.867   5.023  1.00  0.00     0.119 A 
HETATM    6  C   UNL     1      39.137 -10.818   4.409  1.00  0.00     0.028 A 
ENDROOT
BRANCH   1   7
HETATM    7  C   UNL     1      41.106 -12.389   4.523  1.00  0.00     0.161 C 
BRANCH   7   8
HETATM    8  N   UNL     1      40.708 -12.728   3.180  1.00  0.00    -0.351 N 
HETATM    9  C   UNL     1      40.997 -13.946   2.615  1.00  0.00     0.270 C 
HETATM   10  O   UNL     1      41.647 -14.808   3.197  1.00  0.00    -0.266 OA
HETATM   11  H   UNL     1      40.244 -12.024   2.628  1.00  0.00     0.163 HD
BRANCH   9  12
HETATM   12  C   UNL     1      40.464 -14.147   1.294  1.00  0.00     0.119 A 
HETATM   13  N   UNL     1      39.896 -15.335   0.923  1.00  0.00    -0.273 N 
HETATM   14  N   UNL     1      39.417 -15.349  -0.331  1.00  0.00    -0.178 NA
HETATM   15  H   UNL     1      39.799 -16.168   1.495  1.00  0.00     0.189 HD
HETATM   16  C   UNL     1      39.686 -14.126  -0.805  1.00  0.00     0.064 A 
HETATM   17  C   UNL     1      40.346 -13.341   0.178  1.00  0.00     0.066 A 
BRANCH  16  18
HETATM   18  C   UNL     1      39.286 -13.708  -2.212  1.00  0.00    -0.005 C 
HETATM   19  C   UNL     1      38.743 -14.891  -3.043  1.00  0.00     0.021 C 
HETATM   20  C   UNL     1      40.505 -13.127  -2.958  1.00  0.00     0.021 C 
HETATM   21  C   UNL     1      38.185 -12.630  -2.143  1.00  0.00     0.021 C 
ENDBRANCH  16  18
ENDBRANCH   9  12
ENDBRANCH   7   8
ENDBRANCH   1   7
BRANCH   3  22
HETATM   22  N   UNL     1      39.858  -9.477   8.272  1.00  0.00    -0.306 N 
HETATM   23  C   UNL     1      39.255  -9.994   9.398  1.00  0.00     0.275 C 
HETATM   24  O   UNL     1      38.389 -10.860   9.427  1.00  0.00    -0.266 OA
HETATM   25  H   UNL     1      40.582  -8.790   8.398  1.00  0.00     0.170 HD
BRANCH  23  26
HETATM   26  C   UNL     1      39.761  -9.447  10.639  1.00  0.00     0.120 A 
HETATM   27  N   UNL     1      38.989  -9.446  11.769  1.00  0.00    -0.273 N 
HETATM   28  H   UNL     1      38.041  -9.799  11.853  1.00  0.00     0.189 HD
HETATM   29  N   UNL     1      39.600  -8.943  12.851  1.00  0.00    -0.178 NA
HETATM   30  C   UNL     1      40.805  -8.560  12.408  1.00  0.00     0.064 A 
HETATM   31  C   UNL     1      40.952  -8.865  11.027  1.00  0.00     0.066 A 
BRANCH  30  32
HETATM   32  C   UNL     1      41.812  -7.937  13.364  1.00  0.00    -0.005 C 
HETATM   33  C   UNL     1      41.703  -8.618  14.742  1.00  0.00     0.021 C 
HETATM   34  C   UNL     1      43.258  -8.106  12.851  1.00  0.00     0.021 C 
HETATM   35  C   UNL     1      41.554  -6.424  13.533  1.00  0.00     0.021 C 
ENDBRANCH  30  32
ENDBRANCH  23  26
ENDBRANCH   3  22
TORSDOF 7
ENDMDL
MODEL 10
REMARK VINA RESULT:      -7.7     18.496     20.327
REMARK  7 active torsions:
REMARK  status: ('A' for Active; 'I' for Inactive)
REMARK    1  A    between atoms: C_2  and  C_3 
REMARK    2  A    between atoms: C_7  and  C_8 
REMARK       I    between atoms: C_8  and  N_9 
REMARK    3  A    between atoms: N_9  and  C_10 
REMARK    4  A    between atoms: C_10  and  C_11 
REMARK    5  A    between atoms: C_13  and  N_14 
REMARK       I    between atoms: N_14  and  C_15 
REMARK    6  A    between atoms: C_15  and  C_16 
REMARK    7  A    between atoms: C_20  and  C_21 
ROOT
HETATM    1  C   UNL     1      46.275 -28.413  -1.025  1.00  0.00    -0.035 A 
HETATM    2  C   UNL     1      45.503 -28.915   0.032  1.00  0.00     0.059 A 
HETATM    3  C   UNL     1      44.248 -29.460  -0.231  1.00  0.00     0.130 A 
HETATM    4  N   UNL     1      43.733 -29.486  -1.471  1.00  0.00    -0.243 NA
HETATM    5  C   UNL     1      44.469 -28.973  -2.477  1.00  0.00     0.119 A 
HETATM    6  C   UNL     1      45.731 -28.435  -2.310  1.00  0.00     0.028 A 
ENDROOT
BRANCH   1   7
HETATM    7  C   UNL     1      47.657 -27.878  -0.779  1.00  0.00     0.161 C 
BRANCH   7   8
HETATM    8  N   UNL     1      48.291 -28.523   0.343  1.00  0.00    -0.351 N 
HETATM    9  C   UNL     1      49.020 -29.679   0.207  1.00  0.00     0.270 C 
HETATM   10  O   UNL     1      49.146 -30.260  -0.866  1.00  0.00    -0.266 OA
HETATM   11  H   UNL     1      48.148 -28.133   1.261  1.00  0.00     0.163 HD
BRANCH   9  12
HETATM   12  C   UNL     1      49.645 -30.151   1.414  1.00  0.00     0.119 A 
HETATM   13  N   UNL     1      50.782 -29.572   1.907  1.00  0.00    -0.273 N 
HETATM   14  N   UNL     1      51.219 -30.107   3.058  1.00  0.00    -0.178 NA
HETATM   15  H   UNL     1      51.295 -28.796   1.500  1.00  0.00     0.189 HD
HETATM   16  C   UNL     1      50.340 -31.080   3.328  1.00  0.00     0.064 A 
HETATM   17  C   UNL     1      49.339 -31.146   2.322  1.00  0.00     0.066 A 
BRANCH  16  18
HETATM   18  C   UNL     1      50.459 -31.939   4.579  1.00  0.00    -0.005 C 
HETATM   19  C   UNL     1      49.119 -32.060   5.336  1.00  0.00     0.021 C 
HETATM   20  C   UNL     1      51.494 -31.326   5.544  1.00  0.00     0.021 C 
HETATM   21  C   UNL     1      50.918 -33.360   4.192  1.00  0.00     0.021 C 
ENDBRANCH  16  18
ENDBRANCH   9  12
ENDBRANCH   7   8
ENDBRANCH   1   7
BRANCH   3  22
HETATM   22  N   UNL     1      43.548 -30.013   0.850  1.00  0.00    -0.306 N 
HETATM   23  C   UNL     1      42.431 -29.466   1.443  1.00  0.00     0.275 C 
HETATM   24  O   UNL     1      41.897 -28.404   1.147  1.00  0.00    -0.266 OA
HETATM   25  H   UNL     1      43.859 -30.914   1.172  1.00  0.00     0.170 HD
BRANCH  23  26
HETATM   26  C   UNL     1      41.857 -30.290   2.486  1.00  0.00     0.120 A 
HETATM   27  N   UNL     1      42.037 -29.973   3.805  1.00  0.00    -0.273 N 
HETATM   28  H   UNL     1      42.562 -29.184   4.171  1.00  0.00     0.189 HD
HETATM   29  N   UNL     1      41.418 -30.802   4.658  1.00  0.00    -0.178 NA
HETATM   30  C   UNL     1      40.843 -31.722   3.873  1.00  0.00     0.064 A 
HETATM   31  C   UNL     1      41.085 -31.435   2.502  1.00  0.00     0.066 A 
BRANCH  30  32
HETATM   32  C   UNL     1      40.024 -32.850   4.485  1.00  0.00    -0.005 C 
HETATM   33  C   UNL     1      40.890 -34.121   4.582  1.00  0.00     0.021 C 
HETATM   34  C   UNL     1      39.531 -32.487   5.901  1.00  0.00     0.021 C 
HETATM   35  C   UNL     1      38.779 -33.160   3.626  1.00  0.00     0.021 C 
ENDBRANCH  30  32
ENDBRANCH  23  26
ENDBRANCH   3  22
TORSDOF 7
ENDMDL
