MODEL 1
REMARK VINA RESULT:      -9.1      0.000      0.000
REMARK  6 active torsions:
REMARK  status: ('A' for Active; 'I' for Inactive)
REMARK    1  A    between atoms: C_5  and  C_6 
REMARK    2  A    between atoms: C_6  and  S_7 
REMARK    3  A    between atoms: S_7  and  C_8 
REMARK    4  A    between atoms: C_10  and  N_11 
REMARK       I    between atoms: N_11  and  C_12 
REMARK    5  A    between atoms: C_12  and  C_13 
REMARK    6  A    between atoms: C_14  and  C_15 
ROOT
HETATM    1  C   UNL     1      43.076 -12.511   4.980  1.00  0.00     0.160 A 
HETATM    2  S   UNL     1      43.454 -12.959   6.586  1.00  0.00    -0.022 SA
HETATM    3  C   UNL     1      43.203 -11.333   7.028  1.00  0.00     0.197 A 
HETATM    4  N   UNL     1      42.886 -10.543   6.024  1.00  0.00    -0.122 NA
HETATM    5  N   UNL     1      42.816 -11.230   4.825  1.00  0.00    -0.133 NA
ENDROOT
BRANCH   3   6
HETATM    6  N   UNL     1      43.288 -10.875   8.321  1.00  0.00    -0.301 N 
HETATM    7  C   UNL     1      44.439 -10.730   9.056  1.00  0.00     0.247 C 
HETATM    8  O   UNL     1      45.589 -10.909   8.677  1.00  0.00    -0.268 OA
HETATM    9  H   UNL     1      42.389 -10.661   8.727  1.00  0.00     0.171 HD
BRANCH   7  10
HETATM   10  C   UNL     1      44.157 -10.318  10.462  1.00  0.00     0.075 C 
HETATM   11  C   UNL     1      42.956  -9.795  10.759  1.00  0.00     0.017 C 
BRANCH  11  12
HETATM   12  C   UNL     1      42.541  -9.312  12.085  1.00  0.00    -0.033 A 
HETATM   13  C   UNL     1      43.218  -8.286  12.760  1.00  0.00     0.051 A 
HETATM   14  C   UNL     1      42.711  -7.856  13.970  1.00  0.00     0.105 A 
HETATM   15  C   UNL     1      41.572  -8.399  14.517  1.00  0.00     0.105 A 
HETATM   16  O   UNL     1      43.237  -6.869  14.744  1.00  0.00    -0.323 OA
HETATM   17  O   UNL     1      41.240  -7.824  15.702  1.00  0.00    -0.323 OA
HETATM   18  C   UNL     1      40.876  -9.403  13.885  1.00  0.00     0.040 A 
HETATM   19  C   UNL     1      42.290  -6.844  15.833  1.00  0.00     0.352 A 
HETATM   20  C   UNL     1      41.367  -9.858  12.655  1.00  0.00     0.014 A 
ENDBRANCH  11  12
ENDBRANCH   7  10
ENDBRANCH   3   6
BRANCH   1  21
HETATM   21  S   UNL     1      43.025 -13.669   3.675  1.00  0.00    -0.096 SA
BRANCH  21  22
HETATM   22  C   UNL     1      42.273 -15.098   4.512  1.00  0.00     0.123 C 
BRANCH  22  23
HETATM   23  C   UNL     1      42.838 -16.394   3.976  1.00  0.00    -0.005 A 
HETATM   24  C   UNL     1      42.329 -16.983   2.800  1.00  0.00     0.042 A 
HETATM   25  C   UNL     1      42.829 -18.200   2.321  1.00  0.00     0.024 A 
HETATM   26 CL   UNL     1      41.055 -16.254   1.882  1.00  0.00    -0.084 Cl
HETATM   27  C   UNL     1      43.842 -18.862   3.009  1.00  0.00     0.003 A 
HETATM   28  C   UNL     1      44.353 -18.307   4.177  1.00  0.00     0.024 A 
HETATM   29  C   UNL     1      43.857 -17.089   4.659  1.00  0.00     0.042 A 
HETATM   30 CL   UNL     1      44.550 -16.494   6.129  1.00  0.00    -0.084 Cl
ENDBRANCH  22  23
ENDBRANCH  21  22
ENDBRANCH   1  21
TORSDOF 6
ENDMDL
MODEL 2
REMARK VINA RESULT:      -8.7      4.530     11.569
REMARK  6 active torsions:
REMARK  status: ('A' for Active; 'I' for Inactive)
REMARK    1  A    between atoms: C_5  and  C_6 
REMARK    2  A    between atoms: C_6  and  S_7 
REMARK    3  A    between atoms: S_7  and  C_8 
REMARK    4  A    between atoms: C_10  and  N_11 
REMARK       I    between atoms: N_11  and  C_12 
REMARK    5  A    between atoms: C_12  and  C_13 
REMARK    6  A    between atoms: C_14  and  C_15 
ROOT
HETATM    1  C   UNL     1      43.931  -9.899   7.844  1.00  0.00     0.160 A 
HETATM    2  S   UNL     1      42.801 -10.743   6.878  1.00  0.00    -0.022 SA
HETATM    3  C   UNL     1      43.901 -12.043   6.844  1.00  0.00     0.197 A 
HETATM    4  N   UNL     1      45.023 -11.819   7.494  1.00  0.00    -0.122 NA
HETATM    5  N   UNL     1      45.044 -10.564   8.076  1.00  0.00    -0.133 NA
ENDROOT
BRANCH   3   6
HETATM    6  N   UNL     1      43.643 -13.242   6.223  1.00  0.00    -0.301 N 
HETATM    7  C   UNL     1      43.351 -14.431   6.844  1.00  0.00     0.247 C 
HETATM    8  O   UNL     1      43.197 -14.623   8.043  1.00  0.00    -0.268 OA
HETATM    9  H   UNL     1      43.709 -13.191   5.216  1.00  0.00     0.171 HD
BRANCH   7  10
HETATM   10  C   UNL     1      43.239 -15.558   5.872  1.00  0.00     0.075 C 
HETATM   11  C   UNL     1      43.717 -16.764   6.217  1.00  0.00     0.017 C 
BRANCH  11  12
HETATM   12  C   UNL     1      43.711 -17.960   5.360  1.00  0.00    -0.033 A 
HETATM   13  C   UNL     1      43.624 -17.886   3.963  1.00  0.00     0.051 A 
HETATM   14  C   UNL     1      43.694 -19.062   3.242  1.00  0.00     0.105 A 
HETATM   15  C   UNL     1      43.852 -20.283   3.853  1.00  0.00     0.105 A 
HETATM   16  O   UNL     1      43.636 -19.165   1.887  1.00  0.00    -0.323 OA
HETATM   17  O   UNL     1      43.911 -21.307   2.962  1.00  0.00    -0.323 OA
HETATM   18  C   UNL     1      43.948 -20.398   5.221  1.00  0.00     0.040 A 
HETATM   19  C   UNL     1      43.790 -20.590   1.716  1.00  0.00     0.352 A 
HETATM   20  C   UNL     1      43.880 -19.222   5.977  1.00  0.00     0.014 A 
ENDBRANCH  11  12
ENDBRANCH   7  10
ENDBRANCH   3   6
BRANCH   1  21
HETATM   21  S   UNL     1      43.612  -8.304   8.476  1.00  0.00    -0.096 SA
BRANCH  21  22
HETATM   22  C   UNL     1      42.164  -8.633   9.527  1.00  0.00     0.123 C 
BRANCH  22  23
HETATM   23  C   UNL     1      42.352  -8.036  10.904  1.00  0.00    -0.005 A 
HETATM   24  C   UNL     1      41.973  -6.707  11.183  1.00  0.00     0.042 A 
HETATM   25  C   UNL     1      42.177  -6.144  12.448  1.00  0.00     0.024 A 
HETATM   26 CL   UNL     1      41.248  -5.685   9.987  1.00  0.00    -0.084 Cl
HETATM   27  C   UNL     1      42.770  -6.890  13.462  1.00  0.00     0.003 A 
HETATM   28  C   UNL     1      43.162  -8.200  13.209  1.00  0.00     0.024 A 
HETATM   29  C   UNL     1      42.958  -8.769  11.945  1.00  0.00     0.042 A 
HETATM   30 CL   UNL     1      43.497 -10.399  11.730  1.00  0.00    -0.084 Cl
ENDBRANCH  22  23
ENDBRANCH  21  22
ENDBRANCH   1  21
TORSDOF 6
ENDMDL
MODEL 3
REMARK VINA RESULT:      -8.5      1.297      1.707
REMARK  6 active torsions:
REMARK  status: ('A' for Active; 'I' for Inactive)
REMARK    1  A    between atoms: C_5  and  C_6 
REMARK    2  A    between atoms: C_6  and  S_7 
REMARK    3  A    between atoms: S_7  and  C_8 
REMARK    4  A    between atoms: C_10  and  N_11 
REMARK       I    between atoms: N_11  and  C_12 
REMARK    5  A    between atoms: C_12  and  C_13 
REMARK    6  A    between atoms: C_14  and  C_15 
ROOT
HETATM    1  C   UNL     1      43.281 -12.815   5.623  1.00  0.00     0.160 A 
HETATM    2  S   UNL     1      42.320 -11.499   6.140  1.00  0.00    -0.022 SA
HETATM    3  C   UNL     1      43.366 -11.347   7.476  1.00  0.00     0.197 A 
HETATM    4  N   UNL     1      44.331 -12.242   7.512  1.00  0.00    -0.122 NA
HETATM    5  N   UNL     1      44.280 -13.103   6.430  1.00  0.00    -0.133 NA
ENDROOT
BRANCH   3   6
HETATM    6  N   UNL     1      43.246 -10.362   8.427  1.00  0.00    -0.301 N 
HETATM    7  C   UNL     1      44.082 -10.162   9.497  1.00  0.00     0.247 C 
HETATM    8  O   UNL     1      45.114 -10.767   9.756  1.00  0.00    -0.268 OA
HETATM    9  H   UNL     1      42.436  -9.774   8.291  1.00  0.00     0.171 HD
BRANCH   7  10
HETATM   10  C   UNL     1      43.593  -9.074  10.395  1.00  0.00     0.075 C 
HETATM   11  C   UNL     1      43.078  -9.400  11.591  1.00  0.00     0.017 C 
BRANCH  11  12
HETATM   12  C   UNL     1      42.527  -8.450  12.569  1.00  0.00    -0.033 A 
HETATM   13  C   UNL     1      41.149  -8.244  12.727  1.00  0.00     0.051 A 
HETATM   14  C   UNL     1      40.728  -7.381  13.719  1.00  0.00     0.105 A 
HETATM   15  C   UNL     1      41.614  -6.734  14.547  1.00  0.00     0.105 A 
HETATM   16  O   UNL     1      39.433  -7.079  14.009  1.00  0.00    -0.323 OA
HETATM   17  O   UNL     1      40.991  -5.945  15.460  1.00  0.00    -0.323 OA
HETATM   18  C   UNL     1      42.973  -6.913  14.429  1.00  0.00     0.040 A 
HETATM   19  C   UNL     1      39.608  -6.180  15.124  1.00  0.00     0.352 A 
HETATM   20  C   UNL     1      43.429  -7.784  13.432  1.00  0.00     0.014 A 
ENDBRANCH  11  12
ENDBRANCH   7  10
ENDBRANCH   3   6
BRANCH   1  21
HETATM   21  S   UNL     1      42.963 -13.676   4.138  1.00  0.00    -0.096 SA
BRANCH  21  22
HETATM   22  C   UNL     1      42.187 -15.191   4.779  1.00  0.00     0.123 C 
BRANCH  22  23
HETATM   23  C   UNL     1      42.809 -16.420   4.153  1.00  0.00    -0.005 A 
HETATM   24  C   UNL     1      42.311 -16.959   2.949  1.00  0.00     0.042 A 
HETATM   25  C   UNL     1      42.865 -18.116   2.387  1.00  0.00     0.024 A 
HETATM   26 CL   UNL     1      40.985 -16.242   2.097  1.00  0.00    -0.084 Cl
HETATM   27  C   UNL     1      43.922 -18.766   3.016  1.00  0.00     0.003 A 
HETATM   28  C   UNL     1      44.424 -18.259   4.211  1.00  0.00     0.024 A 
HETATM   29  C   UNL     1      43.874 -17.101   4.776  1.00  0.00     0.042 A 
HETATM   30 CL   UNL     1      44.561 -16.565   6.271  1.00  0.00    -0.084 Cl
ENDBRANCH  22  23
ENDBRANCH  21  22
ENDBRANCH   1  21
TORSDOF 6
ENDMDL
MODEL 4
REMARK VINA RESULT:      -8.4      0.807      2.078
REMARK  6 active torsions:
REMARK  status: ('A' for Active; 'I' for Inactive)
REMARK    1  A    between atoms: C_5  and  C_6 
REMARK    2  A    between atoms: C_6  and  S_7 
REMARK    3  A    between atoms: S_7  and  C_8 
REMARK    4  A    between atoms: C_10  and  N_11 
REMARK       I    between atoms: N_11  and  C_12 
REMARK    5  A    between atoms: C_12  and  C_13 
REMARK    6  A    between atoms: C_14  and  C_15 
ROOT
HETATM    1  C   UNL     1      43.075 -12.461   4.903  1.00  0.00     0.160 A 
HETATM    2  S   UNL     1      43.450 -12.784   6.540  1.00  0.00    -0.022 SA
HETATM    3  C   UNL     1      43.122 -11.145   6.868  1.00  0.00     0.197 A 
HETATM    4  N   UNL     1      42.784 -10.439   5.810  1.00  0.00    -0.122 NA
HETATM    5  N   UNL     1      42.760 -11.206   4.660  1.00  0.00    -0.133 NA
ENDROOT
BRANCH   3   6
HETATM    6  N   UNL     1      43.169 -10.598   8.129  1.00  0.00    -0.301 N 
HETATM    7  C   UNL     1      44.244 -10.620   8.982  1.00  0.00     0.247 C 
HETATM    8  O   UNL     1      45.364 -11.058   8.754  1.00  0.00    -0.268 OA
HETATM    9  H   UNL     1      42.298 -10.173   8.411  1.00  0.00     0.171 HD
BRANCH   7  10
HETATM   10  C   UNL     1      43.914 -10.034  10.314  1.00  0.00     0.075 C 
HETATM   11  C   UNL     1      43.059  -9.000  10.377  1.00  0.00     0.017 C 
BRANCH  11  12
HETATM   12  C   UNL     1      42.661  -8.296  11.606  1.00  0.00    -0.033 A 
HETATM   13  C   UNL     1      42.473  -8.959  12.828  1.00  0.00     0.051 A 
HETATM   14  C   UNL     1      42.167  -8.201  13.940  1.00  0.00     0.105 A 
HETATM   15  C   UNL     1      42.050  -6.832  13.880  1.00  0.00     0.105 A 
HETATM   16  O   UNL     1      41.964  -8.683  15.196  1.00  0.00    -0.323 OA
HETATM   17  O   UNL     1      41.758  -6.282  15.087  1.00  0.00    -0.323 OA
HETATM   18  C   UNL     1      42.233  -6.144  12.703  1.00  0.00     0.040 A 
HETATM   19  C   UNL     1      41.721  -7.459  15.921  1.00  0.00     0.352 A 
HETATM   20  C   UNL     1      42.545  -6.887  11.558  1.00  0.00     0.014 A 
ENDBRANCH  11  12
ENDBRANCH   7  10
ENDBRANCH   3   6
BRANCH   1  21
HETATM   21  S   UNL     1      43.092 -13.706   3.679  1.00  0.00    -0.096 SA
BRANCH  21  22
HETATM   22  C   UNL     1      42.317 -15.083   4.577  1.00  0.00     0.123 C 
BRANCH  22  23
HETATM   23  C   UNL     1      42.848 -16.412   4.087  1.00  0.00    -0.005 A 
HETATM   24  C   UNL     1      43.893 -17.076   4.763  1.00  0.00     0.042 A 
HETATM   25  C   UNL     1      44.408 -18.289   4.291  1.00  0.00     0.024 A 
HETATM   26 CL   UNL     1      44.614 -16.436   6.201  1.00  0.00    -0.084 Cl
HETATM   27  C   UNL     1      43.898 -18.865   3.131  1.00  0.00     0.003 A 
HETATM   28  C   UNL     1      42.874 -18.224   2.441  1.00  0.00     0.024 A 
HETATM   29  C   UNL     1      42.355 -17.011   2.910  1.00  0.00     0.042 A 
HETATM   30 CL   UNL     1      41.095 -16.289   1.969  1.00  0.00    -0.084 Cl
ENDBRANCH  22  23
ENDBRANCH  21  22
ENDBRANCH   1  21
TORSDOF 6
ENDMDL
MODEL 5
REMARK VINA RESULT:      -8.4      1.533      2.725
REMARK  6 active torsions:
REMARK  status: ('A' for Active; 'I' for Inactive)
REMARK    1  A    between atoms: C_5  and  C_6 
REMARK    2  A    between atoms: C_6  and  S_7 
REMARK    3  A    between atoms: S_7  and  C_8 
REMARK    4  A    between atoms: C_10  and  N_11 
REMARK       I    between atoms: N_11  and  C_12 
REMARK    5  A    between atoms: C_12  and  C_13 
REMARK    6  A    between atoms: C_14  and  C_15 
ROOT
HETATM    1  C   UNL     1      43.792 -11.930   6.181  1.00  0.00     0.160 A 
HETATM    2  S   UNL     1      42.736 -10.916   7.064  1.00  0.00    -0.022 SA
HETATM    3  C   UNL     1      43.973 -10.749   8.223  1.00  0.00     0.197 A 
HETATM    4  N   UNL     1      45.065 -11.431   7.950  1.00  0.00    -0.122 NA
HETATM    5  N   UNL     1      44.959 -12.125   6.758  1.00  0.00    -0.133 NA
ENDROOT
BRANCH   3   6
HETATM    6  N   UNL     1      43.868  -9.951   9.337  1.00  0.00    -0.301 N 
HETATM    7  C   UNL     1      43.848 -10.377  10.641  1.00  0.00     0.247 C 
HETATM    8  O   UNL     1      43.991 -11.522  11.050  1.00  0.00    -0.268 OA
HETATM    9  H   UNL     1      43.779  -8.969   9.116  1.00  0.00     0.171 HD
BRANCH   7  10
HETATM   10  C   UNL     1      43.608  -9.254  11.595  1.00  0.00     0.075 C 
HETATM   11  C   UNL     1      42.756  -9.438  12.616  1.00  0.00     0.017 C 
BRANCH  11  12
HETATM   12  C   UNL     1      42.392  -8.422  13.615  1.00  0.00    -0.033 A 
HETATM   13  C   UNL     1      41.692  -8.736  14.790  1.00  0.00     0.051 A 
HETATM   14  C   UNL     1      41.456  -7.723  15.698  1.00  0.00     0.105 A 
HETATM   15  C   UNL     1      41.890  -6.437  15.485  1.00  0.00     0.105 A 
HETATM   16  O   UNL     1      40.805  -7.860  16.885  1.00  0.00    -0.323 OA
HETATM   17  O   UNL     1      41.566  -5.602  16.507  1.00  0.00    -0.323 OA
HETATM   18  C   UNL     1      42.585  -6.089  14.349  1.00  0.00     0.040 A 
HETATM   19  C   UNL     1      40.892  -6.514  17.398  1.00  0.00     0.352 A 
HETATM   20  C   UNL     1      42.839  -7.096  13.410  1.00  0.00     0.014 A 
ENDBRANCH  11  12
ENDBRANCH   7  10
ENDBRANCH   3   6
BRANCH   1  21
HETATM   21  S   UNL     1      43.351 -12.621   4.640  1.00  0.00    -0.096 SA
BRANCH  21  22
HETATM   22  C   UNL     1      42.285 -13.996   5.170  1.00  0.00     0.123 C 
BRANCH  22  23
HETATM   23  C   UNL     1      42.486 -15.205   4.285  1.00  0.00    -0.005 A 
HETATM   24  C   UNL     1      43.417 -16.209   4.618  1.00  0.00     0.042 A 
HETATM   25  C   UNL     1      43.627 -17.313   3.782  1.00  0.00     0.024 A 
HETATM   26 CL   UNL     1      44.367 -16.143   6.064  1.00  0.00    -0.084 Cl
HETATM   27  C   UNL     1      42.918 -17.435   2.590  1.00  0.00     0.003 A 
HETATM   28  C   UNL     1      42.001 -16.452   2.234  1.00  0.00     0.024 A 
HETATM   29  C   UNL     1      41.787 -15.348   3.069  1.00  0.00     0.042 A 
HETATM   30 CL   UNL     1      40.637 -14.174   2.525  1.00  0.00    -0.084 Cl
ENDBRANCH  22  23
ENDBRANCH  21  22
ENDBRANCH   1  21
TORSDOF 6
ENDMDL
MODEL 6
REMARK VINA RESULT:      -8.1      1.550      2.275
REMARK  6 active torsions:
REMARK  status: ('A' for Active; 'I' for Inactive)
REMARK    1  A    between atoms: C_5  and  C_6 
REMARK    2  A    between atoms: C_6  and  S_7 
REMARK    3  A    between atoms: S_7  and  C_8 
REMARK    4  A    between atoms: C_10  and  N_11 
REMARK       I    between atoms: N_11  and  C_12 
REMARK    5  A    between atoms: C_12  and  C_13 
REMARK    6  A    between atoms: C_14  and  C_15 
ROOT
HETATM    1  C   UNL     1      43.175 -11.957   4.526  1.00  0.00     0.160 A 
HETATM    2  S   UNL     1      43.711 -12.503   6.055  1.00  0.00    -0.022 SA
HETATM    3  C   UNL     1      43.168 -11.022   6.699  1.00  0.00     0.197 A 
HETATM    4  N   UNL     1      42.655 -10.201   5.807  1.00  0.00    -0.122 NA
HETATM    5  N   UNL     1      42.662 -10.745   4.536  1.00  0.00    -0.133 NA
ENDROOT
BRANCH   3   6
HETATM    6  N   UNL     1      43.224 -10.709   8.036  1.00  0.00    -0.301 N 
HETATM    7  C   UNL     1      44.348 -10.715   8.824  1.00  0.00     0.247 C 
HETATM    8  O   UNL     1      45.501 -10.925   8.470  1.00  0.00    -0.268 OA
HETATM    9  H   UNL     1      42.322 -10.482   8.430  1.00  0.00     0.171 HD
BRANCH   7  10
HETATM   10  C   UNL     1      44.031 -10.435  10.255  1.00  0.00     0.075 C 
HETATM   11  C   UNL     1      42.990  -9.639  10.547  1.00  0.00     0.017 C 
BRANCH  11  12
HETATM   12  C   UNL     1      42.573  -9.244  11.902  1.00  0.00    -0.033 A 
HETATM   13  C   UNL     1      43.227  -8.239  12.629  1.00  0.00     0.051 A 
HETATM   14  C   UNL     1      42.718  -7.894  13.865  1.00  0.00     0.105 A 
HETATM   15  C   UNL     1      41.600  -8.498  14.388  1.00  0.00     0.105 A 
HETATM   16  O   UNL     1      43.224  -6.937  14.690  1.00  0.00    -0.323 OA
HETATM   17  O   UNL     1      41.262  -8.000  15.606  1.00  0.00    -0.323 OA
HETATM   18  C   UNL     1      40.926  -9.483  13.704  1.00  0.00     0.040 A 
HETATM   19  C   UNL     1      42.286  -7.000  15.786  1.00  0.00     0.352 A 
HETATM   20  C   UNL     1      41.419  -9.854  12.447  1.00  0.00     0.014 A 
ENDBRANCH  11  12
ENDBRANCH   7  10
ENDBRANCH   3   6
BRANCH   1  21
HETATM   21  S   UNL     1      43.288 -12.944   3.090  1.00  0.00    -0.096 SA
BRANCH  21  22
HETATM   22  C   UNL     1      41.609 -13.638   3.016  1.00  0.00     0.123 C 
BRANCH  22  23
HETATM   23  C   UNL     1      41.329 -14.500   4.227  1.00  0.00    -0.005 A 
HETATM   24  C   UNL     1      40.457 -14.068   5.247  1.00  0.00     0.042 A 
HETATM   25  C   UNL     1      40.223 -14.851   6.384  1.00  0.00     0.024 A 
HETATM   26 CL   UNL     1      39.633 -12.547   5.171  1.00  0.00    -0.084 Cl
HETATM   27  C   UNL     1      40.859 -16.079   6.533  1.00  0.00     0.003 A 
HETATM   28  C   UNL     1      41.732 -16.524   5.546  1.00  0.00     0.024 A 
HETATM   29  C   UNL     1      41.968 -15.744   4.406  1.00  0.00     0.042 A 
HETATM   30 CL   UNL     1      43.083 -16.381   3.246  1.00  0.00    -0.084 Cl
ENDBRANCH  22  23
ENDBRANCH  21  22
ENDBRANCH   1  21
TORSDOF 6
ENDMDL
MODEL 7
REMARK VINA RESULT:      -8.1      4.724     11.561
REMARK  6 active torsions:
REMARK  status: ('A' for Active; 'I' for Inactive)
REMARK    1  A    between atoms: C_5  and  C_6 
REMARK    2  A    between atoms: C_6  and  S_7 
REMARK    3  A    between atoms: S_7  and  C_8 
REMARK    4  A    between atoms: C_10  and  N_11 
REMARK       I    between atoms: N_11  and  C_12 
REMARK    5  A    between atoms: C_12  and  C_13 
REMARK    6  A    between atoms: C_14  and  C_15 
ROOT
HETATM    1  C   UNL     1      43.125  -9.962   7.564  1.00  0.00     0.160 A 
HETATM    2  S   UNL     1      44.173 -11.218   7.066  1.00  0.00    -0.022 SA
HETATM    3  C   UNL     1      42.875 -11.852   6.164  1.00  0.00     0.197 A 
HETATM    4  N   UNL     1      41.757 -11.166   6.270  1.00  0.00    -0.122 NA
HETATM    5  N   UNL     1      41.901 -10.063   7.091  1.00  0.00    -0.133 NA
ENDROOT
BRANCH   3   6
HETATM    6  N   UNL     1      42.978 -12.966   5.364  1.00  0.00    -0.301 N 
HETATM    7  C   UNL     1      42.791 -13.007   4.005  1.00  0.00     0.247 C 
HETATM    8  O   UNL     1      42.576 -12.063   3.256  1.00  0.00    -0.268 OA
HETATM    9  H   UNL     1      43.190 -13.808   5.880  1.00  0.00     0.171 HD
BRANCH   7  10
HETATM   10  C   UNL     1      42.866 -14.399   3.472  1.00  0.00     0.075 C 
HETATM   11  C   UNL     1      43.276 -15.386   4.284  1.00  0.00     0.017 C 
BRANCH  11  12
HETATM   12  C   UNL     1      43.434 -16.797   3.899  1.00  0.00    -0.033 A 
HETATM   13  C   UNL     1      43.859 -17.783   4.802  1.00  0.00     0.051 A 
HETATM   14  C   UNL     1      43.911 -19.091   4.362  1.00  0.00     0.105 A 
HETATM   15  C   UNL     1      43.554 -19.444   3.082  1.00  0.00     0.105 A 
HETATM   16  O   UNL     1      44.288 -20.163   5.109  1.00  0.00    -0.323 OA
HETATM   17  O   UNL     1      43.665 -20.780   2.862  1.00  0.00    -0.323 OA
HETATM   18  C   UNL     1      43.127 -18.509   2.168  1.00  0.00     0.040 A 
HETATM   19  C   UNL     1      44.115 -21.233   4.156  1.00  0.00     0.352 A 
HETATM   20  C   UNL     1      43.064 -17.175   2.587  1.00  0.00     0.014 A 
ENDBRANCH  11  12
ENDBRANCH   7  10
ENDBRANCH   3   6
BRANCH   1  21
HETATM   21  S   UNL     1      43.657  -8.656   8.593  1.00  0.00    -0.096 SA
BRANCH  21  22
HETATM   22  C   UNL     1      42.121  -8.276   9.489  1.00  0.00     0.123 C 
BRANCH  22  23
HETATM   23  C   UNL     1      42.419  -7.823  10.901  1.00  0.00    -0.005 A 
HETATM   24  C   UNL     1      42.856  -8.734  11.884  1.00  0.00     0.042 A 
HETATM   25  C   UNL     1      43.101  -8.321  13.200  1.00  0.00     0.024 A 
HETATM   26 CL   UNL     1      43.107 -10.412  11.540  1.00  0.00    -0.084 Cl
HETATM   27  C   UNL     1      42.907  -6.993  13.567  1.00  0.00     0.003 A 
HETATM   28  C   UNL     1      42.466  -6.077  12.617  1.00  0.00     0.024 A 
HETATM   29  C   UNL     1      42.222  -6.485  11.299  1.00  0.00     0.042 A 
HETATM   30 CL   UNL     1      41.660  -5.271  10.201  1.00  0.00    -0.084 Cl
ENDBRANCH  22  23
ENDBRANCH  21  22
ENDBRANCH   1  21
TORSDOF 6
ENDMDL
MODEL 8
REMARK VINA RESULT:      -7.7      8.470     12.441
REMARK  6 active torsions:
REMARK  status: ('A' for Active; 'I' for Inactive)
REMARK    1  A    between atoms: C_5  and  C_6 
REMARK    2  A    between atoms: C_6  and  S_7 
REMARK    3  A    between atoms: S_7  and  C_8 
REMARK    4  A    between atoms: C_10  and  N_11 
REMARK       I    between atoms: N_11  and  C_12 
REMARK    5  A    between atoms: C_12  and  C_13 
REMARK    6  A    between atoms: C_14  and  C_15 
ROOT
HETATM    1  C   UNL     1      40.763 -14.977   3.771  1.00  0.00     0.160 A 
HETATM    2  S   UNL     1      40.435 -13.388   3.233  1.00  0.00    -0.022 SA
HETATM    3  C   UNL     1      39.679 -14.078   1.872  1.00  0.00     0.197 A 
HETATM    4  N   UNL     1      39.709 -15.393   1.845  1.00  0.00    -0.122 NA
HETATM    5  N   UNL     1      40.346 -15.920   2.953  1.00  0.00    -0.133 NA
ENDROOT
BRANCH   3   6
HETATM    6  N   UNL     1      39.057 -13.340   0.892  1.00  0.00    -0.301 N 
HETATM    7  C   UNL     1      39.363 -13.346  -0.445  1.00  0.00     0.247 C 
HETATM    8  O   UNL     1      40.184 -14.053  -1.015  1.00  0.00    -0.268 OA
HETATM    9  H   UNL     1      38.329 -12.738   1.250  1.00  0.00     0.171 HD
BRANCH   7  10
HETATM   10  C   UNL     1      38.567 -12.340  -1.208  1.00  0.00     0.075 C 
HETATM   11  C   UNL     1      37.589 -12.767  -2.023  1.00  0.00     0.017 C 
BRANCH  11  12
HETATM   12  C   UNL     1      36.743 -11.905  -2.863  1.00  0.00    -0.033 A 
HETATM   13  C   UNL     1      35.582 -12.374  -3.496  1.00  0.00     0.051 A 
HETATM   14  C   UNL     1      34.818 -11.470  -4.207  1.00  0.00     0.105 A 
HETATM   15  C   UNL     1      35.159 -10.142  -4.302  1.00  0.00     0.105 A 
HETATM   16  O   UNL     1      33.663 -11.757  -4.867  1.00  0.00    -0.323 OA
HETATM   17  O   UNL     1      34.266  -9.427  -5.035  1.00  0.00    -0.323 OA
HETATM   18  C   UNL     1      36.286  -9.642  -3.692  1.00  0.00     0.040 A 
HETATM   19  C   UNL     1      33.311 -10.454  -5.377  1.00  0.00     0.352 A 
HETATM   20  C   UNL     1      37.080 -10.535  -2.963  1.00  0.00     0.014 A 
ENDBRANCH  11  12
ENDBRANCH   7  10
ENDBRANCH   3   6
BRANCH   1  21
HETATM   21  S   UNL     1      41.564 -15.302   5.288  1.00  0.00    -0.096 SA
BRANCH  21  22
HETATM   22  C   UNL     1      43.268 -15.590   4.724  1.00  0.00     0.123 C 
BRANCH  22  23
HETATM   23  C   UNL     1      43.496 -17.055   4.425  1.00  0.00    -0.005 A 
HETATM   24  C   UNL     1      43.667 -17.995   5.462  1.00  0.00     0.042 A 
HETATM   25  C   UNL     1      43.911 -19.346   5.185  1.00  0.00     0.024 A 
HETATM   26 CL   UNL     1      43.602 -17.547   7.133  1.00  0.00    -0.084 Cl
HETATM   27  C   UNL     1      43.997 -19.789   3.869  1.00  0.00     0.003 A 
HETATM   28  C   UNL     1      43.841 -18.879   2.828  1.00  0.00     0.024 A 
HETATM   29  C   UNL     1      43.596 -17.527   3.100  1.00  0.00     0.042 A 
HETATM   30 CL   UNL     1      43.434 -16.476   1.735  1.00  0.00    -0.084 Cl
ENDBRANCH  22  23
ENDBRANCH  21  22
ENDBRANCH   1  21
TORSDOF 6
ENDMDL
MODEL 9
REMARK VINA RESULT:      -7.7      2.007      2.833
REMARK  6 active torsions:
REMARK  status: ('A' for Active; 'I' for Inactive)
REMARK    1  A    between atoms: C_5  and  C_6 
REMARK    2  A    between atoms: C_6  and  S_7 
REMARK    3  A    between atoms: S_7  and  C_8 
REMARK    4  A    between atoms: C_10  and  N_11 
REMARK       I    between atoms: N_11  and  C_12 
REMARK    5  A    between atoms: C_12  and  C_13 
REMARK    6  A    between atoms: C_14  and  C_15 
ROOT
HETATM    1  C   UNL     1      43.698 -11.955   6.109  1.00  0.00     0.160 A 
HETATM    2  S   UNL     1      42.625 -10.877   6.891  1.00  0.00    -0.022 SA
HETATM    3  C   UNL     1      43.795 -10.708   8.117  1.00  0.00     0.197 A 
HETATM    4  N   UNL     1      44.879 -11.433   7.934  1.00  0.00    -0.122 NA
HETATM    5  N   UNL     1      44.821 -12.165   6.762  1.00  0.00    -0.133 NA
ENDROOT
BRANCH   3   6
HETATM    6  N   UNL     1      43.650  -9.868   9.195  1.00  0.00    -0.301 N 
HETATM    7  C   UNL     1      43.674 -10.234  10.518  1.00  0.00     0.247 C 
HETATM    8  O   UNL     1      43.897 -11.347  10.976  1.00  0.00    -0.268 OA
HETATM    9  H   UNL     1      43.493  -8.906   8.931  1.00  0.00     0.171 HD
BRANCH   7  10
HETATM   10  C   UNL     1      43.371  -9.086  11.423  1.00  0.00     0.075 C 
HETATM   11  C   UNL     1      42.489  -9.260  12.420  1.00  0.00     0.017 C 
BRANCH  11  12
HETATM   12  C   UNL     1      42.062  -8.221  13.371  1.00  0.00    -0.033 A 
HETATM   13  C   UNL     1      40.714  -7.889  13.571  1.00  0.00     0.051 A 
HETATM   14  C   UNL     1      40.411  -6.948  14.534  1.00  0.00     0.105 A 
HETATM   15  C   UNL     1      41.383  -6.343  15.294  1.00  0.00     0.105 A 
HETATM   16  O   UNL     1      39.160  -6.523  14.860  1.00  0.00    -0.323 OA
HETATM   17  O   UNL     1      40.869  -5.461  16.191  1.00  0.00    -0.323 OA
HETATM   18  C   UNL     1      42.716  -6.644  15.133  1.00  0.00     0.040 A 
HETATM   19  C   UNL     1      39.458  -5.591  15.921  1.00  0.00     0.352 A 
HETATM   20  C   UNL     1      43.053  -7.596  14.164  1.00  0.00     0.014 A 
ENDBRANCH  11  12
ENDBRANCH   7  10
ENDBRANCH   3   6
BRANCH   1  21
HETATM   21  S   UNL     1      43.327 -12.686   4.568  1.00  0.00    -0.096 SA
BRANCH  21  22
HETATM   22  C   UNL     1      42.248 -14.055   5.086  1.00  0.00     0.123 C 
BRANCH  22  23
HETATM   23  C   UNL     1      41.581 -14.697   3.891  1.00  0.00    -0.005 A 
HETATM   24  C   UNL     1      40.375 -14.188   3.366  1.00  0.00     0.042 A 
HETATM   25  C   UNL     1      39.739 -14.801   2.279  1.00  0.00     0.024 A 
HETATM   26 CL   UNL     1      39.598 -12.790   4.030  1.00  0.00    -0.084 Cl
HETATM   27  C   UNL     1      40.287 -15.940   1.697  1.00  0.00     0.003 A 
HETATM   28  C   UNL     1      41.470 -16.467   2.203  1.00  0.00     0.024 A 
HETATM   29  C   UNL     1      42.111 -15.856   3.289  1.00  0.00     0.042 A 
HETATM   30 CL   UNL     1      43.568 -16.601   3.851  1.00  0.00    -0.084 Cl
ENDBRANCH  22  23
ENDBRANCH  21  22
ENDBRANCH   1  21
TORSDOF 6
ENDMDL
MODEL 10
REMARK VINA RESULT:      -7.7      7.789     11.107
REMARK  6 active torsions:
REMARK  status: ('A' for Active; 'I' for Inactive)
REMARK    1  A    between atoms: C_5  and  C_6 
REMARK    2  A    between atoms: C_6  and  S_7 
REMARK    3  A    between atoms: S_7  and  C_8 
REMARK    4  A    between atoms: C_10  and  N_11 
REMARK       I    between atoms: N_11  and  C_12 
REMARK    5  A    between atoms: C_12  and  C_13 
REMARK    6  A    between atoms: C_14  and  C_15 
ROOT
HETATM    1  C   UNL     1      41.777 -13.394   4.071  1.00  0.00     0.160 A 
HETATM    2  S   UNL     1      42.709 -12.924   2.716  1.00  0.00    -0.022 SA
HETATM    3  C   UNL     1      41.304 -12.196   2.087  1.00  0.00     0.197 A 
HETATM    4  N   UNL     1      40.237 -12.333   2.845  1.00  0.00    -0.122 NA
HETATM    5  N   UNL     1      40.512 -13.037   4.004  1.00  0.00    -0.133 NA
ENDROOT
BRANCH   3   6
HETATM    6  N   UNL     1      41.276 -11.494   0.905  1.00  0.00    -0.301 N 
HETATM    7  C   UNL     1      40.907 -11.985  -0.322  1.00  0.00     0.247 C 
HETATM    8  O   UNL     1      40.471 -13.101  -0.573  1.00  0.00    -0.268 OA
HETATM    9  H   UNL     1      41.587 -10.538   1.003  1.00  0.00     0.171 HD
BRANCH   7  10
HETATM   10  C   UNL     1      41.104 -10.983  -1.410  1.00  0.00     0.075 C 
HETATM   11  C   UNL     1      41.811  -9.871  -1.150  1.00  0.00     0.017 C 
BRANCH  11  12
HETATM   12  C   UNL     1      42.063  -8.780  -2.103  1.00  0.00    -0.033 A 
HETATM   13  C   UNL     1      41.392  -8.680  -3.331  1.00  0.00     0.051 A 
HETATM   14  C   UNL     1      41.648  -7.582  -4.127  1.00  0.00     0.105 A 
HETATM   15  C   UNL     1      42.526  -6.595  -3.747  1.00  0.00     0.105 A 
HETATM   16  O   UNL     1      41.077  -7.329  -5.336  1.00  0.00    -0.323 OA
HETATM   17  O   UNL     1      42.621  -5.600  -4.667  1.00  0.00    -0.323 OA
HETATM   18  C   UNL     1      43.200  -6.652  -2.548  1.00  0.00     0.040 A 
HETATM   19  C   UNL     1      41.688  -6.064  -5.665  1.00  0.00     0.352 A 
HETATM   20  C   UNL     1      42.959  -7.754  -1.720  1.00  0.00     0.014 A 
ENDBRANCH  11  12
ENDBRANCH   7  10
ENDBRANCH   3   6
BRANCH   1  21
HETATM   21  S   UNL     1      42.466 -14.252   5.426  1.00  0.00    -0.096 SA
BRANCH  21  22
HETATM   22  C   UNL     1      41.649 -15.868   5.261  1.00  0.00     0.123 C 
BRANCH  22  23
HETATM   23  C   UNL     1      42.496 -16.819   4.445  1.00  0.00    -0.005 A 
HETATM   24  C   UNL     1      42.236 -17.039   3.077  1.00  0.00     0.042 A 
HETATM   25  C   UNL     1      42.999 -17.943   2.328  1.00  0.00     0.024 A 
HETATM   26 CL   UNL     1      40.960 -16.222   2.238  1.00  0.00    -0.084 Cl
HETATM   27  C   UNL     1      44.032 -18.655   2.929  1.00  0.00     0.003 A 
HETATM   28  C   UNL     1      44.302 -18.464   4.280  1.00  0.00     0.024 A 
HETATM   29  C   UNL     1      43.543 -17.559   5.032  1.00  0.00     0.042 A 
HETATM   30 CL   UNL     1      43.949 -17.407   6.707  1.00  0.00    -0.084 Cl
ENDBRANCH  22  23
ENDBRANCH  21  22
ENDBRANCH   1  21
TORSDOF 6
ENDMDL
