MODEL 1
REMARK VINA RESULT:      -8.5      0.000      0.000
REMARK  4 active torsions:
REMARK  status: ('A' for Active; 'I' for Inactive)
REMARK    1  A    between atoms: C_9  and  N_10 
REMARK       I    between atoms: N_10  and  C_11 
REMARK    2  A    between atoms: C_11  and  C_12 
REMARK    3  A    between atoms: C_14  and  C_15 
REMARK    4  A    between atoms: C_22  and  O_23 
ROOT
HETATM    1  N   UNL     1      43.752 -12.594   6.008  1.00  0.00    -0.322 N 
HETATM    2  C   UNL     1      43.505 -13.861   6.523  1.00  0.00     0.265 C 
HETATM    3  O   UNL     1      43.337 -14.088   7.719  1.00  0.00    -0.267 OA
HETATM    4  H   UNL     1      43.716 -12.523   4.998  1.00  0.00     0.169 HD
ENDROOT
BRANCH   2   5
HETATM    5  C   UNL     1      43.436 -14.902   5.508  1.00  0.00     0.107 A 
HETATM    6  S   UNL     1      44.103 -16.449   5.825  1.00  0.00    -0.081 SA
HETATM    7  C   UNL     1      43.516 -17.090   4.350  1.00  0.00     0.018 A 
HETATM    8  C   UNL     1      42.876 -16.118   3.605  1.00  0.00     0.058 A 
HETATM    9  C   UNL     1      42.834 -14.852   4.267  1.00  0.00     0.092 A 
BRANCH   7  10
HETATM   10  C   UNL     1      43.686 -18.512   4.040  1.00  0.00    -0.019 A 
HETATM   11  C   UNL     1      44.010 -19.413   5.066  1.00  0.00     0.013 A 
HETATM   12  C   UNL     1      44.178 -20.773   4.794  1.00  0.00     0.001 A 
HETATM   13  C   UNL     1      44.018 -21.247   3.494  1.00  0.00     0.000 A 
HETATM   14  C   UNL     1      43.690 -20.364   2.467  1.00  0.00     0.001 A 
HETATM   15  C   UNL     1      43.524 -19.004   2.737  1.00  0.00     0.013 A 
ENDBRANCH   7  10
BRANCH   9  16
HETATM   16  O   UNL     1      42.302 -13.684   3.825  1.00  0.00    -0.354 OA
HETATM   17  C   UNL     1      42.816 -13.219   2.585  1.00  0.00     0.210 C 
ENDBRANCH   9  16
ENDBRANCH   2   5
BRANCH   1  18
HETATM   18  C   UNL     1      43.991 -11.410   6.731  1.00  0.00     0.035 A 
HETATM   19  C   UNL     1      42.981 -10.507   7.078  1.00  0.00     0.039 A 
HETATM   20  C   UNL     1      43.309  -9.387   7.828  1.00  0.00    -0.022 A 
HETATM   21  C   UNL     1      42.386  -8.345   8.351  1.00  0.00     0.274 C 
HETATM   22  C   UNL     1      44.622  -9.142   8.229  1.00  0.00    -0.025 A 
HETATM   23  N   UNL     1      43.292  -7.303   9.001  1.00  0.00    -0.067 N 
HETATM   24  C   UNL     1      42.800  -6.811  10.317  1.00  0.00     0.270 C 
HETATM   25  H   UNL     1      43.331  -6.514   8.346  1.00  0.00     0.280 HD
HETATM   26  C   UNL     1      44.697  -7.898   9.043  1.00  0.00     0.273 C 
HETATM   27  C   UNL     1      45.638 -10.022   7.896  1.00  0.00     0.012 A 
HETATM   28  C   UNL     1      45.312 -11.163   7.153  1.00  0.00     0.030 A 
ENDBRANCH   1  18
TORSDOF 4
ENDMDL
MODEL 2
REMARK VINA RESULT:      -8.1      4.915      7.960
REMARK  4 active torsions:
REMARK  status: ('A' for Active; 'I' for Inactive)
REMARK    1  A    between atoms: C_9  and  N_10 
REMARK       I    between atoms: N_10  and  C_11 
REMARK    2  A    between atoms: C_11  and  C_12 
REMARK    3  A    between atoms: C_14  and  C_15 
REMARK    4  A    between atoms: C_22  and  O_23 
ROOT
HETATM    1  N   UNL     1      40.983 -13.663   0.225  1.00  0.00    -0.322 N 
HETATM    2  C   UNL     1      40.925 -13.527   1.607  1.00  0.00     0.265 C 
HETATM    3  O   UNL     1      40.243 -12.680   2.179  1.00  0.00    -0.267 OA
HETATM    4  H   UNL     1      41.456 -14.494  -0.109  1.00  0.00     0.169 HD
ENDROOT
BRANCH   2   5
HETATM    5  C   UNL     1      41.731 -14.503   2.325  1.00  0.00     0.107 A 
HETATM    6  S   UNL     1      41.459 -16.178   2.085  1.00  0.00    -0.081 SA
HETATM    7  C   UNL     1      42.798 -16.614   3.059  1.00  0.00     0.018 A 
HETATM    8  C   UNL     1      43.401 -15.497   3.605  1.00  0.00     0.058 A 
HETATM    9  C   UNL     1      42.783 -14.277   3.190  1.00  0.00     0.092 A 
BRANCH   7  10
HETATM   10  C   UNL     1      43.193 -18.020   3.189  1.00  0.00    -0.019 A 
HETATM   11  C   UNL     1      42.960 -18.908   2.128  1.00  0.00     0.013 A 
HETATM   12  C   UNL     1      43.326 -20.252   2.230  1.00  0.00     0.001 A 
HETATM   13  C   UNL     1      43.938 -20.720   3.392  1.00  0.00     0.000 A 
HETATM   14  C   UNL     1      44.182 -19.847   4.449  1.00  0.00     0.001 A 
HETATM   15  C   UNL     1      43.812 -18.503   4.350  1.00  0.00     0.013 A 
ENDBRANCH   7  10
BRANCH   9  16
HETATM   16  O   UNL     1      43.104 -13.005   3.541  1.00  0.00    -0.354 OA
HETATM   17  C   UNL     1      43.040 -12.730   4.934  1.00  0.00     0.210 C 
ENDBRANCH   9  16
ENDBRANCH   2   5
BRANCH   1  18
HETATM   18  C   UNL     1      40.417 -12.810  -0.741  1.00  0.00     0.035 A 
HETATM   19  C   UNL     1      39.072 -12.866  -1.120  1.00  0.00     0.039 A 
HETATM   20  C   UNL     1      38.596 -11.956  -2.052  1.00  0.00    -0.022 A 
HETATM   21  C   UNL     1      37.199 -11.804  -2.541  1.00  0.00     0.274 C 
HETATM   22  C   UNL     1      39.434 -10.998  -2.623  1.00  0.00    -0.025 A 
HETATM   23  N   UNL     1      37.273 -10.735  -3.627  1.00  0.00    -0.067 N 
HETATM   24  C   UNL     1      36.175  -9.733  -3.564  1.00  0.00     0.270 C 
HETATM   25  H   UNL     1      37.215 -11.235  -4.521  1.00  0.00     0.280 HD
HETATM   26  C   UNL     1      38.673 -10.130  -3.563  1.00  0.00     0.273 C 
HETATM   27  C   UNL     1      40.769 -10.924  -2.264  1.00  0.00     0.012 A 
HETATM   28  C   UNL     1      41.253 -11.830  -1.312  1.00  0.00     0.030 A 
ENDBRANCH   1  18
TORSDOF 4
ENDMDL
MODEL 3
REMARK VINA RESULT:      -8.1      3.966      9.785
REMARK  4 active torsions:
REMARK  status: ('A' for Active; 'I' for Inactive)
REMARK    1  A    between atoms: C_9  and  N_10 
REMARK       I    between atoms: N_10  and  C_11 
REMARK    2  A    between atoms: C_11  and  C_12 
REMARK    3  A    between atoms: C_14  and  C_15 
REMARK    4  A    between atoms: C_22  and  O_23 
ROOT
HETATM    1  N   UNL     1      43.172 -11.577   7.052  1.00  0.00    -0.322 N 
HETATM    2  C   UNL     1      42.809 -10.292   7.438  1.00  0.00     0.265 C 
HETATM    3  O   UNL     1      42.154  -9.529   6.730  1.00  0.00    -0.267 OA
HETATM    4  H   UNL     1      43.572 -12.151   7.785  1.00  0.00     0.169 HD
ENDROOT
BRANCH   2   5
HETATM    5  C   UNL     1      43.253  -9.935   8.776  1.00  0.00     0.107 A 
HETATM    6  S   UNL     1      42.196  -9.092   9.831  1.00  0.00    -0.081 SA
HETATM    7  C   UNL     1      43.294  -9.195  11.140  1.00  0.00     0.018 A 
HETATM    8  C   UNL     1      44.472  -9.808  10.755  1.00  0.00     0.058 A 
HETATM    9  C   UNL     1      44.454 -10.229   9.390  1.00  0.00     0.092 A 
BRANCH   7  10
HETATM   10  C   UNL     1      42.913  -8.705  12.468  1.00  0.00    -0.019 A 
HETATM   11  C   UNL     1      41.917  -9.373  13.195  1.00  0.00     0.013 A 
HETATM   12  C   UNL     1      41.536  -8.924  14.461  1.00  0.00     0.001 A 
HETATM   13  C   UNL     1      42.153  -7.804  15.017  1.00  0.00     0.000 A 
HETATM   14  C   UNL     1      43.149  -7.136  14.308  1.00  0.00     0.001 A 
HETATM   15  C   UNL     1      43.529  -7.583  13.040  1.00  0.00     0.013 A 
ENDBRANCH   7  10
BRANCH   9  16
HETATM   16  O   UNL     1      45.436 -10.846   8.682  1.00  0.00    -0.354 OA
HETATM   17  C   UNL     1      46.288  -9.975   7.951  1.00  0.00     0.210 C 
ENDBRANCH   9  16
ENDBRANCH   2   5
BRANCH   1  18
HETATM   18  C   UNL     1      42.998 -12.170   5.788  1.00  0.00     0.035 A 
HETATM   19  C   UNL     1      42.104 -13.219   5.551  1.00  0.00     0.039 A 
HETATM   20  C   UNL     1      41.971 -13.712   4.261  1.00  0.00    -0.022 A 
HETATM   21  C   UNL     1      41.041 -14.771   3.785  1.00  0.00     0.274 C 
HETATM   22  C   UNL     1      42.718 -13.190   3.205  1.00  0.00    -0.025 A 
HETATM   23  N   UNL     1      41.400 -14.985   2.318  1.00  0.00    -0.067 N 
HETATM   24  C   UNL     1      40.221 -15.109   1.419  1.00  0.00     0.270 C 
HETATM   25  H   UNL     1      41.937 -15.859   2.282  1.00  0.00     0.280 HD
HETATM   26  C   UNL     1      42.367 -13.870   1.928  1.00  0.00     0.273 C 
HETATM   27  C   UNL     1      43.610 -12.152   3.417  1.00  0.00     0.012 A 
HETATM   28  C   UNL     1      43.737 -11.639   4.713  1.00  0.00     0.030 A 
ENDBRANCH   1  18
TORSDOF 4
ENDMDL
MODEL 4
REMARK VINA RESULT:      -7.9      2.922     10.013
REMARK  4 active torsions:
REMARK  status: ('A' for Active; 'I' for Inactive)
REMARK    1  A    between atoms: C_9  and  N_10 
REMARK       I    between atoms: N_10  and  C_11 
REMARK    2  A    between atoms: C_11  and  C_12 
REMARK    3  A    between atoms: C_14  and  C_15 
REMARK    4  A    between atoms: C_22  and  O_23 
ROOT
HETATM    1  N   UNL     1      42.440 -11.993   6.947  1.00  0.00    -0.322 N 
HETATM    2  C   UNL     1      42.696 -10.631   6.841  1.00  0.00     0.265 C 
HETATM    3  O   UNL     1      42.509  -9.982   5.814  1.00  0.00    -0.267 OA
HETATM    4  H   UNL     1      42.488 -12.369   7.887  1.00  0.00     0.169 HD
ENDROOT
BRANCH   2   5
HETATM    5  C   UNL     1      43.184 -10.028   8.072  1.00  0.00     0.107 A 
HETATM    6  S   UNL     1      42.273  -8.796   8.840  1.00  0.00    -0.081 SA
HETATM    7  C   UNL     1      43.331  -8.744  10.185  1.00  0.00     0.018 A 
HETATM    8  C   UNL     1      44.394  -9.611  10.016  1.00  0.00     0.058 A 
HETATM    9  C   UNL     1      44.316 -10.348   8.794  1.00  0.00     0.092 A 
BRANCH   7  10
HETATM   10  C   UNL     1      43.027  -7.887  11.335  1.00  0.00    -0.019 A 
HETATM   11  C   UNL     1      43.395  -8.299  12.625  1.00  0.00     0.013 A 
HETATM   12  C   UNL     1      43.115  -7.500  13.735  1.00  0.00     0.001 A 
HETATM   13  C   UNL     1      42.469  -6.276  13.567  1.00  0.00     0.000 A 
HETATM   14  C   UNL     1      42.105  -5.852  12.291  1.00  0.00     0.001 A 
HETATM   15  C   UNL     1      42.383  -6.652  11.179  1.00  0.00     0.013 A 
ENDBRANCH   7  10
BRANCH   9  16
HETATM   16  O   UNL     1      45.188 -11.267   8.304  1.00  0.00    -0.354 OA
HETATM   17  C   UNL     1      46.253 -10.733   7.529  1.00  0.00     0.210 C 
ENDBRANCH   9  16
ENDBRANCH   2   5
BRANCH   1  18
HETATM   18  C   UNL     1      42.077 -12.877   5.914  1.00  0.00     0.035 A 
HETATM   19  C   UNL     1      42.983 -13.741   5.291  1.00  0.00     0.039 A 
HETATM   20  C   UNL     1      42.522 -14.605   4.310  1.00  0.00    -0.022 A 
HETATM   21  C   UNL     1      43.299 -15.638   3.573  1.00  0.00     0.274 C 
HETATM   22  C   UNL     1      41.181 -14.620   3.928  1.00  0.00    -0.025 A 
HETATM   23  N   UNL     1      42.326 -16.210   2.546  1.00  0.00    -0.067 N 
HETATM   24  C   UNL     1      42.373 -17.692   2.428  1.00  0.00     0.270 C 
HETATM   25  H   UNL     1      42.591 -15.797   1.644  1.00  0.00     0.280 HD
HETATM   26  C   UNL     1      40.945 -15.655   2.884  1.00  0.00     0.273 C 
HETATM   27  C   UNL     1      40.266 -13.773   4.530  1.00  0.00     0.012 A 
HETATM   28  C   UNL     1      40.721 -12.908   5.533  1.00  0.00     0.030 A 
ENDBRANCH   1  18
TORSDOF 4
ENDMDL
MODEL 5
REMARK VINA RESULT:      -7.8      4.792      7.847
REMARK  4 active torsions:
REMARK  status: ('A' for Active; 'I' for Inactive)
REMARK    1  A    between atoms: C_9  and  N_10 
REMARK       I    between atoms: N_10  and  C_11 
REMARK    2  A    between atoms: C_11  and  C_12 
REMARK    3  A    between atoms: C_14  and  C_15 
REMARK    4  A    between atoms: C_22  and  O_23 
ROOT
HETATM    1  N   UNL     1      40.955 -13.455   0.250  1.00  0.00    -0.322 N 
HETATM    2  C   UNL     1      40.620 -13.502   1.598  1.00  0.00     0.265 C 
HETATM    3  O   UNL     1      39.716 -12.837   2.099  1.00  0.00    -0.267 OA
HETATM    4  H   UNL     1      41.609 -14.164  -0.058  1.00  0.00     0.169 HD
ENDROOT
BRANCH   2   5
HETATM    5  C   UNL     1      41.425 -14.439   2.369  1.00  0.00     0.107 A 
HETATM    6  S   UNL     1      41.347 -16.116   2.025  1.00  0.00    -0.081 SA
HETATM    7  C   UNL     1      42.595 -16.481   3.138  1.00  0.00     0.018 A 
HETATM    8  C   UNL     1      43.017 -15.345   3.802  1.00  0.00     0.058 A 
HETATM    9  C   UNL     1      42.339 -14.166   3.367  1.00  0.00     0.092 A 
BRANCH   7  10
HETATM   10  C   UNL     1      43.106 -17.850   3.256  1.00  0.00    -0.019 A 
HETATM   11  C   UNL     1      42.971 -18.737   2.177  1.00  0.00     0.013 A 
HETATM   12  C   UNL     1      43.449 -20.047   2.266  1.00  0.00     0.001 A 
HETATM   13  C   UNL     1      44.073 -20.481   3.435  1.00  0.00     0.000 A 
HETATM   14  C   UNL     1      44.219 -19.608   4.511  1.00  0.00     0.001 A 
HETATM   15  C   UNL     1      43.739 -18.299   4.423  1.00  0.00     0.013 A 
ENDBRANCH   7  10
BRANCH   9  16
HETATM   16  O   UNL     1      42.491 -12.891   3.809  1.00  0.00    -0.354 OA
HETATM   17  C   UNL     1      43.620 -12.204   3.287  1.00  0.00     0.210 C 
ENDBRANCH   9  16
ENDBRANCH   2   5
BRANCH   1  18
HETATM   18  C   UNL     1      40.449 -12.574  -0.724  1.00  0.00     0.035 A 
HETATM   19  C   UNL     1      41.086 -11.383  -1.085  1.00  0.00     0.039 A 
HETATM   20  C   UNL     1      40.532 -10.600  -2.087  1.00  0.00    -0.022 A 
HETATM   21  C   UNL     1      41.077  -9.340  -2.660  1.00  0.00     0.274 C 
HETATM   22  C   UNL     1      39.351 -10.973  -2.729  1.00  0.00    -0.025 A 
HETATM   23  N   UNL     1      40.012  -8.856  -3.639  1.00  0.00    -0.067 N 
HETATM   24  C   UNL     1      40.558  -8.368  -4.935  1.00  0.00     0.270 C 
HETATM   25  H   UNL     1      39.528  -8.081  -3.171  1.00  0.00     0.280 HD
HETATM   26  C   UNL     1      38.989  -9.981  -3.778  1.00  0.00     0.273 C 
HETATM   27  C   UNL     1      38.702 -12.147  -2.387  1.00  0.00     0.012 A 
HETATM   28  C   UNL     1      39.264 -12.951  -1.387  1.00  0.00     0.030 A 
ENDBRANCH   1  18
TORSDOF 4
ENDMDL
MODEL 6
REMARK VINA RESULT:      -7.7      5.362      9.606
REMARK  4 active torsions:
REMARK  status: ('A' for Active; 'I' for Inactive)
REMARK    1  A    between atoms: C_9  and  N_10 
REMARK       I    between atoms: N_10  and  C_11 
REMARK    2  A    between atoms: C_11  and  C_12 
REMARK    3  A    between atoms: C_14  and  C_15 
REMARK    4  A    between atoms: C_22  and  O_23 
ROOT
HETATM    1  N   UNL     1      42.059 -14.221   1.019  1.00  0.00    -0.322 N 
HETATM    2  C   UNL     1      40.726 -13.897   0.794  1.00  0.00     0.265 C 
HETATM    3  O   UNL     1      39.803 -14.283   1.508  1.00  0.00    -0.267 OA
HETATM    4  H   UNL     1      42.729 -13.714   0.453  1.00  0.00     0.169 HD
ENDROOT
BRANCH   2   5
HETATM    5  C   UNL     1      40.521 -13.030  -0.356  1.00  0.00     0.107 A 
HETATM    6  S   UNL     1      41.120 -11.424  -0.333  1.00  0.00    -0.081 SA
HETATM    7  C   UNL     1      40.667 -11.149  -1.961  1.00  0.00     0.018 A 
HETATM    8  C   UNL     1      40.014 -12.248  -2.488  1.00  0.00     0.058 A 
HETATM    9  C   UNL     1      39.921 -13.331  -1.562  1.00  0.00     0.092 A 
BRANCH   7  10
HETATM   10  C   UNL     1      41.019  -9.891  -2.626  1.00  0.00    -0.019 A 
HETATM   11  C   UNL     1      41.833  -8.959  -1.964  1.00  0.00     0.013 A 
HETATM   12  C   UNL     1      42.180  -7.753  -2.577  1.00  0.00     0.001 A 
HETATM   13  C   UNL     1      41.722  -7.469  -3.863  1.00  0.00     0.000 A 
HETATM   14  C   UNL     1      40.920  -8.389  -4.534  1.00  0.00     0.001 A 
HETATM   15  C   UNL     1      40.569  -9.595  -3.920  1.00  0.00     0.013 A 
ENDBRANCH   7  10
BRANCH   9  16
HETATM   16  O   UNL     1      39.338 -14.545  -1.738  1.00  0.00    -0.354 OA
HETATM   17  C   UNL     1      38.690 -14.727  -2.989  1.00  0.00     0.210 C 
ENDBRANCH   9  16
ENDBRANCH   2   5
BRANCH   1  18
HETATM   18  C   UNL     1      42.569 -15.126   1.968  1.00  0.00     0.035 A 
HETATM   19  C   UNL     1      42.761 -14.797   3.314  1.00  0.00     0.039 A 
HETATM   20  C   UNL     1      43.231 -15.769   4.184  1.00  0.00    -0.022 A 
HETATM   21  C   UNL     1      43.443 -15.648   5.652  1.00  0.00     0.274 C 
HETATM   22  C   UNL     1      43.525 -17.059   3.740  1.00  0.00    -0.025 A 
HETATM   23  N   UNL     1      44.072 -16.973   6.073  1.00  0.00    -0.067 N 
HETATM   24  C   UNL     1      43.508 -17.537   7.329  1.00  0.00     0.270 C 
HETATM   25  H   UNL     1      45.070 -16.781   6.215  1.00  0.00     0.280 HD
HETATM   26  C   UNL     1      43.980 -17.911   4.873  1.00  0.00     0.273 C 
HETATM   27  C   UNL     1      43.344 -17.406   2.413  1.00  0.00     0.012 A 
HETATM   28  C   UNL     1      42.854 -16.434   1.531  1.00  0.00     0.030 A 
ENDBRANCH   1  18
TORSDOF 4
ENDMDL
MODEL 7
REMARK VINA RESULT:      -7.6      2.615      4.384
REMARK  4 active torsions:
REMARK  status: ('A' for Active; 'I' for Inactive)
REMARK    1  A    between atoms: C_9  and  N_10 
REMARK       I    between atoms: N_10  and  C_11 
REMARK    2  A    between atoms: C_11  and  C_12 
REMARK    3  A    between atoms: C_14  and  C_15 
REMARK    4  A    between atoms: C_22  and  O_23 
ROOT
HETATM    1  N   UNL     1      42.825 -10.382   8.768  1.00  0.00    -0.322 N 
HETATM    2  C   UNL     1      43.889 -10.983   8.105  1.00  0.00     0.265 C 
HETATM    3  O   UNL     1      45.023 -11.066   8.574  1.00  0.00    -0.267 OA
HETATM    4  H   UNL     1      41.917 -10.520   8.340  1.00  0.00     0.169 HD
ENDROOT
BRANCH   2   5
HETATM    5  C   UNL     1      43.535 -11.535   6.806  1.00  0.00     0.107 A 
HETATM    6  S   UNL     1      44.057 -13.109   6.375  1.00  0.00    -0.081 SA
HETATM    7  C   UNL     1      43.168 -13.088   4.913  1.00  0.00     0.018 A 
HETATM    8  C   UNL     1      42.534 -11.873   4.733  1.00  0.00     0.058 A 
HETATM    9  C   UNL     1      42.750 -10.971   5.820  1.00  0.00     0.092 A 
BRANCH   7  10
HETATM   10  C   UNL     1      43.116 -14.279   4.059  1.00  0.00    -0.019 A 
HETATM   11  C   UNL     1      43.153 -14.135   2.663  1.00  0.00     0.013 A 
HETATM   12  C   UNL     1      43.103 -15.255   1.830  1.00  0.00     0.001 A 
HETATM   13  C   UNL     1      43.024 -16.531   2.384  1.00  0.00     0.000 A 
HETATM   14  C   UNL     1      42.994 -16.688   3.768  1.00  0.00     0.001 A 
HETATM   15  C   UNL     1      43.040 -15.568   4.603  1.00  0.00     0.013 A 
ENDBRANCH   7  10
BRANCH   9  16
HETATM   16  O   UNL     1      42.295  -9.701   5.968  1.00  0.00    -0.354 OA
HETATM   17  C   UNL     1      40.887  -9.548   5.851  1.00  0.00     0.210 C 
ENDBRANCH   9  16
ENDBRANCH   2   5
BRANCH   1  18
HETATM   18  C   UNL     1      42.869  -9.661   9.975  1.00  0.00     0.035 A 
HETATM   19  C   UNL     1      42.565  -8.299  10.065  1.00  0.00     0.039 A 
HETATM   20  C   UNL     1      42.596  -7.683  11.307  1.00  0.00    -0.022 A 
HETATM   21  C   UNL     1      42.250  -6.272  11.629  1.00  0.00     0.274 C 
HETATM   22  C   UNL     1      42.934  -8.392  12.460  1.00  0.00    -0.025 A 
HETATM   23  N   UNL     1      42.568  -6.114  13.113  1.00  0.00    -0.067 N 
HETATM   24  C   UNL     1      41.531  -5.370  13.878  1.00  0.00     0.270 C 
HETATM   25  H   UNL     1      43.451  -5.593  13.160  1.00  0.00     0.280 HD
HETATM   26  C   UNL     1      42.862  -7.510  13.657  1.00  0.00     0.273 C 
HETATM   27  C   UNL     1      43.239  -9.741  12.394  1.00  0.00     0.012 A 
HETATM   28  C   UNL     1      43.194 -10.373  11.146  1.00  0.00     0.030 A 
ENDBRANCH   1  18
TORSDOF 4
ENDMDL
MODEL 8
REMARK VINA RESULT:      -7.6      2.792      3.341
REMARK  4 active torsions:
REMARK  status: ('A' for Active; 'I' for Inactive)
REMARK    1  A    between atoms: C_9  and  N_10 
REMARK       I    between atoms: N_10  and  C_11 
REMARK    2  A    between atoms: C_11  and  C_12 
REMARK    3  A    between atoms: C_14  and  C_15 
REMARK    4  A    between atoms: C_22  and  O_23 
ROOT
HETATM    1  N   UNL     1      41.157 -12.824   4.432  1.00  0.00    -0.322 N 
HETATM    2  C   UNL     1      42.510 -13.134   4.354  1.00  0.00     0.265 C 
HETATM    3  O   UNL     1      43.396 -12.435   4.841  1.00  0.00    -0.267 OA
HETATM    4  H   UNL     1      40.527 -13.558   4.129  1.00  0.00     0.169 HD
ENDROOT
BRANCH   2   5
HETATM    5  C   UNL     1      42.785 -14.383   3.662  1.00  0.00     0.107 A 
HETATM    6  S   UNL     1      43.268 -15.766   4.554  1.00  0.00    -0.081 SA
HETATM    7  C   UNL     1      43.231 -16.769   3.168  1.00  0.00     0.018 A 
HETATM    8  C   UNL     1      42.914 -16.042   2.035  1.00  0.00     0.058 A 
HETATM    9  C   UNL     1      42.665 -14.664   2.316  1.00  0.00     0.092 A 
BRANCH   7  10
HETATM   10  C   UNL     1      43.473 -18.210   3.289  1.00  0.00    -0.019 A 
HETATM   11  C   UNL     1      43.975 -18.731   4.491  1.00  0.00     0.013 A 
HETATM   12  C   UNL     1      44.215 -20.100   4.629  1.00  0.00     0.001 A 
HETATM   13  C   UNL     1      43.949 -20.964   3.568  1.00  0.00     0.000 A 
HETATM   14  C   UNL     1      43.443 -20.460   2.371  1.00  0.00     0.001 A 
HETATM   15  C   UNL     1      43.205 -19.090   2.231  1.00  0.00     0.013 A 
ENDBRANCH   7  10
BRANCH   9  16
HETATM   16  O   UNL     1      42.345 -13.669   1.448  1.00  0.00    -0.354 OA
HETATM   17  C   UNL     1      41.029 -13.734   0.915  1.00  0.00     0.210 C 
ENDBRANCH   9  16
ENDBRANCH   2   5
BRANCH   1  18
HETATM   18  C   UNL     1      40.579 -11.640   4.928  1.00  0.00     0.035 A 
HETATM   19  C   UNL     1      40.652 -11.257   6.271  1.00  0.00     0.039 A 
HETATM   20  C   UNL     1      40.086 -10.051   6.657  1.00  0.00    -0.022 A 
HETATM   21  C   UNL     1      40.106  -9.432   8.010  1.00  0.00     0.274 C 
HETATM   22  C   UNL     1      39.440  -9.225   5.737  1.00  0.00    -0.025 A 
HETATM   23  N   UNL     1      39.245  -8.178   7.886  1.00  0.00    -0.067 N 
HETATM   24  C   UNL     1      39.822  -6.979   8.552  1.00  0.00     0.270 C 
HETATM   25  H   UNL     1      38.348  -8.405   8.330  1.00  0.00     0.280 HD
HETATM   26  C   UNL     1      38.952  -7.984   6.400  1.00  0.00     0.273 C 
HETATM   27  C   UNL     1      39.356  -9.585   4.403  1.00  0.00     0.012 A 
HETATM   28  C   UNL     1      39.938 -10.794   4.003  1.00  0.00     0.030 A 
ENDBRANCH   1  18
TORSDOF 4
ENDMDL
MODEL 9
REMARK VINA RESULT:      -7.6      3.981      4.690
REMARK  4 active torsions:
REMARK  status: ('A' for Active; 'I' for Inactive)
REMARK    1  A    between atoms: C_9  and  N_10 
REMARK       I    between atoms: N_10  and  C_11 
REMARK    2  A    between atoms: C_11  and  C_12 
REMARK    3  A    between atoms: C_14  and  C_15 
REMARK    4  A    between atoms: C_22  and  O_23 
ROOT
HETATM    1  N   UNL     1      40.620 -13.107   3.915  1.00  0.00    -0.322 N 
HETATM    2  C   UNL     1      41.999 -13.283   3.939  1.00  0.00     0.265 C 
HETATM    3  O   UNL     1      42.781 -12.460   4.409  1.00  0.00    -0.267 OA
HETATM    4  H   UNL     1      40.085 -13.924   3.645  1.00  0.00     0.169 HD
ENDROOT
BRANCH   2   5
HETATM    5  C   UNL     1      42.437 -14.552   3.379  1.00  0.00     0.107 A 
HETATM    6  S   UNL     1      42.970 -15.807   4.418  1.00  0.00    -0.081 SA
HETATM    7  C   UNL     1      43.129 -16.916   3.125  1.00  0.00     0.018 A 
HETATM    8  C   UNL     1      42.838 -16.316   1.914  1.00  0.00     0.058 A 
HETATM    9  C   UNL     1      42.445 -14.950   2.056  1.00  0.00     0.092 A 
BRANCH   7  10
HETATM   10  C   UNL     1      43.489 -18.314   3.386  1.00  0.00    -0.019 A 
HETATM   11  C   UNL     1      43.399 -19.259   2.353  1.00  0.00     0.013 A 
HETATM   12  C   UNL     1      43.735 -20.596   2.579  1.00  0.00     0.001 A 
HETATM   13  C   UNL     1      44.170 -21.000   3.840  1.00  0.00     0.000 A 
HETATM   14  C   UNL     1      44.270 -20.070   4.872  1.00  0.00     0.001 A 
HETATM   15  C   UNL     1      43.932 -18.733   4.648  1.00  0.00     0.013 A 
ENDBRANCH   7  10
BRANCH   9  16
HETATM   16  O   UNL     1      42.107 -14.062   1.086  1.00  0.00    -0.354 OA
HETATM   17  C   UNL     1      40.883 -14.337   0.419  1.00  0.00     0.210 C 
ENDBRANCH   9  16
ENDBRANCH   2   5
BRANCH   1  18
HETATM   18  C   UNL     1      39.900 -11.951   4.270  1.00  0.00     0.035 A 
HETATM   19  C   UNL     1      39.663 -10.895   3.385  1.00  0.00     0.039 A 
HETATM   20  C   UNL     1      38.907  -9.814   3.814  1.00  0.00    -0.022 A 
HETATM   21  C   UNL     1      38.488  -8.627   3.021  1.00  0.00     0.274 C 
HETATM   22  C   UNL     1      38.393  -9.758   5.110  1.00  0.00    -0.025 A 
HETATM   23  N   UNL     1      37.778  -7.714   4.016  1.00  0.00    -0.067 N 
HETATM   24  C   UNL     1      36.522  -7.112   3.494  1.00  0.00     0.270 C 
HETATM   25  H   UNL     1      38.441  -6.962   4.233  1.00  0.00     0.280 HD
HETATM   26  C   UNL     1      37.598  -8.514   5.304  1.00  0.00     0.273 C 
HETATM   27  C   UNL     1      38.616 -10.791   6.003  1.00  0.00     0.012 A 
HETATM   28  C   UNL     1      39.365 -11.893   5.572  1.00  0.00     0.030 A 
ENDBRANCH   1  18
TORSDOF 4
ENDMDL
MODEL 10
REMARK VINA RESULT:      -7.5      2.757      9.967
REMARK  4 active torsions:
REMARK  status: ('A' for Active; 'I' for Inactive)
REMARK    1  A    between atoms: C_9  and  N_10 
REMARK       I    between atoms: N_10  and  C_11 
REMARK    2  A    between atoms: C_11  and  C_12 
REMARK    3  A    between atoms: C_14  and  C_15 
REMARK    4  A    between atoms: C_22  and  O_23 
ROOT
HETATM    1  N   UNL     1      42.730 -11.903   6.938  1.00  0.00    -0.322 N 
HETATM    2  C   UNL     1      43.683 -10.984   7.362  1.00  0.00     0.265 C 
HETATM    3  O   UNL     1      44.875 -11.057   7.070  1.00  0.00    -0.267 OA
HETATM    4  H   UNL     1      41.768 -11.641   7.117  1.00  0.00     0.169 HD
ENDROOT
BRANCH   2   5
HETATM    5  C   UNL     1      43.137  -9.903   8.168  1.00  0.00     0.107 A 
HETATM    6  S   UNL     1      43.433  -9.862   9.856  1.00  0.00    -0.081 SA
HETATM    7  C   UNL     1      42.674  -8.338  10.030  1.00  0.00     0.018 A 
HETATM    8  C   UNL     1      42.152  -7.901   8.828  1.00  0.00     0.058 A 
HETATM    9  C   UNL     1      42.410  -8.805   7.753  1.00  0.00     0.092 A 
BRANCH   7  10
HETATM   10  C   UNL     1      42.679  -7.651  11.326  1.00  0.00    -0.019 A 
HETATM   11  C   UNL     1      43.226  -8.291  12.449  1.00  0.00     0.013 A 
HETATM   12  C   UNL     1      43.239  -7.658  13.694  1.00  0.00     0.001 A 
HETATM   13  C   UNL     1      42.713  -6.374  13.827  1.00  0.00     0.000 A 
HETATM   14  C   UNL     1      42.174  -5.725  12.718  1.00  0.00     0.001 A 
HETATM   15  C   UNL     1      42.156  -6.359  11.473  1.00  0.00     0.013 A 
ENDBRANCH   7  10
BRANCH   9  16
HETATM   16  O   UNL     1      42.034  -8.702   6.452  1.00  0.00    -0.354 OA
HETATM   17  C   UNL     1      41.369  -7.493   6.111  1.00  0.00     0.210 C 
ENDBRANCH   9  16
ENDBRANCH   2   5
BRANCH   1  18
HETATM   18  C   UNL     1      42.954 -13.111   6.251  1.00  0.00     0.035 A 
HETATM   19  C   UNL     1      43.561 -14.225   6.840  1.00  0.00     0.039 A 
HETATM   20  C   UNL     1      43.702 -15.386   6.095  1.00  0.00    -0.022 A 
HETATM   21  C   UNL     1      44.257 -16.691   6.545  1.00  0.00     0.274 C 
HETATM   22  C   UNL     1      43.262 -15.458   4.773  1.00  0.00    -0.025 A 
HETATM   23  N   UNL     1      44.274 -17.567   5.295  1.00  0.00    -0.067 N 
HETATM   24  C   UNL     1      43.798 -18.958   5.526  1.00  0.00     0.270 C 
HETATM   25  H   UNL     1      45.251 -17.599   4.985  1.00  0.00     0.280 HD
HETATM   26  C   UNL     1      43.502 -16.816   4.214  1.00  0.00     0.273 C 
HETATM   27  C   UNL     1      42.659 -14.367   4.170  1.00  0.00     0.012 A 
HETATM   28  C   UNL     1      42.499 -13.196   4.921  1.00  0.00     0.030 A 
ENDBRANCH   1  18
TORSDOF 4
ENDMDL
