MODEL 1
REMARK VINA RESULT:      -8.4      0.000      0.000
REMARK  3 active torsions:
REMARK  status: ('A' for Active; 'I' for Inactive)
REMARK    1  A    between atoms: C_4  and  C_5 
REMARK    2  A    between atoms: C_9  and  C_10 
REMARK       I    between atoms: C_10  and  N_11 
REMARK    3  A    between atoms: N_11  and  N_12 
ROOT
HETATM    1  C   UNL     1      44.653 -11.764   7.210  1.00  0.00     0.289 C 
HETATM    2  N   UNL     1      43.667 -12.730   7.321  1.00  0.00    -0.241 N 
HETATM    3  O   UNL     1      45.593 -11.828   6.421  1.00  0.00    -0.264 OA
HETATM    4  H   UNL     1      42.907 -12.627   7.994  1.00  0.00     0.192 HD
ENDROOT
BRANCH   2   5
HETATM    5  N   UNL     1      43.701 -13.840   6.522  1.00  0.00    -0.165 NA
HETATM    6  C   UNL     1      42.744 -13.974   5.663  1.00  0.00     0.157 A 
HETATM    7  C   UNL     1      41.552 -13.047   5.407  1.00  0.00     0.277 A 
HETATM    8  C   UNL     1      42.599 -15.079   4.725  1.00  0.00     0.028 A 
HETATM    9  O   UNL     1      41.342 -12.015   6.008  1.00  0.00    -0.266 OA
HETATM   10  N   UNL     1      40.832 -13.641   4.393  1.00  0.00    -0.321 N 
HETATM   11  C   UNL     1      41.439 -14.829   3.991  1.00  0.00     0.048 A 
HETATM   12  H   UNL     1      39.984 -13.248   4.011  1.00  0.00     0.169 HD
HETATM   13  C   UNL     1      41.015 -15.697   3.008  1.00  0.00     0.032 A 
HETATM   14  C   UNL     1      41.796 -16.838   2.778  1.00  0.00     0.021 A 
HETATM   15  C   UNL     1      42.967 -17.078   3.529  1.00  0.00     0.012 A 
HETATM   16 BR   UNL     1      43.986 -18.633   3.180  1.00  0.00    -0.051 Br
HETATM   17  C   UNL     1      43.387 -16.193   4.521  1.00  0.00     0.035 A 
ENDBRANCH   2   5
BRANCH   1  18
HETATM   18  C   UNL     1      44.512 -10.640   8.101  1.00  0.00     0.121 A 
HETATM   19  N   UNL     1      45.275  -9.515   7.935  1.00  0.00    -0.272 N 
HETATM   20  N   UNL     1      45.039  -8.548   8.835  1.00  0.00    -0.172 NA
HETATM   21  H   UNL     1      45.977  -9.363   7.215  1.00  0.00     0.189 HD
HETATM   22  C   UNL     1      44.083  -9.068   9.615  1.00  0.00     0.113 A 
HETATM   23  C   UNL     1      43.719 -10.371   9.200  1.00  0.00     0.073 A 
BRANCH  22  24
HETATM   24  C   UNL     1      43.498  -8.334  10.772  1.00  0.00     0.105 A 
HETATM   25  O   UNL     1      42.754  -7.189  10.674  1.00  0.00    -0.320 OA
HETATM   26  C   UNL     1      42.403  -6.827  11.936  1.00  0.00     0.142 A 
HETATM   27  C   UNL     1      42.907  -7.719  12.852  1.00  0.00     0.027 A 
HETATM   28  C   UNL     1      43.613  -8.690  12.104  1.00  0.00     0.041 A 
ENDBRANCH  22  24
ENDBRANCH   1  18
TORSDOF 3
ENDMDL
MODEL 2
REMARK VINA RESULT:      -8.1      7.001      9.548
REMARK  3 active torsions:
REMARK  status: ('A' for Active; 'I' for Inactive)
REMARK    1  A    between atoms: C_4  and  C_5 
REMARK    2  A    between atoms: C_9  and  C_10 
REMARK       I    between atoms: C_10  and  N_11 
REMARK    3  A    between atoms: N_11  and  N_12 
ROOT
HETATM    1  C   UNL     1      42.748 -14.020   2.288  1.00  0.00     0.289 C 
HETATM    2  N   UNL     1      41.873 -14.149   1.222  1.00  0.00    -0.241 N 
HETATM    3  O   UNL     1      43.255 -12.957   2.636  1.00  0.00    -0.264 OA
HETATM    4  H   UNL     1      41.479 -15.057   0.975  1.00  0.00     0.192 HD
ENDROOT
BRANCH   2   5
HETATM    5  N   UNL     1      41.524 -13.049   0.484  1.00  0.00    -0.165 NA
HETATM    6  C   UNL     1      40.488 -13.162  -0.281  1.00  0.00     0.157 A 
HETATM    7  C   UNL     1      39.576 -14.376  -0.484  1.00  0.00     0.277 A 
HETATM    8  C   UNL     1      39.955 -12.114  -1.141  1.00  0.00     0.028 A 
HETATM    9  O   UNL     1      39.715 -15.442   0.076  1.00  0.00    -0.266 OA
HETATM   10  N   UNL     1      38.626 -13.976  -1.398  1.00  0.00    -0.321 N 
HETATM   11  C   UNL     1      38.843 -12.655  -1.786  1.00  0.00     0.048 A 
HETATM   12  H   UNL     1      37.884 -14.576  -1.726  1.00  0.00     0.169 HD
HETATM   13  C   UNL     1      38.104 -11.910  -2.680  1.00  0.00     0.032 A 
HETATM   14  C   UNL     1      38.517 -10.591  -2.913  1.00  0.00     0.021 A 
HETATM   15  C   UNL     1      39.645 -10.058  -2.253  1.00  0.00     0.012 A 
HETATM   16 BR   UNL     1      40.161  -8.272  -2.603  1.00  0.00    -0.051 Br
HETATM   17  C   UNL     1      40.385 -10.820  -1.350  1.00  0.00     0.035 A 
ENDBRANCH   2   5
BRANCH   1  18
HETATM   18  C   UNL     1      43.040 -15.244   2.990  1.00  0.00     0.121 A 
HETATM   19  N   UNL     1      43.213 -15.247   4.349  1.00  0.00    -0.272 N 
HETATM   20  N   UNL     1      43.479 -16.455   4.871  1.00  0.00    -0.172 NA
HETATM   21  H   UNL     1      43.159 -14.440   4.966  1.00  0.00     0.189 HD
HETATM   22  C   UNL     1      43.477 -17.266   3.807  1.00  0.00     0.113 A 
HETATM   23  C   UNL     1      43.208 -16.562   2.610  1.00  0.00     0.073 A 
BRANCH  22  24
HETATM   24  C   UNL     1      43.731 -18.731   3.908  1.00  0.00     0.105 A 
HETATM   25  O   UNL     1      44.112 -19.380   5.053  1.00  0.00    -0.320 OA
HETATM   26  C   UNL     1      44.244 -20.696   4.745  1.00  0.00     0.142 A 
HETATM   27  C   UNL     1      43.954 -20.914   3.420  1.00  0.00     0.027 A 
HETATM   28  C   UNL     1      43.624 -19.649   2.879  1.00  0.00     0.041 A 
ENDBRANCH  22  24
ENDBRANCH   1  18
TORSDOF 3
ENDMDL
MODEL 3
REMARK VINA RESULT:      -8.1      2.567      3.587
REMARK  3 active torsions:
REMARK  status: ('A' for Active; 'I' for Inactive)
REMARK    1  A    between atoms: C_4  and  C_5 
REMARK    2  A    between atoms: C_9  and  C_10 
REMARK       I    between atoms: C_10  and  N_11 
REMARK    3  A    between atoms: N_11  and  N_12 
ROOT
HETATM    1  C   UNL     1      42.979 -12.954   5.009  1.00  0.00     0.289 C 
HETATM    2  N   UNL     1      42.830 -14.177   5.641  1.00  0.00    -0.241 N 
HETATM    3  O   UNL     1      43.301 -12.824   3.830  1.00  0.00    -0.264 OA
HETATM    4  H   UNL     1      42.559 -14.229   6.623  1.00  0.00     0.192 HD
ENDROOT
BRANCH   2   5
HETATM    5  N   UNL     1      43.044 -15.338   4.948  1.00  0.00    -0.165 NA
HETATM    6  C   UNL     1      43.212 -16.414   5.646  1.00  0.00     0.157 A 
HETATM    7  C   UNL     1      43.205 -16.577   7.168  1.00  0.00     0.277 A 
HETATM    8  C   UNL     1      43.451 -17.744   5.103  1.00  0.00     0.028 A 
HETATM    9  O   UNL     1      43.031 -15.673   7.957  1.00  0.00    -0.266 OA
HETATM   10  N   UNL     1      43.428 -17.918   7.398  1.00  0.00    -0.321 N 
HETATM   11  C   UNL     1      43.574 -18.604   6.194  1.00  0.00     0.048 A 
HETATM   12  H   UNL     1      43.475 -18.322   8.322  1.00  0.00     0.169 HD
HETATM   13  C   UNL     1      43.808 -19.951   6.018  1.00  0.00     0.032 A 
HETATM   14  C   UNL     1      43.918 -20.418   4.702  1.00  0.00     0.021 A 
HETATM   15  C   UNL     1      43.792 -19.535   3.607  1.00  0.00     0.012 A 
HETATM   16 BR   UNL     1      43.949 -20.216   1.849  1.00  0.00    -0.051 Br
HETATM   17  C   UNL     1      43.555 -18.174   3.796  1.00  0.00     0.035 A 
ENDBRANCH   2   5
BRANCH   1  18
HETATM   18  C   UNL     1      42.726 -11.802   5.837  1.00  0.00     0.121 A 
HETATM   19  N   UNL     1      41.500 -11.190   5.829  1.00  0.00    -0.272 N 
HETATM   20  N   UNL     1      41.406 -10.131   6.648  1.00  0.00    -0.172 NA
HETATM   21  H   UNL     1      40.693 -11.463   5.275  1.00  0.00     0.189 HD
HETATM   22  C   UNL     1      42.619 -10.055   7.209  1.00  0.00     0.113 A 
HETATM   23  C   UNL     1      43.480 -11.074   6.737  1.00  0.00     0.073 A 
BRANCH  22  24
HETATM   24  C   UNL     1      42.983  -9.009   8.206  1.00  0.00     0.105 A 
HETATM   25  O   UNL     1      43.324  -7.720   7.895  1.00  0.00    -0.320 OA
HETATM   26  C   UNL     1      43.586  -7.079   9.064  1.00  0.00     0.142 A 
HETATM   27  C   UNL     1      43.421  -7.932  10.129  1.00  0.00     0.027 A 
HETATM   28  C   UNL     1      43.032  -9.175   9.578  1.00  0.00     0.041 A 
ENDBRANCH  22  24
ENDBRANCH   1  18
TORSDOF 3
ENDMDL
MODEL 4
REMARK VINA RESULT:      -7.9      5.846      9.435
REMARK  3 active torsions:
REMARK  status: ('A' for Active; 'I' for Inactive)
REMARK    1  A    between atoms: C_4  and  C_5 
REMARK    2  A    between atoms: C_9  and  C_10 
REMARK       I    between atoms: C_10  and  N_11 
REMARK    3  A    between atoms: N_11  and  N_12 
ROOT
HETATM    1  C   UNL     1      40.601 -14.753   0.442  1.00  0.00     0.289 C 
HETATM    2  N   UNL     1      41.934 -14.813   0.814  1.00  0.00    -0.241 N 
HETATM    3  O   UNL     1      39.752 -15.570   0.792  1.00  0.00    -0.264 OA
HETATM    4  H   UNL     1      42.598 -14.107   0.496  1.00  0.00     0.192 HD
ENDROOT
BRANCH   2   5
HETATM    5  N   UNL     1      42.376 -15.827   1.620  1.00  0.00    -0.165 NA
HETATM    6  C   UNL     1      42.652 -15.523   2.846  1.00  0.00     0.157 A 
HETATM    7  C   UNL     1      42.552 -14.162   3.539  1.00  0.00     0.277 A 
HETATM    8  C   UNL     1      43.133 -16.453   3.859  1.00  0.00     0.028 A 
HETATM    9  O   UNL     1      42.182 -13.141   3.001  1.00  0.00    -0.266 OA
HETATM   10  N   UNL     1      42.959 -14.377   4.838  1.00  0.00    -0.321 N 
HETATM   11  C   UNL     1      43.301 -15.715   5.030  1.00  0.00     0.048 A 
HETATM   12  H   UNL     1      42.996 -13.649   5.536  1.00  0.00     0.169 HD
HETATM   13  C   UNL     1      43.751 -16.308   6.190  1.00  0.00     0.032 A 
HETATM   14  C   UNL     1      44.032 -17.680   6.142  1.00  0.00     0.021 A 
HETATM   15  C   UNL     1      43.858 -18.414   4.949  1.00  0.00     0.012 A 
HETATM   16 BR   UNL     1      44.253 -20.264   4.938  1.00  0.00    -0.051 Br
HETATM   17  C   UNL     1      43.402 -17.804   3.782  1.00  0.00     0.035 A 
ENDBRANCH   2   5
BRANCH   1  18
HETATM   18  C   UNL     1      40.252 -13.641  -0.406  1.00  0.00     0.121 A 
HETATM   19  N   UNL     1      41.215 -12.778  -0.859  1.00  0.00    -0.272 N 
HETATM   20  N   UNL     1      40.748 -11.790  -1.639  1.00  0.00    -0.172 NA
HETATM   21  H   UNL     1      42.210 -12.824  -0.659  1.00  0.00     0.189 HD
HETATM   22  C   UNL     1      39.431 -12.023  -1.692  1.00  0.00     0.113 A 
HETATM   23  C   UNL     1      39.070 -13.166  -0.941  1.00  0.00     0.073 A 
BRANCH  22  24
HETATM   24  C   UNL     1      38.489 -11.162  -2.462  1.00  0.00     0.105 A 
HETATM   25  O   UNL     1      38.867 -10.216  -3.377  1.00  0.00    -0.320 OA
HETATM   26  C   UNL     1      37.732  -9.646  -3.859  1.00  0.00     0.142 A 
HETATM   27  C   UNL     1      36.623 -10.208  -3.273  1.00  0.00     0.027 A 
HETATM   28  C   UNL     1      37.110 -11.184  -2.372  1.00  0.00     0.041 A 
ENDBRANCH  22  24
ENDBRANCH   1  18
TORSDOF 3
ENDMDL
MODEL 5
REMARK VINA RESULT:      -7.9      3.622      9.311
REMARK  3 active torsions:
REMARK  status: ('A' for Active; 'I' for Inactive)
REMARK    1  A    between atoms: C_4  and  C_5 
REMARK    2  A    between atoms: C_9  and  C_10 
REMARK       I    between atoms: C_10  and  N_11 
REMARK    3  A    between atoms: N_11  and  N_12 
ROOT
HETATM    1  C   UNL     1      41.160 -13.230   5.516  1.00  0.00     0.289 C 
HETATM    2  N   UNL     1      42.243 -12.367   5.505  1.00  0.00    -0.241 N 
HETATM    3  O   UNL     1      40.070 -12.961   6.016  1.00  0.00    -0.264 OA
HETATM    4  H   UNL     1      43.126 -12.641   5.075  1.00  0.00     0.192 HD
ENDROOT
BRANCH   2   5
HETATM    5  N   UNL     1      42.137 -11.127   6.076  1.00  0.00    -0.165 NA
HETATM    6  C   UNL     1      43.119 -10.741   6.823  1.00  0.00     0.157 A 
HETATM    7  C   UNL     1      44.411 -11.488   7.167  1.00  0.00     0.277 A 
HETATM    8  C   UNL     1      43.200  -9.463   7.518  1.00  0.00     0.028 A 
HETATM    9  O   UNL     1      44.694 -12.595   6.762  1.00  0.00    -0.266 OA
HETATM   10  N   UNL     1      45.119 -10.643   7.994  1.00  0.00    -0.321 N 
HETATM   11  C   UNL     1      44.415  -9.458   8.203  1.00  0.00     0.048 A 
HETATM   12  H   UNL     1      46.022 -10.873   8.382  1.00  0.00     0.169 HD
HETATM   13  C   UNL     1      44.799  -8.377   8.967  1.00  0.00     0.032 A 
HETATM   14  C   UNL     1      43.920  -7.288   9.028  1.00  0.00     0.021 A 
HETATM   15  C   UNL     1      42.693  -7.308   8.330  1.00  0.00     0.012 A 
HETATM   16 BR   UNL     1      41.540  -5.812   8.445  1.00  0.00    -0.051 Br
HETATM   17  C   UNL     1      42.314  -8.406   7.559  1.00  0.00     0.035 A 
ENDBRANCH   2   5
BRANCH   1  18
HETATM   18  C   UNL     1      41.388 -14.505   4.884  1.00  0.00     0.121 A 
HETATM   19  N   UNL     1      40.371 -15.159   4.240  1.00  0.00    -0.272 N 
HETATM   20  N   UNL     1      40.725 -16.335   3.698  1.00  0.00    -0.172 NA
HETATM   21  H   UNL     1      39.411 -14.838   4.145  1.00  0.00     0.189 HD
HETATM   22  C   UNL     1      42.024 -16.446   4.004  1.00  0.00     0.113 A 
HETATM   23  C   UNL     1      42.486 -15.332   4.743  1.00  0.00     0.073 A 
BRANCH  22  24
HETATM   24  C   UNL     1      42.851 -17.617   3.598  1.00  0.00     0.105 A 
HETATM   25  O   UNL     1      43.765 -18.243   4.402  1.00  0.00    -0.320 OA
HETATM   26  C   UNL     1      44.311 -19.256   3.680  1.00  0.00     0.142 A 
HETATM   27  C   UNL     1      43.764 -19.299   2.420  1.00  0.00     0.027 A 
HETATM   28  C   UNL     1      42.824 -18.244   2.365  1.00  0.00     0.041 A 
ENDBRANCH  22  24
ENDBRANCH   1  18
TORSDOF 3
ENDMDL
MODEL 6
REMARK VINA RESULT:      -7.7      2.142      2.355
REMARK  3 active torsions:
REMARK  status: ('A' for Active; 'I' for Inactive)
REMARK    1  A    between atoms: C_4  and  C_5 
REMARK    2  A    between atoms: C_9  and  C_10 
REMARK       I    between atoms: C_10  and  N_11 
REMARK    3  A    between atoms: N_11  and  N_12 
ROOT
HETATM    1  C   UNL     1      43.626 -12.419   6.740  1.00  0.00     0.289 C 
HETATM    2  N   UNL     1      42.620 -13.336   6.486  1.00  0.00    -0.241 N 
HETATM    3  O   UNL     1      44.825 -12.689   6.716  1.00  0.00    -0.264 OA
HETATM    4  H   UNL     1      41.639 -13.058   6.519  1.00  0.00     0.192 HD
ENDROOT
BRANCH   2   5
HETATM    5  N   UNL     1      42.935 -14.633   6.185  1.00  0.00    -0.165 NA
HETATM    6  C   UNL     1      42.944 -14.958   4.934  1.00  0.00     0.157 A 
HETATM    7  C   UNL     1      42.648 -14.080   3.715  1.00  0.00     0.277 A 
HETATM    8  C   UNL     1      43.252 -16.281   4.407  1.00  0.00     0.028 A 
HETATM    9  O   UNL     1      42.351 -12.905   3.769  1.00  0.00    -0.266 OA
HETATM   10  N   UNL     1      42.795 -14.904   2.620  1.00  0.00    -0.321 N 
HETATM   11  C   UNL     1      43.147 -16.192   3.019  1.00  0.00     0.048 A 
HETATM   12  H   UNL     1      42.660 -14.593   1.669  1.00  0.00     0.169 HD
HETATM   13  C   UNL     1      43.380 -17.286   2.213  1.00  0.00     0.032 A 
HETATM   14  C   UNL     1      43.725 -18.487   2.846  1.00  0.00     0.021 A 
HETATM   15  C   UNL     1      43.827 -18.563   4.252  1.00  0.00     0.012 A 
HETATM   16 BR   UNL     1      44.296 -20.209   5.057  1.00  0.00    -0.051 Br
HETATM   17  C   UNL     1      43.590 -17.450   5.057  1.00  0.00     0.035 A 
ENDBRANCH   2   5
BRANCH   1  18
HETATM   18  C   UNL     1      43.175 -11.084   7.044  1.00  0.00     0.121 A 
HETATM   19  N   UNL     1      42.415 -10.381   6.146  1.00  0.00    -0.272 N 
HETATM   20  N   UNL     1      42.067  -9.153   6.560  1.00  0.00    -0.172 NA
HETATM   21  H   UNL     1      42.110 -10.702   5.231  1.00  0.00     0.189 HD
HETATM   22  C   UNL     1      42.622  -9.057   7.774  1.00  0.00     0.113 A 
HETATM   23  C   UNL     1      43.324 -10.235   8.123  1.00  0.00     0.073 A 
BRANCH  22  24
HETATM   24  C   UNL     1      42.495  -7.842   8.627  1.00  0.00     0.105 A 
HETATM   25  O   UNL     1      41.307  -7.273   9.002  1.00  0.00    -0.320 OA
HETATM   26  C   UNL     1      41.603  -6.191   9.769  1.00  0.00     0.142 A 
HETATM   27  C   UNL     1      42.964  -6.049   9.898  1.00  0.00     0.027 A 
HETATM   28  C   UNL     1      43.540  -7.111   9.162  1.00  0.00     0.041 A 
ENDBRANCH  22  24
ENDBRANCH   1  18
TORSDOF 3
ENDMDL
MODEL 7
REMARK VINA RESULT:      -7.7     18.563     19.758
REMARK  3 active torsions:
REMARK  status: ('A' for Active; 'I' for Inactive)
REMARK    1  A    between atoms: C_4  and  C_5 
REMARK    2  A    between atoms: C_9  and  C_10 
REMARK       I    between atoms: C_10  and  N_11 
REMARK    3  A    between atoms: N_11  and  N_12 
ROOT
HETATM    1  C   UNL     1      41.363 -31.179   2.315  1.00  0.00     0.289 C 
HETATM    2  N   UNL     1      42.698 -31.119   1.951  1.00  0.00    -0.241 N 
HETATM    3  O   UNL     1      40.429 -31.076   1.524  1.00  0.00    -0.264 OA
HETATM    4  H   UNL     1      43.436 -31.211   2.649  1.00  0.00     0.192 HD
ENDROOT
BRANCH   2   5
HETATM    5  N   UNL     1      43.043 -30.935   0.639  1.00  0.00    -0.165 NA
HETATM    6  C   UNL     1      43.955 -30.053   0.392  1.00  0.00     0.157 A 
HETATM    7  C   UNL     1      44.720 -29.166   1.377  1.00  0.00     0.277 A 
HETATM    8  C   UNL     1      44.461 -29.710  -0.931  1.00  0.00     0.028 A 
HETATM    9  O   UNL     1      44.562 -29.177   2.579  1.00  0.00    -0.266 OA
HETATM   10  N   UNL     1      45.574 -28.407   0.607  1.00  0.00    -0.321 N 
HETATM   11  C   UNL     1      45.426 -28.720  -0.743  1.00  0.00     0.048 A 
HETATM   12  H   UNL     1      46.211 -27.724   0.991  1.00  0.00     0.169 HD
HETATM   13  C   UNL     1      46.105 -28.173  -1.811  1.00  0.00     0.032 A 
HETATM   14  C   UNL     1      45.784 -28.651  -3.089  1.00  0.00     0.021 A 
HETATM   15  C   UNL     1      44.805 -29.652  -3.263  1.00  0.00     0.012 A 
HETATM   16 BR   UNL     1      44.408 -30.264  -5.009  1.00  0.00    -0.051 Br
HETATM   17  C   UNL     1      44.125 -30.199  -2.176  1.00  0.00     0.035 A 
ENDBRANCH   2   5
BRANCH   1  18
HETATM   18  C   UNL     1      41.121 -31.377   3.722  1.00  0.00     0.121 A 
HETATM   19  N   UNL     1      39.845 -31.520   4.200  1.00  0.00    -0.272 N 
HETATM   20  N   UNL     1      39.769 -31.697   5.528  1.00  0.00    -0.172 NA
HETATM   21  H   UNL     1      38.990 -31.502   3.651  1.00  0.00     0.189 HD
HETATM   22  C   UNL     1      41.046 -31.668   5.926  1.00  0.00     0.113 A 
HETATM   23  C   UNL     1      41.930 -31.471   4.838  1.00  0.00     0.073 A 
BRANCH  22  24
HETATM   24  C   UNL     1      41.452 -31.827   7.351  1.00  0.00     0.105 A 
HETATM   25  O   UNL     1      40.595 -31.770   8.417  1.00  0.00    -0.320 OA
HETATM   26  C   UNL     1      41.335 -31.959   9.540  1.00  0.00     0.142 A 
HETATM   27  C   UNL     1      42.659 -32.139   9.221  1.00  0.00     0.027 A 
HETATM   28  C   UNL     1      42.736 -32.054   7.811  1.00  0.00     0.041 A 
ENDBRANCH  22  24
ENDBRANCH   1  18
TORSDOF 3
ENDMDL
MODEL 8
REMARK VINA RESULT:      -7.6      6.510     10.827
REMARK  3 active torsions:
REMARK  status: ('A' for Active; 'I' for Inactive)
REMARK    1  A    between atoms: C_4  and  C_5 
REMARK    2  A    between atoms: C_9  and  C_10 
REMARK       I    between atoms: C_10  and  N_11 
REMARK    3  A    between atoms: N_11  and  N_12 
ROOT
HETATM    1  C   UNL     1      39.070 -14.072  -1.275  1.00  0.00     0.289 C 
HETATM    2  N   UNL     1      39.574 -13.847  -0.005  1.00  0.00    -0.241 N 
HETATM    3  O   UNL     1      39.311 -15.075  -1.943  1.00  0.00    -0.264 OA
HETATM    4  H   UNL     1      39.342 -12.996   0.507  1.00  0.00     0.192 HD
ENDROOT
BRANCH   2   5
HETATM    5  N   UNL     1      40.395 -14.773   0.581  1.00  0.00    -0.165 NA
HETATM    6  C   UNL     1      40.468 -14.757   1.871  1.00  0.00     0.157 A 
HETATM    7  C   UNL     1      39.753 -13.831   2.858  1.00  0.00     0.277 A 
HETATM    8  C   UNL     1      41.280 -15.654   2.682  1.00  0.00     0.028 A 
HETATM    9  O   UNL     1      38.985 -12.948   2.541  1.00  0.00    -0.266 OA
HETATM   10  N   UNL     1      40.172 -14.228   4.110  1.00  0.00    -0.321 N 
HETATM   11  C   UNL     1      41.066 -15.293   4.012  1.00  0.00     0.048 A 
HETATM   12  H   UNL     1      39.860 -13.791   4.965  1.00  0.00     0.169 HD
HETATM   13  C   UNL     1      41.696 -15.957   5.043  1.00  0.00     0.032 A 
HETATM   14  C   UNL     1      42.558 -17.006   4.699  1.00  0.00     0.021 A 
HETATM   15  C   UNL     1      42.766 -17.360   3.348  1.00  0.00     0.012 A 
HETATM   16 BR   UNL     1      43.942 -18.784   2.936  1.00  0.00    -0.051 Br
HETATM   17  C   UNL     1      42.124 -16.681   2.313  1.00  0.00     0.035 A 
ENDBRANCH   2   5
BRANCH   1  18
HETATM   18  C   UNL     1      38.217 -13.030  -1.788  1.00  0.00     0.121 A 
HETATM   19  N   UNL     1      38.444 -11.718  -1.465  1.00  0.00    -0.272 N 
HETATM   20  N   UNL     1      37.573 -10.856  -2.013  1.00  0.00    -0.172 NA
HETATM   21  H   UNL     1      39.186 -11.363  -0.869  1.00  0.00     0.189 HD
HETATM   22  C   UNL     1      36.750 -11.641  -2.719  1.00  0.00     0.113 A 
HETATM   23  C   UNL     1      37.108 -13.006  -2.612  1.00  0.00     0.073 A 
BRANCH  22  24
HETATM   24  C   UNL     1      35.605 -11.107  -3.510  1.00  0.00     0.105 A 
HETATM   25  O   UNL     1      35.394  -9.781  -3.779  1.00  0.00    -0.320 OA
HETATM   26  C   UNL     1      34.258  -9.696  -4.518  1.00  0.00     0.142 A 
HETATM   27  C   UNL     1      33.728 -10.946  -4.735  1.00  0.00     0.027 A 
HETATM   28  C   UNL     1      34.595 -11.856  -4.085  1.00  0.00     0.041 A 
ENDBRANCH  22  24
ENDBRANCH   1  18
TORSDOF 3
ENDMDL
MODEL 9
REMARK VINA RESULT:      -7.6      4.306      6.048
REMARK  3 active torsions:
REMARK  status: ('A' for Active; 'I' for Inactive)
REMARK    1  A    between atoms: C_4  and  C_5 
REMARK    2  A    between atoms: C_9  and  C_10 
REMARK       I    between atoms: C_10  and  N_11 
REMARK    3  A    between atoms: N_11  and  N_12 
ROOT
HETATM    1  C   UNL     1      42.078 -14.028   3.673  1.00  0.00     0.289 C 
HETATM    2  N   UNL     1      41.927 -13.074   2.680  1.00  0.00    -0.241 N 
HETATM    3  O   UNL     1      41.631 -15.171   3.602  1.00  0.00    -0.264 OA
HETATM    4  H   UNL     1      42.320 -12.139   2.790  1.00  0.00     0.192 HD
ENDROOT
BRANCH   2   5
HETATM    5  N   UNL     1      41.245 -13.379   1.534  1.00  0.00    -0.165 NA
HETATM    6  C   UNL     1      41.091 -12.427   0.673  1.00  0.00     0.157 A 
HETATM    7  C   UNL     1      41.573 -10.976   0.755  1.00  0.00     0.277 A 
HETATM    8  C   UNL     1      40.399 -12.546  -0.603  1.00  0.00     0.028 A 
HETATM    9  O   UNL     1      42.194 -10.509   1.686  1.00  0.00    -0.266 OA
HETATM   10  N   UNL     1      41.153 -10.379  -0.414  1.00  0.00    -0.321 N 
HETATM   11  C   UNL     1      40.465 -11.293  -1.211  1.00  0.00     0.048 A 
HETATM   12  H   UNL     1      41.331  -9.411  -0.638  1.00  0.00     0.169 HD
HETATM   13  C   UNL     1      39.898 -11.067  -2.447  1.00  0.00     0.032 A 
HETATM   14  C   UNL     1      39.253 -12.147  -3.064  1.00  0.00     0.021 A 
HETATM   15  C   UNL     1      39.193 -13.410  -2.436  1.00  0.00     0.012 A 
HETATM   16 BR   UNL     1      38.310 -14.836  -3.312  1.00  0.00    -0.051 Br
HETATM   17  C   UNL     1      39.771 -13.627  -1.186  1.00  0.00     0.035 A 
ENDBRANCH   2   5
BRANCH   1  18
HETATM   18  C   UNL     1      42.816 -13.594   4.832  1.00  0.00     0.121 A 
HETATM   19  N   UNL     1      43.068 -14.458   5.865  1.00  0.00    -0.272 N 
HETATM   20  N   UNL     1      43.764 -13.919   6.879  1.00  0.00    -0.172 NA
HETATM   21  H   UNL     1      42.782 -15.431   5.922  1.00  0.00     0.189 HD
HETATM   22  C   UNL     1      43.971 -12.656   6.486  1.00  0.00     0.113 A 
HETATM   23  C   UNL     1      43.400 -12.402   5.216  1.00  0.00     0.073 A 
BRANCH  22  24
HETATM   24  C   UNL     1      44.717 -11.665   7.312  1.00  0.00     0.105 A 
HETATM   25  O   UNL     1      44.413 -11.343   8.607  1.00  0.00    -0.320 OA
HETATM   26  C   UNL     1      45.313 -10.410   9.012  1.00  0.00     0.142 A 
HETATM   27  C   UNL     1      46.198 -10.122   8.001  1.00  0.00     0.027 A 
HETATM   28  C   UNL     1      45.814 -10.929   6.904  1.00  0.00     0.041 A 
ENDBRANCH  22  24
ENDBRANCH   1  18
TORSDOF 3
ENDMDL
MODEL 10
REMARK VINA RESULT:      -7.4      6.247      9.208
REMARK  3 active torsions:
REMARK  status: ('A' for Active; 'I' for Inactive)
REMARK    1  A    between atoms: C_4  and  C_5 
REMARK    2  A    between atoms: C_9  and  C_10 
REMARK       I    between atoms: C_10  and  N_11 
REMARK    3  A    between atoms: N_11  and  N_12 
ROOT
HETATM    1  C   UNL     1      39.771 -13.981   0.014  1.00  0.00     0.289 C 
HETATM    2  N   UNL     1      39.830 -14.561   1.271  1.00  0.00    -0.241 N 
HETATM    3  O   UNL     1      40.377 -14.404  -0.967  1.00  0.00    -0.264 OA
HETATM    4  H   UNL     1      39.306 -14.169   2.053  1.00  0.00     0.192 HD
ENDROOT
BRANCH   2   5
HETATM    5  N   UNL     1      40.598 -15.675   1.476  1.00  0.00    -0.165 NA
HETATM    6  C   UNL     1      41.401 -15.654   2.489  1.00  0.00     0.157 A 
HETATM    7  C   UNL     1      41.620 -14.537   3.514  1.00  0.00     0.277 A 
HETATM    8  C   UNL     1      42.298 -16.734   2.879  1.00  0.00     0.028 A 
HETATM    9  O   UNL     1      41.038 -13.474   3.507  1.00  0.00    -0.266 OA
HETATM   10  N   UNL     1      42.576 -15.015   4.383  1.00  0.00    -0.321 N 
HETATM   11  C   UNL     1      42.977 -16.298   4.016  1.00  0.00     0.048 A 
HETATM   12  H   UNL     1      42.923 -14.487   5.171  1.00  0.00     0.169 HD
HETATM   13  C   UNL     1      43.911 -17.097   4.641  1.00  0.00     0.032 A 
HETATM   14  C   UNL     1      44.148 -18.361   4.086  1.00  0.00     0.021 A 
HETATM   15  C   UNL     1      43.454 -18.789   2.934  1.00  0.00     0.012 A 
HETATM   16 BR   UNL     1      43.812 -20.505   2.223  1.00  0.00    -0.051 Br
HETATM   17  C   UNL     1      42.511 -17.973   2.310  1.00  0.00     0.035 A 
ENDBRANCH   2   5
BRANCH   1  18
HETATM   18  C   UNL     1      38.930 -12.815  -0.082  1.00  0.00     0.121 A 
HETATM   19  N   UNL     1      38.451 -12.203   1.046  1.00  0.00    -0.272 N 
HETATM   20  N   UNL     1      37.682 -11.129   0.808  1.00  0.00    -0.172 NA
HETATM   21  H   UNL     1      38.624 -12.487   2.007  1.00  0.00     0.189 HD
HETATM   22  C   UNL     1      37.663 -11.042  -0.528  1.00  0.00     0.113 A 
HETATM   23  C   UNL     1      38.427 -12.070  -1.131  1.00  0.00     0.073 A 
BRANCH  22  24
HETATM   24  C   UNL     1      36.918  -9.978  -1.257  1.00  0.00     0.105 A 
HETATM   25  O   UNL     1      36.015 -10.205  -2.261  1.00  0.00    -0.320 OA
HETATM   26  C   UNL     1      35.553  -8.996  -2.670  1.00  0.00     0.142 A 
HETATM   27  C   UNL     1      36.141  -7.985  -1.948  1.00  0.00     0.027 A 
HETATM   28  C   UNL     1      37.021  -8.616  -1.037  1.00  0.00     0.041 A 
ENDBRANCH  22  24
ENDBRANCH   1  18
TORSDOF 3
ENDMDL
