MODEL 1
REMARK VINA RESULT:      -7.1      0.000      0.000
REMARK  5 active torsions:
REMARK  status: ('A' for Active; 'I' for Inactive)
REMARK    1  A    between atoms: C_2  and  C_3 
REMARK    2  A    between atoms: C_3  and  N_4 
REMARK    3  A    between atoms: C_3  and  C_19 
REMARK       I    between atoms: N_4  and  C_5 
REMARK    4  A    between atoms: C_5  and  C_6 
REMARK    5  A    between atoms: C_7  and  C_8 
ROOT
HETATM    1  N   UNL     1      41.593 -16.001   1.971  1.00  0.00    -0.345 N 
HETATM    2  C   UNL     1      42.938 -16.258   1.936  1.00  0.00     0.255 C 
HETATM    3  O   UNL     1      43.734 -15.589   1.288  1.00  0.00    -0.268 OA
HETATM    4  H   UNL     1      40.971 -16.602   2.503  1.00  0.00     0.163 HD
ENDROOT
BRANCH   2   5
HETATM    5  C   UNL     1      43.330 -17.366   2.784  1.00  0.00     0.075 A 
HETATM    6  C   UNL     1      43.789 -17.416   4.140  1.00  0.00     0.076 A 
HETATM    7  N   UNL     1      44.056 -18.687   4.496  1.00  0.00    -0.178 NA
HETATM    8  N   UNL     1      43.738 -19.423   3.429  1.00  0.00    -0.288 N 
HETATM    9  H   UNL     1      43.844 -20.431   3.493  1.00  0.00     0.188 HD
HETATM   10  C   UNL     1      43.327 -18.687   2.369  1.00  0.00     0.128 A 
BRANCH   6  11
HETATM   11  C   UNL     1      44.136 -16.306   5.122  1.00  0.00     0.040 C 
HETATM   12  C   UNL     1      43.205 -15.085   5.116  1.00  0.00     0.011 C 
HETATM   13  C   UNL     1      41.827 -15.397   5.694  1.00  0.00     0.001 C 
HETATM   14  C   UNL     1      41.936 -15.936   7.119  1.00  0.00     0.000 C 
HETATM   15  C   UNL     1      42.895 -17.119   7.210  1.00  0.00     0.001 C 
HETATM   16  C   UNL     1      44.255 -16.796   6.587  1.00  0.00     0.011 C 
ENDBRANCH   6  11
ENDBRANCH   2   5
BRANCH   1  17
HETATM   17  C   UNL     1      40.977 -14.913   1.244  1.00  0.00     0.154 C 
BRANCH  17  18
HETATM   18  C   UNL     1      39.807 -15.371   0.358  1.00  0.00     0.028 C 
HETATM   19  C   UNL     1      39.602 -14.544  -0.908  1.00  0.00     0.007 C 
ENDBRANCH  17  18
BRANCH  17  20
HETATM   20  C   UNL     1      40.552 -13.894   2.263  1.00  0.00     0.127 A 
HETATM   21  N   UNL     1      41.328 -13.019   2.876  1.00  0.00    -0.237 NA
HETATM   22  C   UNL     1      40.506 -12.308   3.716  1.00  0.00     0.048 A 
HETATM   23  C   UNL     1      41.047 -11.241   4.585  1.00  0.00     0.072 C 
HETATM   24  C   UNL     1      39.207 -12.749   3.596  1.00  0.00     0.116 A 
HETATM   25  N   UNL     1      39.247 -13.751   2.667  1.00  0.00    -0.351 N 
HETATM   26  H   UNL     1      38.462 -14.295   2.336  1.00  0.00     0.166 HD
ENDBRANCH  17  20
ENDBRANCH   1  17
TORSDOF 5
ENDMDL
MODEL 2
REMARK VINA RESULT:      -6.9      3.324      5.611
REMARK  5 active torsions:
REMARK  status: ('A' for Active; 'I' for Inactive)
REMARK    1  A    between atoms: C_2  and  C_3 
REMARK    2  A    between atoms: C_3  and  N_4 
REMARK    3  A    between atoms: C_3  and  C_19 
REMARK       I    between atoms: N_4  and  C_5 
REMARK    4  A    between atoms: C_5  and  C_6 
REMARK    5  A    between atoms: C_7  and  C_8 
ROOT
HETATM    1  N   UNL     1      42.919 -13.185   6.501  1.00  0.00    -0.345 N 
HETATM    2  C   UNL     1      42.721 -14.451   6.984  1.00  0.00     0.255 C 
HETATM    3  O   UNL     1      43.176 -14.842   8.051  1.00  0.00    -0.268 OA
HETATM    4  H   UNL     1      42.543 -12.916   5.598  1.00  0.00     0.163 HD
ENDROOT
BRANCH   2   5
HETATM    5  C   UNL     1      41.876 -15.262   6.130  1.00  0.00     0.075 A 
HETATM    6  C   UNL     1      42.165 -16.051   4.970  1.00  0.00     0.076 A 
HETATM    7  N   UNL     1      41.039 -16.616   4.496  1.00  0.00    -0.178 NA
HETATM    8  N   UNL     1      40.077 -16.241   5.342  1.00  0.00    -0.288 N 
HETATM    9  H   UNL     1      39.135 -16.582   5.179  1.00  0.00     0.188 HD
HETATM   10  C   UNL     1      40.513 -15.410   6.320  1.00  0.00     0.128 A 
BRANCH   6  11
HETATM   11  C   UNL     1      43.447 -16.214   4.164  1.00  0.00     0.040 C 
HETATM   12  C   UNL     1      44.446 -17.256   4.689  1.00  0.00     0.011 C 
HETATM   13  C   UNL     1      43.948 -18.688   4.508  1.00  0.00     0.001 C 
HETATM   14  C   UNL     1      43.642 -18.984   3.041  1.00  0.00     0.000 C 
HETATM   15  C   UNL     1      42.697 -17.950   2.436  1.00  0.00     0.001 C 
HETATM   16  C   UNL     1      43.195 -16.521   2.666  1.00  0.00     0.011 C 
ENDBRANCH   6  11
ENDBRANCH   2   5
BRANCH   1  17
HETATM   17  C   UNL     1      43.687 -12.181   7.206  1.00  0.00     0.154 C 
BRANCH  17  18
HETATM   18  C   UNL     1      45.118 -12.032   6.663  1.00  0.00     0.028 C 
HETATM   19  C   UNL     1      45.907 -10.867   7.253  1.00  0.00     0.007 C 
ENDBRANCH  17  18
BRANCH  17  20
HETATM   20  C   UNL     1      42.911 -10.898   7.120  1.00  0.00     0.127 A 
HETATM   21  N   UNL     1      42.521 -10.284   6.017  1.00  0.00    -0.237 NA
HETATM   22  C   UNL     1      41.854  -9.156   6.428  1.00  0.00     0.048 A 
HETATM   23  C   UNL     1      41.288  -8.207   5.445  1.00  0.00     0.072 C 
HETATM   24  C   UNL     1      41.824  -9.096   7.803  1.00  0.00     0.116 A 
HETATM   25  N   UNL     1      42.493 -10.209   8.231  1.00  0.00    -0.351 N 
HETATM   26  H   UNL     1      42.655 -10.480   9.192  1.00  0.00     0.166 HD
ENDBRANCH  17  20
ENDBRANCH   1  17
TORSDOF 5
ENDMDL
MODEL 3
REMARK VINA RESULT:      -6.8      7.737     10.352
REMARK  5 active torsions:
REMARK  status: ('A' for Active; 'I' for Inactive)
REMARK    1  A    between atoms: C_2  and  C_3 
REMARK    2  A    between atoms: C_3  and  N_4 
REMARK    3  A    between atoms: C_3  and  C_19 
REMARK       I    between atoms: N_4  and  C_5 
REMARK    4  A    between atoms: C_5  and  C_6 
REMARK    5  A    between atoms: C_7  and  C_8 
ROOT
HETATM    1  N   UNL     1      42.560  -9.794   9.430  1.00  0.00    -0.345 N 
HETATM    2  C   UNL     1      41.646  -8.905   9.929  1.00  0.00     0.255 C 
HETATM    3  O   UNL     1      41.488  -7.778   9.477  1.00  0.00    -0.268 OA
HETATM    4  H   UNL     1      42.672 -10.708   9.857  1.00  0.00     0.163 HD
ENDROOT
BRANCH   2   5
HETATM    5  C   UNL     1      40.849  -9.452  11.010  1.00  0.00     0.075 A 
HETATM    6  C   UNL     1      41.088  -9.550  12.418  1.00  0.00     0.076 A 
HETATM    7  N   UNL     1      40.055 -10.164  13.026  1.00  0.00    -0.178 NA
HETATM    8  N   UNL     1      39.173 -10.408  12.055  1.00  0.00    -0.288 N 
HETATM    9  H   UNL     1      38.296 -10.854  12.304  1.00  0.00     0.188 HD
HETATM   10  C   UNL     1      39.605 -10.031  10.827  1.00  0.00     0.128 A 
BRANCH   6  11
HETATM   11  C   UNL     1      42.318  -9.217  13.252  1.00  0.00     0.040 C 
HETATM   12  C   UNL     1      43.226  -8.108  12.700  1.00  0.00     0.011 C 
HETATM   13  C   UNL     1      42.583  -6.727  12.788  1.00  0.00     0.001 C 
HETATM   14  C   UNL     1      42.199  -6.388  14.227  1.00  0.00     0.000 C 
HETATM   15  C   UNL     1      41.341  -7.479  14.860  1.00  0.00     0.001 C 
HETATM   16  C   UNL     1      41.985  -8.860  14.722  1.00  0.00     0.011 C 
ENDBRANCH   6  11
ENDBRANCH   2   5
BRANCH   1  17
HETATM   17  C   UNL     1      43.433  -9.488   8.317  1.00  0.00     0.154 C 
BRANCH  17  18
HETATM   18  C   UNL     1      44.843  -9.066   8.760  1.00  0.00     0.028 C 
HETATM   19  C   UNL     1      45.313  -9.687  10.072  1.00  0.00     0.007 C 
ENDBRANCH  17  18
BRANCH  17  20
HETATM   20  C   UNL     1      43.456 -10.704   7.435  1.00  0.00     0.127 A 
HETATM   21  N   UNL     1      43.290 -10.733   6.125  1.00  0.00    -0.237 NA
HETATM   22  C   UNL     1      43.387 -12.053   5.761  1.00  0.00     0.048 A 
HETATM   23  C   UNL     1      43.230 -12.466   4.349  1.00  0.00     0.072 C 
HETATM   24  C   UNL     1      43.632 -12.835   6.867  1.00  0.00     0.116 A 
HETATM   25  N   UNL     1      43.681 -11.968   7.922  1.00  0.00    -0.351 N 
HETATM   26  H   UNL     1      43.848 -12.209   8.890  1.00  0.00     0.166 HD
ENDBRANCH  17  20
ENDBRANCH   1  17
TORSDOF 5
ENDMDL
MODEL 4
REMARK VINA RESULT:      -6.8      3.305      6.346
REMARK  5 active torsions:
REMARK  status: ('A' for Active; 'I' for Inactive)
REMARK    1  A    between atoms: C_2  and  C_3 
REMARK    2  A    between atoms: C_3  and  N_4 
REMARK    3  A    between atoms: C_3  and  C_19 
REMARK       I    between atoms: N_4  and  C_5 
REMARK    4  A    between atoms: C_5  and  C_6 
REMARK    5  A    between atoms: C_7  and  C_8 
ROOT
HETATM    1  N   UNL     1      42.181 -13.283   5.756  1.00  0.00    -0.345 N 
HETATM    2  C   UNL     1      40.839 -13.540   5.659  1.00  0.00     0.255 C 
HETATM    3  O   UNL     1      40.188 -14.060   6.556  1.00  0.00    -0.268 OA
HETATM    4  H   UNL     1      42.682 -12.874   4.973  1.00  0.00     0.163 HD
ENDROOT
BRANCH   2   5
HETATM    5  C   UNL     1      40.260 -13.087   4.409  1.00  0.00     0.075 A 
HETATM    6  C   UNL     1      39.853 -13.795   3.233  1.00  0.00     0.076 A 
HETATM    7  N   UNL     1      39.384 -12.935   2.309  1.00  0.00    -0.178 NA
HETATM    8  N   UNL     1      39.447 -11.733   2.887  1.00  0.00    -0.288 N 
HETATM    9  H   UNL     1      39.114 -10.931   2.362  1.00  0.00     0.188 HD
HETATM   10  C   UNL     1      39.987 -11.760   4.130  1.00  0.00     0.128 A 
BRANCH   6  11
HETATM   11  C   UNL     1      39.999 -15.260   2.844  1.00  0.00     0.040 C 
HETATM   12  C   UNL     1      40.175 -15.545   1.345  1.00  0.00     0.011 C 
HETATM   13  C   UNL     1      41.535 -15.093   0.819  1.00  0.00     0.001 C 
HETATM   14  C   UNL     1      42.673 -15.758   1.591  1.00  0.00     0.000 C 
HETATM   15  C   UNL     1      42.529 -15.564   3.098  1.00  0.00     0.001 C 
HETATM   16  C   UNL     1      41.144 -15.983   3.595  1.00  0.00     0.011 C 
ENDBRANCH   6  11
ENDBRANCH   2   5
BRANCH   1  17
HETATM   17  C   UNL     1      42.964 -13.601   6.930  1.00  0.00     0.154 C 
BRANCH  17  18
HETATM   18  C   UNL     1      43.643 -14.977   6.843  1.00  0.00     0.028 C 
HETATM   19  C   UNL     1      42.927 -16.092   7.598  1.00  0.00     0.007 C 
ENDBRANCH  17  18
BRANCH  17  20
HETATM   20  C   UNL     1      43.958 -12.488   7.105  1.00  0.00     0.127 A 
HETATM   21  N   UNL     1      44.129 -11.745   8.184  1.00  0.00    -0.237 NA
HETATM   22  C   UNL     1      45.137 -10.863   7.878  1.00  0.00     0.048 A 
HETATM   23  C   UNL     1      45.586  -9.852   8.861  1.00  0.00     0.072 C 
HETATM   24  C   UNL     1      45.595 -11.088   6.600  1.00  0.00     0.116 A 
HETATM   25  N   UNL     1      44.844 -12.125   6.121  1.00  0.00    -0.351 N 
HETATM   26  H   UNL     1      44.921 -12.550   5.207  1.00  0.00     0.166 HD
ENDBRANCH  17  20
ENDBRANCH   1  17
TORSDOF 5
ENDMDL
MODEL 5
REMARK VINA RESULT:      -6.7      1.665      6.286
REMARK  5 active torsions:
REMARK  status: ('A' for Active; 'I' for Inactive)
REMARK    1  A    between atoms: C_2  and  C_3 
REMARK    2  A    between atoms: C_3  and  N_4 
REMARK    3  A    between atoms: C_3  and  C_19 
REMARK       I    between atoms: N_4  and  C_5 
REMARK    4  A    between atoms: C_5  and  C_6 
REMARK    5  A    between atoms: C_7  and  C_8 
ROOT
HETATM    1  N   UNL     1      42.714 -16.034   4.536  1.00  0.00    -0.345 N 
HETATM    2  C   UNL     1      42.598 -15.205   3.452  1.00  0.00     0.255 C 
HETATM    3  O   UNL     1      43.534 -14.933   2.710  1.00  0.00    -0.268 OA
HETATM    4  H   UNL     1      41.915 -16.207   5.136  1.00  0.00     0.163 HD
ENDROOT
BRANCH   2   5
HETATM    5  C   UNL     1      41.246 -14.726   3.242  1.00  0.00     0.075 A 
HETATM    6  C   UNL     1      40.510 -13.651   3.837  1.00  0.00     0.076 A 
HETATM    7  N   UNL     1      39.263 -13.602   3.332  1.00  0.00    -0.178 NA
HETATM    8  N   UNL     1      39.218 -14.575   2.420  1.00  0.00    -0.288 N 
HETATM    9  H   UNL     1      38.358 -14.700   1.895  1.00  0.00     0.188 HD
HETATM   10  C   UNL     1      40.362 -15.297   2.343  1.00  0.00     0.128 A 
BRANCH   6  11
HETATM   11  C   UNL     1      40.859 -12.712   4.985  1.00  0.00     0.040 C 
HETATM   12  C   UNL     1      42.350 -12.386   5.160  1.00  0.00     0.011 C 
HETATM   13  C   UNL     1      42.889 -11.496   4.044  1.00  0.00     0.001 C 
HETATM   14  C   UNL     1      42.100 -10.192   3.948  1.00  0.00     0.000 C 
HETATM   15  C   UNL     1      40.599 -10.441   3.831  1.00  0.00     0.001 C 
HETATM   16  C   UNL     1      40.089 -11.369   4.935  1.00  0.00     0.011 C 
ENDBRANCH   6  11
ENDBRANCH   2   5
BRANCH   1  17
HETATM   17  C   UNL     1      43.957 -16.673   4.913  1.00  0.00     0.154 C 
BRANCH  17  18
HETATM   18  C   UNL     1      44.195 -16.669   6.432  1.00  0.00     0.028 C 
HETATM   19  C   UNL     1      43.305 -15.710   7.216  1.00  0.00     0.007 C 
ENDBRANCH  17  18
BRANCH  17  20
HETATM   20  C   UNL     1      43.921 -18.064   4.348  1.00  0.00     0.127 A 
HETATM   21  N   UNL     1      43.768 -18.397   3.078  1.00  0.00    -0.237 NA
HETATM   22  C   UNL     1      43.793 -19.770   3.042  1.00  0.00     0.048 A 
HETATM   23  C   UNL     1      43.628 -20.500   1.767  1.00  0.00     0.072 C 
HETATM   24  C   UNL     1      43.982 -20.275   4.309  1.00  0.00     0.116 A 
HETATM   25  N   UNL     1      44.068 -19.184   5.128  1.00  0.00    -0.351 N 
HETATM   26  H   UNL     1      44.211 -19.194   6.129  1.00  0.00     0.166 HD
ENDBRANCH  17  20
ENDBRANCH   1  17
TORSDOF 5
ENDMDL
MODEL 6
REMARK VINA RESULT:      -6.7      2.871      5.095
REMARK  5 active torsions:
REMARK  status: ('A' for Active; 'I' for Inactive)
REMARK    1  A    between atoms: C_2  and  C_3 
REMARK    2  A    between atoms: C_3  and  N_4 
REMARK    3  A    between atoms: C_3  and  C_19 
REMARK       I    between atoms: N_4  and  C_5 
REMARK    4  A    between atoms: C_5  and  C_6 
REMARK    5  A    between atoms: C_7  and  C_8 
ROOT
HETATM    1  N   UNL     1      44.078 -13.721   6.267  1.00  0.00    -0.345 N 
HETATM    2  C   UNL     1      43.367 -14.832   6.635  1.00  0.00     0.255 C 
HETATM    3  O   UNL     1      42.565 -14.840   7.561  1.00  0.00    -0.268 OA
HETATM    4  H   UNL     1      44.751 -13.772   5.509  1.00  0.00     0.163 HD
ENDROOT
BRANCH   2   5
HETATM    5  C   UNL     1      43.619 -15.979   5.786  1.00  0.00     0.075 A 
HETATM    6  C   UNL     1      42.953 -16.466   4.615  1.00  0.00     0.076 A 
HETATM    7  N   UNL     1      43.544 -17.594   4.177  1.00  0.00    -0.178 NA
HETATM    8  N   UNL     1      44.570 -17.796   5.006  1.00  0.00    -0.288 N 
HETATM    9  H   UNL     1      45.172 -18.595   4.838  1.00  0.00     0.188 HD
HETATM   10  C   UNL     1      44.648 -16.880   6.002  1.00  0.00     0.128 A 
BRANCH   6  11
HETATM   11  C   UNL     1      41.674 -16.009   3.927  1.00  0.00     0.040 C 
HETATM   12  C   UNL     1      41.394 -14.500   3.957  1.00  0.00     0.011 C 
HETATM   13  C   UNL     1      42.355 -13.708   3.074  1.00  0.00     0.001 C 
HETATM   14  C   UNL     1      42.303 -14.196   1.627  1.00  0.00     0.000 C 
HETATM   15  C   UNL     1      42.516 -15.704   1.527  1.00  0.00     0.001 C 
HETATM   16  C   UNL     1      41.572 -16.474   2.452  1.00  0.00     0.011 C 
ENDBRANCH   6  11
ENDBRANCH   2   5
BRANCH   1  17
HETATM   17  C   UNL     1      43.954 -12.445   6.937  1.00  0.00     0.154 C 
BRANCH  17  18
HETATM   18  C   UNL     1      45.261 -11.635   6.930  1.00  0.00     0.028 C 
HETATM   19  C   UNL     1      45.451 -10.718   8.135  1.00  0.00     0.007 C 
ENDBRANCH  17  18
BRANCH  17  20
HETATM   20  C   UNL     1      42.828 -11.709   6.267  1.00  0.00     0.127 A 
HETATM   21  N   UNL     1      42.932 -10.831   5.286  1.00  0.00    -0.237 NA
HETATM   22  C   UNL     1      41.651 -10.424   5.006  1.00  0.00     0.048 A 
HETATM   23  C   UNL     1      41.386  -9.415   3.957  1.00  0.00     0.072 C 
HETATM   24  C   UNL     1      40.755 -11.080   5.819  1.00  0.00     0.116 A 
HETATM   25  N   UNL     1      41.512 -11.897   6.611  1.00  0.00    -0.351 N 
HETATM   26  H   UNL     1      41.171 -12.526   7.325  1.00  0.00     0.166 HD
ENDBRANCH  17  20
ENDBRANCH   1  17
TORSDOF 5
ENDMDL
MODEL 7
REMARK VINA RESULT:      -6.7      2.054      3.825
REMARK  5 active torsions:
REMARK  status: ('A' for Active; 'I' for Inactive)
REMARK    1  A    between atoms: C_2  and  C_3 
REMARK    2  A    between atoms: C_3  and  N_4 
REMARK    3  A    between atoms: C_3  and  C_19 
REMARK       I    between atoms: N_4  and  C_5 
REMARK    4  A    between atoms: C_5  and  C_6 
REMARK    5  A    between atoms: C_7  and  C_8 
ROOT
HETATM    1  N   UNL     1      41.500 -14.145   1.647  1.00  0.00    -0.345 N 
HETATM    2  C   UNL     1      40.976 -15.223   2.310  1.00  0.00     0.255 C 
HETATM    3  O   UNL     1      39.777 -15.365   2.519  1.00  0.00    -0.268 OA
HETATM    4  H   UNL     1      42.504 -14.060   1.522  1.00  0.00     0.163 HD
ENDROOT
BRANCH   2   5
HETATM    5  C   UNL     1      41.976 -16.202   2.690  1.00  0.00     0.075 A 
HETATM    6  C   UNL     1      42.341 -16.749   3.961  1.00  0.00     0.076 A 
HETATM    7  N   UNL     1      43.356 -17.624   3.819  1.00  0.00    -0.178 NA
HETATM    8  N   UNL     1      43.598 -17.667   2.508  1.00  0.00    -0.288 N 
HETATM    9  H   UNL     1      44.324 -18.293   2.175  1.00  0.00     0.188 HD
HETATM   10  C   UNL     1      42.824 -16.819   1.787  1.00  0.00     0.128 A 
BRANCH   6  11
HETATM   11  C   UNL     1      41.883 -16.403   5.372  1.00  0.00     0.040 C 
HETATM   12  C   UNL     1      42.842 -16.789   6.507  1.00  0.00     0.011 C 
HETATM   13  C   UNL     1      44.105 -15.931   6.523  1.00  0.00     0.001 C 
HETATM   14  C   UNL     1      43.762 -14.447   6.642  1.00  0.00     0.000 C 
HETATM   15  C   UNL     1      42.763 -14.006   5.577  1.00  0.00     0.001 C 
HETATM   16  C   UNL     1      41.526 -14.906   5.550  1.00  0.00     0.011 C 
ENDBRANCH   6  11
ENDBRANCH   2   5
BRANCH   1  17
HETATM   17  C   UNL     1      40.689 -13.065   1.128  1.00  0.00     0.154 C 
BRANCH  17  18
HETATM   18  C   UNL     1      41.357 -11.689   1.280  1.00  0.00     0.028 C 
HETATM   19  C   UNL     1      42.305 -11.566   2.470  1.00  0.00     0.007 C 
ENDBRANCH  17  18
BRANCH  17  20
HETATM   20  C   UNL     1      40.391 -13.395  -0.306  1.00  0.00     0.127 A 
HETATM   21  N   UNL     1      39.469 -14.232  -0.748  1.00  0.00    -0.237 NA
HETATM   22  C   UNL     1      39.569 -14.214  -2.118  1.00  0.00     0.048 A 
HETATM   23  C   UNL     1      38.690 -15.059  -2.956  1.00  0.00     0.072 C 
HETATM   24  C   UNL     1      40.555 -13.337  -2.512  1.00  0.00     0.116 A 
HETATM   25  N   UNL     1      41.065 -12.819  -1.354  1.00  0.00    -0.351 N 
HETATM   26  H   UNL     1      41.808 -12.138  -1.278  1.00  0.00     0.166 HD
ENDBRANCH  17  20
ENDBRANCH   1  17
TORSDOF 5
ENDMDL
MODEL 8
REMARK VINA RESULT:      -6.6      2.602      4.545
REMARK  5 active torsions:
REMARK  status: ('A' for Active; 'I' for Inactive)
REMARK    1  A    between atoms: C_2  and  C_3 
REMARK    2  A    between atoms: C_3  and  N_4 
REMARK    3  A    between atoms: C_3  and  C_19 
REMARK       I    between atoms: N_4  and  C_5 
REMARK    4  A    between atoms: C_5  and  C_6 
REMARK    5  A    between atoms: C_7  and  C_8 
ROOT
HETATM    1  N   UNL     1      40.509 -12.861   4.103  1.00  0.00    -0.345 N 
HETATM    2  C   UNL     1      40.472 -13.069   5.457  1.00  0.00     0.255 C 
HETATM    3  O   UNL     1      39.431 -13.190   6.090  1.00  0.00    -0.268 OA
HETATM    4  H   UNL     1      41.397 -12.741   3.628  1.00  0.00     0.163 HD
ENDROOT
BRANCH   2   5
HETATM    5  C   UNL     1      41.789 -13.183   6.053  1.00  0.00     0.075 A 
HETATM    6  C   UNL     1      42.522 -14.313   6.540  1.00  0.00     0.076 A 
HETATM    7  N   UNL     1      43.713 -13.920   7.031  1.00  0.00    -0.178 NA
HETATM    8  N   UNL     1      43.758 -12.602   6.826  1.00  0.00    -0.288 N 
HETATM    9  H   UNL     1      44.595 -12.102   7.107  1.00  0.00     0.188 HD
HETATM   10  C   UNL     1      42.627 -12.103   6.271  1.00  0.00     0.128 A 
BRANCH   6  11
HETATM   11  C   UNL     1      42.121 -15.772   6.707  1.00  0.00     0.040 C 
HETATM   12  C   UNL     1      41.290 -16.378   5.567  1.00  0.00     0.011 C 
HETATM   13  C   UNL     1      42.103 -16.572   4.289  1.00  0.00     0.001 C 
HETATM   14  C   UNL     1      43.324 -17.454   4.541  1.00  0.00     0.000 C 
HETATM   15  C   UNL     1      44.167 -16.942   5.705  1.00  0.00     0.001 C 
HETATM   16  C   UNL     1      43.324 -16.715   6.961  1.00  0.00     0.011 C 
ENDBRANCH   6  11
ENDBRANCH   2   5
BRANCH   1  17
HETATM   17  C   UNL     1      39.319 -12.764   3.286  1.00  0.00     0.154 C 
BRANCH  17  18
HETATM   18  C   UNL     1      38.928 -11.312   2.968  1.00  0.00     0.028 C 
HETATM   19  C   UNL     1      40.052 -10.295   3.142  1.00  0.00     0.007 C 
ENDBRANCH  17  18
BRANCH  17  20
HETATM   20  C   UNL     1      39.578 -13.566   2.043  1.00  0.00     0.127 A 
HETATM   21  N   UNL     1      39.721 -13.097   0.816  1.00  0.00    -0.237 NA
HETATM   22  C   UNL     1      39.934 -14.192   0.015  1.00  0.00     0.048 A 
HETATM   23  C   UNL     1      40.119 -14.042  -1.445  1.00  0.00     0.072 C 
HETATM   24  C   UNL     1      39.937 -15.342   0.772  1.00  0.00     0.116 A 
HETATM   25  N   UNL     1      39.717 -14.932   2.058  1.00  0.00    -0.351 N 
HETATM   26  H   UNL     1      39.662 -15.524   2.875  1.00  0.00     0.166 HD
ENDBRANCH  17  20
ENDBRANCH   1  17
TORSDOF 5
ENDMDL
MODEL 9
REMARK VINA RESULT:      -6.6      2.508      4.795
REMARK  5 active torsions:
REMARK  status: ('A' for Active; 'I' for Inactive)
REMARK    1  A    between atoms: C_2  and  C_3 
REMARK    2  A    between atoms: C_3  and  N_4 
REMARK    3  A    between atoms: C_3  and  C_19 
REMARK       I    between atoms: N_4  and  C_5 
REMARK    4  A    between atoms: C_5  and  C_6 
REMARK    5  A    between atoms: C_7  and  C_8 
ROOT
HETATM    1  N   UNL     1      42.649 -13.275   5.940  1.00  0.00    -0.345 N 
HETATM    2  C   UNL     1      41.716 -14.230   6.243  1.00  0.00     0.255 C 
HETATM    3  O   UNL     1      40.559 -13.966   6.546  1.00  0.00    -0.268 OA
HETATM    4  H   UNL     1      43.603 -13.543   5.720  1.00  0.00     0.163 HD
ENDROOT
BRANCH   2   5
HETATM    5  C   UNL     1      42.221 -15.583   6.117  1.00  0.00     0.075 A 
HETATM    6  C   UNL     1      42.200 -16.513   5.028  1.00  0.00     0.076 A 
HETATM    7  N   UNL     1      42.781 -17.671   5.392  1.00  0.00    -0.178 NA
HETATM    8  N   UNL     1      43.197 -17.475   6.645  1.00  0.00    -0.288 N 
HETATM    9  H   UNL     1      43.691 -18.230   7.110  1.00  0.00     0.188 HD
HETATM   10  C   UNL     1      42.866 -16.257   7.139  1.00  0.00     0.128 A 
BRANCH   6  11
HETATM   11  C   UNL     1      41.531 -16.441   3.662  1.00  0.00     0.040 C 
HETATM   12  C   UNL     1      41.496 -15.056   3.000  1.00  0.00     0.011 C 
HETATM   13  C   UNL     1      42.875 -14.593   2.537  1.00  0.00     0.001 C 
HETATM   14  C   UNL     1      43.496 -15.595   1.567  1.00  0.00     0.000 C 
HETATM   15  C   UNL     1      43.510 -17.010   2.139  1.00  0.00     0.001 C 
HETATM   16  C   UNL     1      42.126 -17.436   2.634  1.00  0.00     0.011 C 
ENDBRANCH   6  11
ENDBRANCH   2   5
BRANCH   1  17
HETATM   17  C   UNL     1      42.361 -11.857   5.948  1.00  0.00     0.154 C 
BRANCH  17  18
HETATM   18  C   UNL     1      43.541 -11.009   6.450  1.00  0.00     0.028 C 
HETATM   19  C   UNL     1      44.621 -11.792   7.191  1.00  0.00     0.007 C 
ENDBRANCH  17  18
BRANCH  17  20
HETATM   20  C   UNL     1      41.951 -11.487   4.551  1.00  0.00     0.127 A 
HETATM   21  N   UNL     1      40.726 -11.502   4.058  1.00  0.00    -0.237 NA
HETATM   22  C   UNL     1      40.840 -11.096   2.751  1.00  0.00     0.048 A 
HETATM   23  C   UNL     1      39.652 -11.011   1.874  1.00  0.00     0.072 C 
HETATM   24  C   UNL     1      42.154 -10.812   2.453  1.00  0.00     0.116 A 
HETATM   25  N   UNL     1      42.849 -11.059   3.605  1.00  0.00    -0.351 N 
HETATM   26  H   UNL     1      43.845 -10.950   3.739  1.00  0.00     0.166 HD
ENDBRANCH  17  20
ENDBRANCH   1  17
TORSDOF 5
ENDMDL
MODEL 10
REMARK VINA RESULT:      -6.5      3.596      5.467
REMARK  5 active torsions:
REMARK  status: ('A' for Active; 'I' for Inactive)
REMARK    1  A    between atoms: C_2  and  C_3 
REMARK    2  A    between atoms: C_3  and  N_4 
REMARK    3  A    between atoms: C_3  and  C_19 
REMARK       I    between atoms: N_4  and  C_5 
REMARK    4  A    between atoms: C_5  and  C_6 
REMARK    5  A    between atoms: C_7  and  C_8 
ROOT
HETATM    1  N   UNL     1      43.607 -12.891   5.810  1.00  0.00    -0.345 N 
HETATM    2  C   UNL     1      42.403 -13.499   6.050  1.00  0.00     0.255 C 
HETATM    3  O   UNL     1      41.351 -12.883   6.169  1.00  0.00    -0.268 OA
HETATM    4  H   UNL     1      44.455 -13.444   5.745  1.00  0.00     0.163 HD
ENDROOT
BRANCH   2   5
HETATM    5  C   UNL     1      42.492 -14.945   6.093  1.00  0.00     0.075 A 
HETATM    6  C   UNL     1      42.164 -15.952   5.130  1.00  0.00     0.076 A 
HETATM    7  N   UNL     1      42.400 -17.178   5.635  1.00  0.00    -0.178 NA
HETATM    8  N   UNL     1      42.900 -16.962   6.854  1.00  0.00    -0.288 N 
HETATM    9  H   UNL     1      43.172 -17.767   7.409  1.00  0.00     0.188 HD
HETATM   10  C   UNL     1      42.952 -15.651   7.192  1.00  0.00     0.128 A 
BRANCH   6  11
HETATM   11  C   UNL     1      41.494 -15.854   3.765  1.00  0.00     0.040 C 
HETATM   12  C   UNL     1      41.777 -14.573   2.966  1.00  0.00     0.011 C 
HETATM   13  C   UNL     1      43.214 -14.507   2.455  1.00  0.00     0.001 C 
HETATM   14  C   UNL     1      43.547 -15.720   1.589  1.00  0.00     0.000 C 
HETATM   15  C   UNL     1      43.234 -17.033   2.301  1.00  0.00     0.001 C 
HETATM   16  C   UNL     1      41.803 -17.059   2.842  1.00  0.00     0.011 C 
ENDBRANCH   6  11
ENDBRANCH   2   5
BRANCH   1  17
HETATM   17  C   UNL     1      43.756 -11.458   5.676  1.00  0.00     0.154 C 
BRANCH  17  18
HETATM   18  C   UNL     1      42.663 -10.822   4.801  1.00  0.00     0.028 C 
HETATM   19  C   UNL     1      42.859 -11.006   3.299  1.00  0.00     0.007 C 
ENDBRANCH  17  18
BRANCH  17  20
HETATM   20  C   UNL     1      43.772 -10.890   7.066  1.00  0.00     0.127 A 
HETATM   21  N   UNL     1      44.813 -10.813   7.875  1.00  0.00    -0.237 NA
HETATM   22  C   UNL     1      44.351 -10.230   9.030  1.00  0.00     0.048 A 
HETATM   23  C   UNL     1      45.253 -10.002  10.180  1.00  0.00     0.072 C 
HETATM   24  C   UNL     1      43.013  -9.932   8.910  1.00  0.00     0.116 A 
HETATM   25  N   UNL     1      42.657 -10.350   7.658  1.00  0.00    -0.351 N 
HETATM   26  H   UNL     1      41.739 -10.279   7.239  1.00  0.00     0.166 HD
ENDBRANCH  17  20
ENDBRANCH   1  17
TORSDOF 5
ENDMDL
