MODEL 1
REMARK VINA RESULT:      -8.5      0.000      0.000
REMARK  10 active torsions:
REMARK  status: ('A' for Active; 'I' for Inactive)
REMARK    1  A    between atoms: C_2  and  O_3 
REMARK    2  A    between atoms: O_3  and  C_4 
REMARK    3  A    between atoms: C_7  and  C_8 
REMARK    4  A    between atoms: C_8  and  C_9 
REMARK    5  A    between atoms: C_10  and  C_11 
REMARK    6  A    between atoms: C_14  and  N_15 
REMARK    7  A    between atoms: N_20  and  C_21 
REMARK    8  A    between atoms: C_21  and  C_22 
REMARK    9  A    between atoms: C_22  and  N_23 
REMARK   10  A    between atoms: C_34  and  O_35 
ROOT
HETATM    1  C   UNL     1      40.311 -12.824   3.035  1.00  0.00     0.059 C 
HETATM    2  C   UNL     1      41.185 -12.566   4.220  1.00  0.00     0.161 C 
HETATM    3  N   UNL     1      40.317 -11.723   5.046  1.00  0.00    -0.332 N 
HETATM    4  C   UNL     1      39.224 -11.302   4.307  1.00  0.00     0.278 C 
HETATM    5  O   UNL     1      38.462 -10.406   4.632  1.00  0.00    -0.265 OA
HETATM    6  C   UNL     1      39.174 -12.113   3.081  1.00  0.00     0.146 C 
ENDROOT
BRANCH   1   7
HETATM    7  C   UNL     1      40.521 -13.767   1.919  1.00  0.00     0.193 C 
HETATM    8  O   UNL     1      39.948 -13.549   0.851  1.00  0.00    -0.287 OA
BRANCH   7   9
HETATM    9  C   UNL     1      41.378 -14.966   2.052  1.00  0.00     0.015 A 
HETATM   10  C   UNL     1      40.939 -16.144   2.666  1.00  0.00     0.018 A 
HETATM   11  C   UNL     1      41.815 -17.225   2.812  1.00  0.00     0.038 A 
HETATM   12  C   UNL     1      43.132 -17.121   2.368  1.00  0.00     0.069 A 
HETATM   13  C   UNL     1      43.589 -15.934   1.802  1.00  0.00     0.038 A 
HETATM   14  C   UNL     1      42.712 -14.860   1.635  1.00  0.00     0.018 A 
BRANCH  12  15
HETATM   15  O   UNL     1      44.053 -18.102   2.593  1.00  0.00    -0.347 OA
BRANCH  15  16
HETATM   16  C   UNL     1      43.487 -19.357   2.998  1.00  0.00     0.120 C 
HETATM   17  C   UNL     1      44.249 -19.869   4.216  1.00  0.00     0.040 C 
HETATM   18  C   UNL     1      43.646 -20.325   1.829  1.00  0.00     0.040 C 
ENDBRANCH  15  16
ENDBRANCH  12  15
ENDBRANCH   7   9
ENDBRANCH   1   7
BRANCH   2  19
HETATM   19  C   UNL     1      41.690 -13.772   4.983  1.00  0.00    -0.030 A 
HETATM   20  C   UNL     1      43.065 -14.076   4.950  1.00  0.00     0.012 A 
HETATM   21  C   UNL     1      43.579 -15.170   5.651  1.00  0.00     0.037 A 
HETATM   22  C   UNL     1      42.715 -15.978   6.398  1.00  0.00     0.102 A 
HETATM   23  C   UNL     1      41.344 -15.693   6.443  1.00  0.00     0.037 A 
HETATM   24  C   UNL     1      40.839 -14.590   5.744  1.00  0.00     0.012 A 
BRANCH  22  25
HETATM   25  N   UNL     1      43.255 -17.116   7.154  1.00  0.00    -0.116 N 
HETATM   26  O   UNL     1      42.947 -18.252   6.770  1.00  0.00    -0.532 OA
HETATM   27  O   UNL     1      44.009 -16.865   8.102  1.00  0.00    -0.532 OA
ENDBRANCH  22  25
ENDBRANCH   2  19
BRANCH   6  28
HETATM   28  O   UNL     1      38.126 -12.092   2.209  1.00  0.00    -0.355 OA
HETATM   29  H   UNL     1      38.377 -12.641   1.428  1.00  0.00     0.218 HD
ENDBRANCH   6  28
BRANCH   3  30
HETATM   30  C   UNL     1      40.804 -10.972   6.198  1.00  0.00     0.155 C 
BRANCH  30  31
HETATM   31  C   UNL     1      42.336 -10.693   6.176  1.00  0.00     0.254 C 
BRANCH  31  32
HETATM   32  N   UNL     1      43.027 -11.060   7.504  1.00  0.00    -0.066 N 
HETATM   33  H   UNL     1      42.384 -11.731   7.955  1.00  0.00     0.280 HD
HETATM   34  C   UNL     1      43.129  -9.879   8.479  1.00  0.00     0.262 C 
HETATM   35  C   UNL     1      44.324  -8.946   8.166  1.00  0.00     0.260 C 
HETATM   36  N   UNL     1      45.612  -9.724   8.075  1.00  0.00    -0.072 N 
HETATM   37  H   UNL     1      45.912 -10.074   8.999  1.00  0.00     0.277 HD
HETATM   38  H   UNL     1      46.371  -9.079   7.792  1.00  0.00     0.277 HD
HETATM   39  C   UNL     1      45.558 -10.845   7.063  1.00  0.00     0.260 C 
HETATM   40  C   UNL     1      44.371 -11.797   7.361  1.00  0.00     0.262 C 
ENDBRANCH  31  32
ENDBRANCH  30  31
ENDBRANCH   3  30
TORSDOF 10
ENDMDL
MODEL 2
REMARK VINA RESULT:      -8.2      3.517      6.852
REMARK  10 active torsions:
REMARK  status: ('A' for Active; 'I' for Inactive)
REMARK    1  A    between atoms: C_2  and  O_3 
REMARK    2  A    between atoms: O_3  and  C_4 
REMARK    3  A    between atoms: C_7  and  C_8 
REMARK    4  A    between atoms: C_8  and  C_9 
REMARK    5  A    between atoms: C_10  and  C_11 
REMARK    6  A    between atoms: C_14  and  N_15 
REMARK    7  A    between atoms: N_20  and  C_21 
REMARK    8  A    between atoms: C_21  and  C_22 
REMARK    9  A    between atoms: C_22  and  N_23 
REMARK   10  A    between atoms: C_34  and  O_35 
ROOT
HETATM    1  C   UNL     1      41.851 -11.794   3.269  1.00  0.00     0.059 C 
HETATM    2  C   UNL     1      40.487 -12.104   2.740  1.00  0.00     0.161 C 
HETATM    3  N   UNL     1      39.783 -10.844   2.990  1.00  0.00    -0.332 N 
HETATM    4  C   UNL     1      40.540 -10.035   3.822  1.00  0.00     0.278 C 
HETATM    5  O   UNL     1      40.127  -9.044   4.401  1.00  0.00    -0.265 OA
HETATM    6  C   UNL     1      41.897 -10.601   3.880  1.00  0.00     0.146 C 
ENDROOT
BRANCH   1   7
HETATM    7  C   UNL     1      43.093 -12.581   3.142  1.00  0.00     0.193 C 
HETATM    8  O   UNL     1      44.170 -11.984   3.147  1.00  0.00    -0.287 OA
BRANCH   7   9
HETATM    9  C   UNL     1      43.080 -14.053   2.992  1.00  0.00     0.015 A 
HETATM   10  C   UNL     1      43.421 -14.694   1.795  1.00  0.00     0.018 A 
HETATM   11  C   UNL     1      43.335 -16.087   1.699  1.00  0.00     0.038 A 
HETATM   12  C   UNL     1      42.887 -16.835   2.786  1.00  0.00     0.069 A 
HETATM   13  C   UNL     1      42.499 -16.200   3.962  1.00  0.00     0.038 A 
HETATM   14  C   UNL     1      42.603 -14.812   4.070  1.00  0.00     0.018 A 
BRANCH  12  15
HETATM   15  O   UNL     1      42.676 -18.181   2.702  1.00  0.00    -0.347 OA
BRANCH  15  16
HETATM   16  C   UNL     1      43.877 -18.965   2.695  1.00  0.00     0.120 C 
HETATM   17  C   UNL     1      43.607 -20.270   1.953  1.00  0.00     0.040 C 
HETATM   18  C   UNL     1      44.242 -19.248   4.149  1.00  0.00     0.040 C 
ENDBRANCH  15  16
ENDBRANCH  12  15
ENDBRANCH   7   9
ENDBRANCH   1   7
BRANCH   2  19
HETATM   19  C   UNL     1      40.386 -12.526   1.290  1.00  0.00    -0.030 A 
HETATM   20  C   UNL     1      40.842 -11.647   0.288  1.00  0.00     0.012 A 
HETATM   21  C   UNL     1      40.783 -12.000  -1.063  1.00  0.00     0.037 A 
HETATM   22  C   UNL     1      40.260 -13.245  -1.428  1.00  0.00     0.102 A 
HETATM   23  C   UNL     1      39.800 -14.133  -0.446  1.00  0.00     0.037 A 
HETATM   24  C   UNL     1      39.871 -13.776   0.905  1.00  0.00     0.012 A 
BRANCH  22  25
HETATM   25  N   UNL     1      40.217 -13.628  -2.845  1.00  0.00    -0.116 N 
HETATM   26  O   UNL     1      39.117 -13.954  -3.313  1.00  0.00    -0.532 OA
HETATM   27  O   UNL     1      41.273 -13.569  -3.486  1.00  0.00    -0.532 OA
ENDBRANCH  22  25
ENDBRANCH   2  19
BRANCH   6  28
HETATM   28  O   UNL     1      42.951  -9.962   4.463  1.00  0.00    -0.355 OA
HETATM   29  H   UNL     1      42.701  -9.763   5.397  1.00  0.00     0.218 HD
ENDBRANCH   6  28
BRANCH   3  30
HETATM   30  C   UNL     1      38.332 -10.715   2.902  1.00  0.00     0.155 C 
BRANCH  30  31
HETATM   31  C   UNL     1      37.840  -9.827   1.722  1.00  0.00     0.254 C 
BRANCH  31  32
HETATM   32  N   UNL     1      36.684 -10.472   0.934  1.00  0.00    -0.066 N 
HETATM   33  H   UNL     1      36.270 -11.154   1.590  1.00  0.00     0.280 HD
HETATM   34  C   UNL     1      37.159 -11.303  -0.266  1.00  0.00     0.262 C 
HETATM   35  C   UNL     1      37.465 -10.434  -1.511  1.00  0.00     0.260 C 
HETATM   36  N   UNL     1      36.296  -9.549  -1.858  1.00  0.00    -0.072 N 
HETATM   37  H   UNL     1      35.501 -10.095  -2.227  1.00  0.00     0.277 HD
HETATM   38  H   UNL     1      36.566  -8.933  -2.646  1.00  0.00     0.277 HD
HETATM   39  C   UNL     1      35.860  -8.665  -0.711  1.00  0.00     0.260 C 
HETATM   40  C   UNL     1      35.541  -9.515   0.546  1.00  0.00     0.262 C 
ENDBRANCH  31  32
ENDBRANCH  30  31
ENDBRANCH   3  30
TORSDOF 10
ENDMDL
MODEL 3
REMARK VINA RESULT:      -8.0      2.716      5.292
REMARK  10 active torsions:
REMARK  status: ('A' for Active; 'I' for Inactive)
REMARK    1  A    between atoms: C_2  and  O_3 
REMARK    2  A    between atoms: O_3  and  C_4 
REMARK    3  A    between atoms: C_7  and  C_8 
REMARK    4  A    between atoms: C_8  and  C_9 
REMARK    5  A    between atoms: C_10  and  C_11 
REMARK    6  A    between atoms: C_14  and  N_15 
REMARK    7  A    between atoms: N_20  and  C_21 
REMARK    8  A    between atoms: C_21  and  C_22 
REMARK    9  A    between atoms: C_22  and  N_23 
REMARK   10  A    between atoms: C_34  and  O_35 
ROOT
HETATM    1  C   UNL     1      41.605 -13.691   6.021  1.00  0.00     0.059 C 
HETATM    2  C   UNL     1      42.005 -12.363   5.463  1.00  0.00     0.161 C 
HETATM    3  N   UNL     1      40.729 -11.643   5.478  1.00  0.00    -0.332 N 
HETATM    4  C   UNL     1      39.690 -12.527   5.717  1.00  0.00     0.278 C 
HETATM    5  O   UNL     1      38.507 -12.279   5.549  1.00  0.00    -0.265 OA
HETATM    6  C   UNL     1      40.277 -13.791   6.185  1.00  0.00     0.146 C 
ENDROOT
BRANCH   1   7
HETATM    7  C   UNL     1      42.466 -14.813   6.447  1.00  0.00     0.193 C 
HETATM    8  O   UNL     1      42.767 -14.901   7.637  1.00  0.00    -0.287 OA
BRANCH   7   9
HETATM    9  C   UNL     1      42.987 -15.813   5.489  1.00  0.00     0.015 A 
HETATM   10  C   UNL     1      42.368 -16.077   4.262  1.00  0.00     0.018 A 
HETATM   11  C   UNL     1      42.877 -17.075   3.423  1.00  0.00     0.038 A 
HETATM   12  C   UNL     1      43.984 -17.823   3.820  1.00  0.00     0.069 A 
HETATM   13  C   UNL     1      44.573 -17.598   5.061  1.00  0.00     0.038 A 
HETATM   14  C   UNL     1      44.082 -16.589   5.892  1.00  0.00     0.018 A 
BRANCH  12  15
HETATM   15  O   UNL     1      44.443 -18.881   3.092  1.00  0.00    -0.347 OA
BRANCH  15  16
HETATM   16  C   UNL     1      43.516 -19.971   2.990  1.00  0.00     0.120 C 
HETATM   17  C   UNL     1      43.902 -21.040   4.007  1.00  0.00     0.040 C 
HETATM   18  C   UNL     1      43.623 -20.526   1.573  1.00  0.00     0.040 C 
ENDBRANCH  15  16
ENDBRANCH  12  15
ENDBRANCH   7   9
ENDBRANCH   1   7
BRANCH   2  19
HETATM   19  C   UNL     1      43.089 -11.602   6.195  1.00  0.00    -0.030 A 
HETATM   20  C   UNL     1      42.720 -10.622   7.136  1.00  0.00     0.012 A 
HETATM   21  C   UNL     1      43.686  -9.904   7.847  1.00  0.00     0.037 A 
HETATM   22  C   UNL     1      45.042 -10.161   7.619  1.00  0.00     0.102 A 
HETATM   23  C   UNL     1      45.430 -11.132   6.686  1.00  0.00     0.037 A 
HETATM   24  C   UNL     1      44.456 -11.852   5.984  1.00  0.00     0.012 A 
BRANCH  22  25
HETATM   25  N   UNL     1      46.059  -9.425   8.381  1.00  0.00    -0.116 N 
HETATM   26  O   UNL     1      45.916  -9.362   9.609  1.00  0.00    -0.532 OA
HETATM   27  O   UNL     1      47.008  -8.944   7.750  1.00  0.00    -0.532 OA
ENDBRANCH  22  25
ENDBRANCH   2  19
BRANCH   6  28
HETATM   28  O   UNL     1      39.538 -14.823   6.684  1.00  0.00    -0.355 OA
HETATM   29  H   UNL     1      39.552 -14.751   7.669  1.00  0.00     0.218 HD
ENDBRANCH   6  28
BRANCH   3  30
HETATM   30  C   UNL     1      40.522 -10.382   4.773  1.00  0.00     0.155 C 
BRANCH  30  31
HETATM   31  C   UNL     1      41.239 -10.296   3.394  1.00  0.00     0.254 C 
BRANCH  31  32
HETATM   32  N   UNL     1      40.258 -10.095   2.224  1.00  0.00    -0.066 N 
HETATM   33  H   UNL     1      39.987  -9.100   2.279  1.00  0.00     0.280 HD
HETATM   34  C   UNL     1      38.949 -10.880   2.391  1.00  0.00     0.262 C 
HETATM   35  C   UNL     1      39.082 -12.363   1.967  1.00  0.00     0.260 C 
HETATM   36  N   UNL     1      39.644 -12.482   0.574  1.00  0.00    -0.072 N 
HETATM   37  H   UNL     1      38.967 -12.166  -0.139  1.00  0.00     0.277 HD
HETATM   38  H   UNL     1      39.787 -13.485   0.357  1.00  0.00     0.277 HD
HETATM   39  C   UNL     1      40.973 -11.780   0.408  1.00  0.00     0.260 C 
HETATM   40  C   UNL     1      40.861 -10.290   0.821  1.00  0.00     0.262 C 
ENDBRANCH  31  32
ENDBRANCH  30  31
ENDBRANCH   3  30
TORSDOF 10
ENDMDL
MODEL 4
REMARK VINA RESULT:      -8.0      3.424      7.572
REMARK  10 active torsions:
REMARK  status: ('A' for Active; 'I' for Inactive)
REMARK    1  A    between atoms: C_2  and  O_3 
REMARK    2  A    between atoms: O_3  and  C_4 
REMARK    3  A    between atoms: C_7  and  C_8 
REMARK    4  A    between atoms: C_8  and  C_9 
REMARK    5  A    between atoms: C_10  and  C_11 
REMARK    6  A    between atoms: C_14  and  N_15 
REMARK    7  A    between atoms: N_20  and  C_21 
REMARK    8  A    between atoms: C_21  and  C_22 
REMARK    9  A    between atoms: C_22  and  N_23 
REMARK   10  A    between atoms: C_34  and  O_35 
ROOT
HETATM    1  C   UNL     1      40.950 -11.869   3.135  1.00  0.00     0.059 C 
HETATM    2  C   UNL     1      40.737 -12.936   2.109  1.00  0.00     0.161 C 
HETATM    3  N   UNL     1      41.210 -12.270   0.892  1.00  0.00    -0.332 N 
HETATM    4  C   UNL     1      41.379 -10.916   1.129  1.00  0.00     0.278 C 
HETATM    5  O   UNL     1      41.525 -10.067   0.264  1.00  0.00    -0.265 OA
HETATM    6  C   UNL     1      41.334 -10.707   2.584  1.00  0.00     0.146 C 
ENDROOT
BRANCH   1   7
HETATM    7  C   UNL     1      40.853 -11.967   4.605  1.00  0.00     0.193 C 
HETATM    8  O   UNL     1      39.750 -12.181   5.107  1.00  0.00    -0.287 OA
BRANCH   7   9
HETATM    9  C   UNL     1      42.031 -11.799   5.484  1.00  0.00     0.015 A 
HETATM   10  C   UNL     1      43.084 -12.720   5.520  1.00  0.00     0.018 A 
HETATM   11  C   UNL     1      44.145 -12.535   6.414  1.00  0.00     0.038 A 
HETATM   12  C   UNL     1      44.141 -11.447   7.286  1.00  0.00     0.069 A 
HETATM   13  C   UNL     1      43.072 -10.556   7.289  1.00  0.00     0.038 A 
HETATM   14  C   UNL     1      42.022 -10.725   6.384  1.00  0.00     0.018 A 
BRANCH  12  15
HETATM   15  O   UNL     1      45.091 -11.290   8.252  1.00  0.00    -0.347 OA
BRANCH  15  16
HETATM   16  C   UNL     1      45.210  -9.948   8.746  1.00  0.00     0.120 C 
HETATM   17  C   UNL     1      46.410  -9.283   8.079  1.00  0.00     0.040 C 
HETATM   18  C   UNL     1      45.426 -10.038  10.254  1.00  0.00     0.040 C 
ENDBRANCH  15  16
ENDBRANCH  12  15
ENDBRANCH   7   9
ENDBRANCH   1   7
BRANCH   2  19
HETATM   19  C   UNL     1      41.433 -14.261   2.332  1.00  0.00    -0.030 A 
HETATM   20  C   UNL     1      40.720 -15.316   2.933  1.00  0.00     0.012 A 
HETATM   21  C   UNL     1      41.316 -16.561   3.146  1.00  0.00     0.037 A 
HETATM   22  C   UNL     1      42.645 -16.764   2.758  1.00  0.00     0.102 A 
HETATM   23  C   UNL     1      43.373 -15.727   2.160  1.00  0.00     0.037 A 
HETATM   24  C   UNL     1      42.765 -14.485   1.943  1.00  0.00     0.012 A 
BRANCH  22  25
HETATM   25  N   UNL     1      43.269 -18.079   2.960  1.00  0.00    -0.116 N 
HETATM   26  O   UNL     1      43.139 -18.915   2.056  1.00  0.00    -0.532 OA
HETATM   27  O   UNL     1      43.909 -18.253   4.004  1.00  0.00    -0.532 OA
ENDBRANCH  22  25
ENDBRANCH   2  19
BRANCH   6  28
HETATM   28  O   UNL     1      41.644  -9.522   3.182  1.00  0.00    -0.355 OA
HETATM   29  H   UNL     1      41.566  -9.651   4.158  1.00  0.00     0.218 HD
ENDBRANCH   6  28
BRANCH   3  30
HETATM   30  C   UNL     1      40.960 -12.793  -0.447  1.00  0.00     0.155 C 
BRANCH  30  31
HETATM   31  C   UNL     1      39.483 -13.216  -0.700  1.00  0.00     0.254 C 
BRANCH  31  32
HETATM   32  N   UNL     1      39.140 -13.312  -2.199  1.00  0.00    -0.066 N 
HETATM   33  H   UNL     1      39.470 -14.249  -2.482  1.00  0.00     0.280 HD
HETATM   34  C   UNL     1      39.935 -12.325  -3.066  1.00  0.00     0.262 C 
HETATM   35  C   UNL     1      39.326 -10.901  -3.062  1.00  0.00     0.260 C 
HETATM   36  N   UNL     1      37.865 -10.934  -3.430  1.00  0.00    -0.072 N 
HETATM   37  H   UNL     1      37.727 -11.171  -4.426  1.00  0.00     0.277 HD
HETATM   38  H   UNL     1      37.478  -9.977  -3.344  1.00  0.00     0.277 HD
HETATM   39  C   UNL     1      37.049 -11.843  -2.539  1.00  0.00     0.260 C 
HETATM   40  C   UNL     1      37.637 -13.277  -2.532  1.00  0.00     0.262 C 
ENDBRANCH  31  32
ENDBRANCH  30  31
ENDBRANCH   3  30
TORSDOF 10
ENDMDL
MODEL 5
REMARK VINA RESULT:      -8.0      1.636      2.180
REMARK  10 active torsions:
REMARK  status: ('A' for Active; 'I' for Inactive)
REMARK    1  A    between atoms: C_2  and  O_3 
REMARK    2  A    between atoms: O_3  and  C_4 
REMARK    3  A    between atoms: C_7  and  C_8 
REMARK    4  A    between atoms: C_8  and  C_9 
REMARK    5  A    between atoms: C_10  and  C_11 
REMARK    6  A    between atoms: C_14  and  N_15 
REMARK    7  A    between atoms: N_20  and  C_21 
REMARK    8  A    between atoms: C_21  and  C_22 
REMARK    9  A    between atoms: C_22  and  N_23 
REMARK   10  A    between atoms: C_34  and  O_35 
ROOT
HETATM    1  C   UNL     1      40.016 -12.589   2.592  1.00  0.00     0.059 C 
HETATM    2  C   UNL     1      40.891 -12.108   3.706  1.00  0.00     0.161 C 
HETATM    3  N   UNL     1      40.034 -11.101   4.338  1.00  0.00    -0.332 N 
HETATM    4  C   UNL     1      38.950 -10.822   3.521  1.00  0.00     0.278 C 
HETATM    5  O   UNL     1      38.202  -9.867   3.652  1.00  0.00    -0.265 OA
HETATM    6  C   UNL     1      38.891 -11.866   2.486  1.00  0.00     0.146 C 
ENDROOT
BRANCH   1   7
HETATM    7  C   UNL     1      40.213 -13.743   1.693  1.00  0.00     0.193 C 
HETATM    8  O   UNL     1      39.458 -13.871   0.729  1.00  0.00    -0.287 OA
BRANCH   7   9
HETATM    9  C   UNL     1      41.272 -14.750   1.926  1.00  0.00     0.015 A 
HETATM   10  C   UNL     1      42.592 -14.570   1.501  1.00  0.00     0.018 A 
HETATM   11  C   UNL     1      43.536 -15.583   1.702  1.00  0.00     0.038 A 
HETATM   12  C   UNL     1      43.155 -16.782   2.303  1.00  0.00     0.069 A 
HETATM   13  C   UNL     1      41.832 -16.987   2.682  1.00  0.00     0.038 A 
HETATM   14  C   UNL     1      40.892 -15.970   2.503  1.00  0.00     0.018 A 
BRANCH  12  15
HETATM   15  O   UNL     1      44.009 -17.841   2.413  1.00  0.00    -0.347 OA
BRANCH  15  16
HETATM   16  C   UNL     1      43.471 -18.957   3.138  1.00  0.00     0.120 C 
HETATM   17  C   UNL     1      44.311 -19.178   4.392  1.00  0.00     0.040 C 
HETATM   18  C   UNL     1      43.556 -20.175   2.222  1.00  0.00     0.040 C 
ENDBRANCH  15  16
ENDBRANCH  12  15
ENDBRANCH   7   9
ENDBRANCH   1   7
BRANCH   2  19
HETATM   19  C   UNL     1      41.373 -13.141   4.702  1.00  0.00    -0.030 A 
HETATM   20  C   UNL     1      42.758 -13.327   4.877  1.00  0.00     0.012 A 
HETATM   21  C   UNL     1      43.250 -14.258   5.796  1.00  0.00     0.037 A 
HETATM   22  C   UNL     1      42.353 -15.019   6.554  1.00  0.00     0.102 A 
HETATM   23  C   UNL     1      40.972 -14.850   6.393  1.00  0.00     0.037 A 
HETATM   24  C   UNL     1      40.488 -13.909   5.476  1.00  0.00     0.012 A 
BRANCH  22  25
HETATM   25  N   UNL     1      42.867 -15.983   7.536  1.00  0.00    -0.116 N 
HETATM   26  O   UNL     1      42.943 -17.168   7.185  1.00  0.00    -0.532 OA
HETATM   27  O   UNL     1      43.222 -15.543   8.636  1.00  0.00    -0.532 OA
ENDBRANCH  22  25
ENDBRANCH   2  19
BRANCH   6  28
HETATM   28  O   UNL     1      37.846 -12.006   1.621  1.00  0.00    -0.355 OA
HETATM   29  H   UNL     1      37.016 -11.824   2.123  1.00  0.00     0.218 HD
ENDBRANCH   6  28
BRANCH   3  30
HETATM   30  C   UNL     1      40.531 -10.138   5.315  1.00  0.00     0.155 C 
BRANCH  30  31
HETATM   31  C   UNL     1      39.942 -10.320   6.745  1.00  0.00     0.254 C 
BRANCH  31  32
HETATM   32  N   UNL     1      39.675  -8.978   7.454  1.00  0.00    -0.066 N 
HETATM   33  H   UNL     1      38.811  -8.620   7.015  1.00  0.00     0.280 HD
HETATM   34  C   UNL     1      40.746  -7.918   7.163  1.00  0.00     0.262 C 
HETATM   35  C   UNL     1      42.007  -8.083   8.047  1.00  0.00     0.260 C 
HETATM   36  N   UNL     1      41.643  -8.141   9.509  1.00  0.00    -0.072 N 
HETATM   37  H   UNL     1      41.315  -7.225   9.856  1.00  0.00     0.277 HD
HETATM   38  H   UNL     1      42.501  -8.326  10.058  1.00  0.00     0.277 HD
HETATM   39  C   UNL     1      40.646  -9.231   9.829  1.00  0.00     0.260 C 
HETATM   40  C   UNL     1      39.371  -9.081   8.960  1.00  0.00     0.262 C 
ENDBRANCH  31  32
ENDBRANCH  30  31
ENDBRANCH   3  30
TORSDOF 10
ENDMDL
MODEL 6
REMARK VINA RESULT:      -7.9      3.118      6.465
REMARK  10 active torsions:
REMARK  status: ('A' for Active; 'I' for Inactive)
REMARK    1  A    between atoms: C_2  and  O_3 
REMARK    2  A    between atoms: O_3  and  C_4 
REMARK    3  A    between atoms: C_7  and  C_8 
REMARK    4  A    between atoms: C_8  and  C_9 
REMARK    5  A    between atoms: C_10  and  C_11 
REMARK    6  A    between atoms: C_14  and  N_15 
REMARK    7  A    between atoms: N_20  and  C_21 
REMARK    8  A    between atoms: C_21  and  C_22 
REMARK    9  A    between atoms: C_22  and  N_23 
REMARK   10  A    between atoms: C_34  and  O_35 
ROOT
HETATM    1  C   UNL     1      40.936 -11.790   3.389  1.00  0.00     0.059 C 
HETATM    2  C   UNL     1      40.767 -12.707   2.219  1.00  0.00     0.161 C 
HETATM    3  N   UNL     1      41.431 -11.950   1.155  1.00  0.00    -0.332 N 
HETATM    4  C   UNL     1      41.674 -10.653   1.578  1.00  0.00     0.278 C 
HETATM    5  O   UNL     1      41.986  -9.726   0.848  1.00  0.00    -0.265 OA
HETATM    6  C   UNL     1      41.470 -10.612   3.034  1.00  0.00     0.146 C 
ENDROOT
BRANCH   1   7
HETATM    7  C   UNL     1      40.657 -12.050   4.815  1.00  0.00     0.193 C 
HETATM    8  O   UNL     1      39.843 -11.330   5.394  1.00  0.00    -0.287 OA
BRANCH   7   9
HETATM    9  C   UNL     1      41.335 -13.129   5.566  1.00  0.00     0.015 A 
HETATM   10  C   UNL     1      40.716 -14.349   5.859  1.00  0.00     0.018 A 
HETATM   11  C   UNL     1      41.390 -15.310   6.621  1.00  0.00     0.038 A 
HETATM   12  C   UNL     1      42.668 -15.042   7.110  1.00  0.00     0.069 A 
HETATM   13  C   UNL     1      43.269 -13.812   6.863  1.00  0.00     0.038 A 
HETATM   14  C   UNL     1      42.608 -12.858   6.086  1.00  0.00     0.018 A 
BRANCH  12  15
HETATM   15  O   UNL     1      43.315 -15.898   7.952  1.00  0.00    -0.347 OA
BRANCH  15  16
HETATM   16  C   UNL     1      44.138 -16.868   7.288  1.00  0.00     0.120 C 
HETATM   17  C   UNL     1      44.841 -16.193   6.114  1.00  0.00     0.040 C 
HETATM   18  C   UNL     1      43.217 -17.976   6.786  1.00  0.00     0.040 C 
ENDBRANCH  15  16
ENDBRANCH  12  15
ENDBRANCH   7   9
ENDBRANCH   1   7
BRANCH   2  19
HETATM   19  C   UNL     1      41.328 -14.106   2.349  1.00  0.00    -0.030 A 
HETATM   20  C   UNL     1      42.718 -14.274   2.497  1.00  0.00     0.012 A 
HETATM   21  C   UNL     1      43.281 -15.546   2.635  1.00  0.00     0.037 A 
HETATM   22  C   UNL     1      42.450 -16.672   2.624  1.00  0.00     0.102 A 
HETATM   23  C   UNL     1      41.065 -16.526   2.476  1.00  0.00     0.037 A 
HETATM   24  C   UNL     1      40.509 -15.248   2.347  1.00  0.00     0.012 A 
BRANCH  22  25
HETATM   25  N   UNL     1      43.036 -18.009   2.791  1.00  0.00    -0.116 N 
HETATM   26  O   UNL     1      44.015 -18.111   3.542  1.00  0.00    -0.532 OA
HETATM   27  O   UNL     1      42.493 -18.948   2.198  1.00  0.00    -0.532 OA
ENDBRANCH  22  25
ENDBRANCH   2  19
BRANCH   6  28
HETATM   28  O   UNL     1      41.796  -9.537   3.807  1.00  0.00    -0.355 OA
HETATM   29  H   UNL     1      40.990  -8.973   3.889  1.00  0.00     0.218 HD
ENDBRANCH   6  28
BRANCH   3  30
HETATM   30  C   UNL     1      41.304 -12.289  -0.258  1.00  0.00     0.155 C 
BRANCH  30  31
HETATM   31  C   UNL     1      39.956 -11.848  -0.901  1.00  0.00     0.254 C 
BRANCH  31  32
HETATM   32  N   UNL     1      38.866 -12.933  -0.802  1.00  0.00    -0.066 N 
HETATM   33  H   UNL     1      38.705 -13.048   0.212  1.00  0.00     0.280 HD
HETATM   34  C   UNL     1      39.337 -14.308  -1.295  1.00  0.00     0.262 C 
HETATM   35  C   UNL     1      39.272 -14.446  -2.836  1.00  0.00     0.260 C 
HETATM   36  N   UNL     1      37.903 -14.091  -3.357  1.00  0.00    -0.072 N 
HETATM   37  H   UNL     1      37.200 -14.801  -3.097  1.00  0.00     0.277 HD
HETATM   38  H   UNL     1      37.921 -14.123  -4.392  1.00  0.00     0.277 HD
HETATM   39  C   UNL     1      37.452 -12.707  -2.946  1.00  0.00     0.260 C 
HETATM   40  C   UNL     1      37.502 -12.549  -1.404  1.00  0.00     0.262 C 
ENDBRANCH  31  32
ENDBRANCH  30  31
ENDBRANCH   3  30
TORSDOF 10
ENDMDL
MODEL 7
REMARK VINA RESULT:      -7.8      2.092      2.766
REMARK  10 active torsions:
REMARK  status: ('A' for Active; 'I' for Inactive)
REMARK    1  A    between atoms: C_2  and  O_3 
REMARK    2  A    between atoms: O_3  and  C_4 
REMARK    3  A    between atoms: C_7  and  C_8 
REMARK    4  A    between atoms: C_8  and  C_9 
REMARK    5  A    between atoms: C_10  and  C_11 
REMARK    6  A    between atoms: C_14  and  N_15 
REMARK    7  A    between atoms: N_20  and  C_21 
REMARK    8  A    between atoms: C_21  and  C_22 
REMARK    9  A    between atoms: C_22  and  N_23 
REMARK   10  A    between atoms: C_34  and  O_35 
ROOT
HETATM    1  C   UNL     1      40.080 -12.334   1.420  1.00  0.00     0.059 C 
HETATM    2  C   UNL     1      40.640 -11.591   2.591  1.00  0.00     0.161 C 
HETATM    3  N   UNL     1      39.510 -10.734   2.961  1.00  0.00    -0.332 N 
HETATM    4  C   UNL     1      38.552 -10.756   1.961  1.00  0.00     0.278 C 
HETATM    5  O   UNL     1      37.625  -9.969   1.863  1.00  0.00    -0.265 OA
HETATM    6  C   UNL     1      38.874 -11.871   1.058  1.00  0.00     0.146 C 
ENDROOT
BRANCH   1   7
HETATM    7  C   UNL     1      40.648 -13.493   0.703  1.00  0.00     0.193 C 
HETATM    8  O   UNL     1      40.679 -13.463  -0.527  1.00  0.00    -0.287 OA
BRANCH   7   9
HETATM    9  C   UNL     1      41.158 -14.685   1.414  1.00  0.00     0.015 A 
HETATM   10  C   UNL     1      40.315 -15.612   2.037  1.00  0.00     0.018 A 
HETATM   11  C   UNL     1      40.860 -16.690   2.742  1.00  0.00     0.038 A 
HETATM   12  C   UNL     1      42.243 -16.828   2.846  1.00  0.00     0.069 A 
HETATM   13  C   UNL     1      43.087 -15.882   2.272  1.00  0.00     0.038 A 
HETATM   14  C   UNL     1      42.547 -14.816   1.549  1.00  0.00     0.018 A 
BRANCH  12  15
HETATM   15  O   UNL     1      42.819 -17.794   3.619  1.00  0.00    -0.347 OA
BRANCH  15  16
HETATM   16  C   UNL     1      43.881 -18.509   2.972  1.00  0.00     0.120 C 
HETATM   17  C   UNL     1      43.277 -19.629   2.130  1.00  0.00     0.040 C 
HETATM   18  C   UNL     1      44.769 -19.091   4.068  1.00  0.00     0.040 C 
ENDBRANCH  15  16
ENDBRANCH  12  15
ENDBRANCH   7   9
ENDBRANCH   1   7
BRANCH   2  19
HETATM   19  C   UNL     1      41.130 -12.414   3.763  1.00  0.00    -0.030 A 
HETATM   20  C   UNL     1      40.203 -13.178   4.497  1.00  0.00     0.012 A 
HETATM   21  C   UNL     1      40.610 -13.964   5.578  1.00  0.00     0.037 A 
HETATM   22  C   UNL     1      41.962 -13.992   5.939  1.00  0.00     0.102 A 
HETATM   23  C   UNL     1      42.900 -13.238   5.222  1.00  0.00     0.037 A 
HETATM   24  C   UNL     1      42.484 -12.460   4.136  1.00  0.00     0.012 A 
BRANCH  22  25
HETATM   25  N   UNL     1      42.397 -14.835   7.060  1.00  0.00    -0.116 N 
HETATM   26  O   UNL     1      43.346 -14.427   7.744  1.00  0.00    -0.532 OA
HETATM   27  O   UNL     1      41.768 -15.880   7.268  1.00  0.00    -0.532 OA
ENDBRANCH  22  25
ENDBRANCH   2  19
BRANCH   6  28
HETATM   28  O   UNL     1      38.042 -12.297   0.065  1.00  0.00    -0.355 OA
HETATM   29  H   UNL     1      37.736 -11.500  -0.430  1.00  0.00     0.218 HD
ENDBRANCH   6  28
BRANCH   3  30
HETATM   30  C   UNL     1      39.636  -9.611   3.884  1.00  0.00     0.155 C 
BRANCH  30  31
HETATM   31  C   UNL     1      38.940  -9.834   5.259  1.00  0.00     0.254 C 
BRANCH  31  32
HETATM   32  N   UNL     1      39.935 -10.192   6.379  1.00  0.00    -0.066 N 
HETATM   33  H   UNL     1      40.063 -11.214   6.296  1.00  0.00     0.280 HD
HETATM   34  C   UNL     1      39.365  -9.970   7.787  1.00  0.00     0.262 C 
HETATM   35  C   UNL     1      39.452  -8.493   8.242  1.00  0.00     0.260 C 
HETATM   36  N   UNL     1      40.858  -7.964   8.105  1.00  0.00    -0.072 N 
HETATM   37  H   UNL     1      41.494  -8.389   8.799  1.00  0.00     0.277 HD
HETATM   38  H   UNL     1      40.859  -6.957   8.347  1.00  0.00     0.277 HD
HETATM   39  C   UNL     1      41.410  -8.103   6.705  1.00  0.00     0.260 C 
HETATM   40  C   UNL     1      41.338  -9.578   6.231  1.00  0.00     0.262 C 
ENDBRANCH  31  32
ENDBRANCH  30  31
ENDBRANCH   3  30
TORSDOF 10
ENDMDL
MODEL 8
REMARK VINA RESULT:      -7.6      2.399      4.787
REMARK  10 active torsions:
REMARK  status: ('A' for Active; 'I' for Inactive)
REMARK    1  A    between atoms: C_2  and  O_3 
REMARK    2  A    between atoms: O_3  and  C_4 
REMARK    3  A    between atoms: C_7  and  C_8 
REMARK    4  A    between atoms: C_8  and  C_9 
REMARK    5  A    between atoms: C_10  and  C_11 
REMARK    6  A    between atoms: C_14  and  N_15 
REMARK    7  A    between atoms: N_20  and  C_21 
REMARK    8  A    between atoms: C_21  and  C_22 
REMARK    9  A    between atoms: C_22  and  N_23 
REMARK   10  A    between atoms: C_34  and  O_35 
ROOT
HETATM    1  C   UNL     1      42.319 -13.374   5.988  1.00  0.00     0.059 C 
HETATM    2  C   UNL     1      41.486 -12.352   5.283  1.00  0.00     0.161 C 
HETATM    3  N   UNL     1      42.382 -11.192   5.286  1.00  0.00    -0.332 N 
HETATM    4  C   UNL     1      43.449 -11.420   6.140  1.00  0.00     0.278 C 
HETATM    5  O   UNL     1      44.222 -10.565   6.540  1.00  0.00    -0.265 OA
HETATM    6  C   UNL     1      43.457 -12.853   6.472  1.00  0.00     0.146 C 
ENDROOT
BRANCH   1   7
HETATM    7  C   UNL     1      42.071 -14.821   6.143  1.00  0.00     0.193 C 
HETATM    8  O   UNL     1      41.352 -15.197   7.068  1.00  0.00    -0.287 OA
BRANCH   7   9
HETATM    9  C   UNL     1      42.672 -15.824   5.236  1.00  0.00     0.015 A 
HETATM   10  C   UNL     1      42.142 -16.115   3.974  1.00  0.00     0.018 A 
HETATM   11  C   UNL     1      42.723 -17.114   3.185  1.00  0.00     0.038 A 
HETATM   12  C   UNL     1      43.814 -17.837   3.666  1.00  0.00     0.069 A 
HETATM   13  C   UNL     1      44.314 -17.586   4.941  1.00  0.00     0.038 A 
HETATM   14  C   UNL     1      43.751 -16.576   5.723  1.00  0.00     0.018 A 
BRANCH  12  15
HETATM   15  O   UNL     1      44.339 -18.896   2.985  1.00  0.00    -0.347 OA
BRANCH  15  16
HETATM   16  C   UNL     1      43.462 -20.029   2.894  1.00  0.00     0.120 C 
HETATM   17  C   UNL     1      43.935 -21.095   3.876  1.00  0.00     0.040 C 
HETATM   18  C   UNL     1      43.547 -20.553   1.463  1.00  0.00     0.040 C 
ENDBRANCH  15  16
ENDBRANCH  12  15
ENDBRANCH   7   9
ENDBRANCH   1   7
BRANCH   2  19
HETATM   19  C   UNL     1      41.008 -12.689   3.888  1.00  0.00    -0.030 A 
HETATM   20  C   UNL     1      41.947 -12.750   2.839  1.00  0.00     0.012 A 
HETATM   21  C   UNL     1      41.554 -13.073   1.538  1.00  0.00     0.037 A 
HETATM   22  C   UNL     1      40.207 -13.338   1.270  1.00  0.00     0.102 A 
HETATM   23  C   UNL     1      39.258 -13.281   2.298  1.00  0.00     0.037 A 
HETATM   24  C   UNL     1      39.661 -12.965   3.601  1.00  0.00     0.012 A 
BRANCH  22  25
HETATM   25  N   UNL     1      39.795 -13.699  -0.093  1.00  0.00    -0.116 N 
HETATM   26  O   UNL     1      39.533 -12.774  -0.873  1.00  0.00    -0.532 OA
HETATM   27  O   UNL     1      39.768 -14.902  -0.382  1.00  0.00    -0.532 OA
ENDBRANCH  22  25
ENDBRANCH   2  19
BRANCH   6  28
HETATM   28  O   UNL     1      44.474 -13.462   7.146  1.00  0.00    -0.355 OA
HETATM   29  H   UNL     1      44.237 -13.465   8.104  1.00  0.00     0.218 HD
ENDBRANCH   6  28
BRANCH   3  30
HETATM   30  C   UNL     1      41.935  -9.843   4.956  1.00  0.00     0.155 C 
BRANCH  30  31
HETATM   31  C   UNL     1      40.544  -9.469   5.548  1.00  0.00     0.254 C 
BRANCH  31  32
HETATM   32  N   UNL     1      40.579  -8.169   6.374  1.00  0.00    -0.066 N 
HETATM   33  H   UNL     1      40.551  -7.413   5.671  1.00  0.00     0.280 HD
HETATM   34  C   UNL     1      41.901  -7.969   7.130  1.00  0.00     0.262 C 
HETATM   35  C   UNL     1      41.957  -8.763   8.458  1.00  0.00     0.260 C 
HETATM   36  N   UNL     1      40.756  -8.467   9.320  1.00  0.00    -0.072 N 
HETATM   37  H   UNL     1      40.787  -7.507   9.699  1.00  0.00     0.277 HD
HETATM   38  H   UNL     1      40.793  -9.071  10.161  1.00  0.00     0.277 HD
HETATM   39  C   UNL     1      39.443  -8.732   8.619  1.00  0.00     0.260 C 
HETATM   40  C   UNL     1      39.362  -7.941   7.289  1.00  0.00     0.262 C 
ENDBRANCH  31  32
ENDBRANCH  30  31
ENDBRANCH   3  30
TORSDOF 10
ENDMDL
MODEL 9
REMARK VINA RESULT:      -7.5      3.627      5.787
REMARK  10 active torsions:
REMARK  status: ('A' for Active; 'I' for Inactive)
REMARK    1  A    between atoms: C_2  and  O_3 
REMARK    2  A    between atoms: O_3  and  C_4 
REMARK    3  A    between atoms: C_7  and  C_8 
REMARK    4  A    between atoms: C_8  and  C_9 
REMARK    5  A    between atoms: C_10  and  C_11 
REMARK    6  A    between atoms: C_14  and  N_15 
REMARK    7  A    between atoms: N_20  and  C_21 
REMARK    8  A    between atoms: C_21  and  C_22 
REMARK    9  A    between atoms: C_22  and  N_23 
REMARK   10  A    between atoms: C_34  and  O_35 
ROOT
HETATM    1  C   UNL     1      40.436 -14.164   0.282  1.00  0.00     0.059 C 
HETATM    2  C   UNL     1      41.172 -12.955   0.766  1.00  0.00     0.161 C 
HETATM    3  N   UNL     1      40.735 -11.942  -0.198  1.00  0.00    -0.332 N 
HETATM    4  C   UNL     1      40.089 -12.548  -1.263  1.00  0.00     0.278 C 
HETATM    5  O   UNL     1      39.831 -12.007  -2.326  1.00  0.00    -0.265 OA
HETATM    6  C   UNL     1      39.797 -13.937  -0.876  1.00  0.00     0.146 C 
ENDROOT
BRANCH   1   7
HETATM    7  C   UNL     1      40.290 -15.480   0.934  1.00  0.00     0.193 C 
HETATM    8  O   UNL     1      39.424 -16.249   0.517  1.00  0.00    -0.287 OA
BRANCH   7   9
HETATM    9  C   UNL     1      41.136 -15.890   2.077  1.00  0.00     0.015 A 
HETATM   10  C   UNL     1      40.661 -15.928   3.393  1.00  0.00     0.018 A 
HETATM   11  C   UNL     1      41.526 -16.271   4.438  1.00  0.00     0.038 A 
HETATM   12  C   UNL     1      42.866 -16.551   4.173  1.00  0.00     0.069 A 
HETATM   13  C   UNL     1      43.355 -16.466   2.872  1.00  0.00     0.038 A 
HETATM   14  C   UNL     1      42.491 -16.145   1.824  1.00  0.00     0.018 A 
BRANCH  12  15
HETATM   15  O   UNL     1      43.770 -16.774   5.169  1.00  0.00    -0.347 OA
BRANCH  15  16
HETATM   16  C   UNL     1      43.214 -17.389   6.341  1.00  0.00     0.120 C 
HETATM   17  C   UNL     1      43.853 -16.760   7.575  1.00  0.00     0.040 C 
HETATM   18  C   UNL     1      43.547 -18.877   6.273  1.00  0.00     0.040 C 
ENDBRANCH  15  16
ENDBRANCH  12  15
ENDBRANCH   7   9
ENDBRANCH   1   7
BRANCH   2  19
HETATM   19  C   UNL     1      40.923 -12.518   2.193  1.00  0.00    -0.030 A 
HETATM   20  C   UNL     1      39.610 -12.208   2.595  1.00  0.00     0.012 A 
HETATM   21  C   UNL     1      39.330 -11.814   3.906  1.00  0.00     0.037 A 
HETATM   22  C   UNL     1      40.371 -11.724   4.835  1.00  0.00     0.102 A 
HETATM   23  C   UNL     1      41.686 -12.026   4.455  1.00  0.00     0.037 A 
HETATM   24  C   UNL     1      41.956 -12.428   3.142  1.00  0.00     0.012 A 
BRANCH  22  25
HETATM   25  N   UNL     1      40.078 -11.331   6.220  1.00  0.00    -0.116 N 
HETATM   26  O   UNL     1      39.083 -11.837   6.756  1.00  0.00    -0.532 OA
HETATM   27  O   UNL     1      40.861 -10.548   6.771  1.00  0.00    -0.532 OA
ENDBRANCH  22  25
ENDBRANCH   2  19
BRANCH   6  28
HETATM   28  O   UNL     1      39.010 -14.772  -1.613  1.00  0.00    -0.355 OA
HETATM   29  H   UNL     1      38.160 -14.887  -1.125  1.00  0.00     0.218 HD
ENDBRANCH   6  28
BRANCH   3  30
HETATM   30  C   UNL     1      41.384 -10.641  -0.330  1.00  0.00     0.155 C 
BRANCH  30  31
HETATM   31  C   UNL     1      40.472  -9.433   0.034  1.00  0.00     0.254 C 
BRANCH  31  32
HETATM   32  N   UNL     1      40.486  -8.331  -1.041  1.00  0.00    -0.066 N 
HETATM   33  H   UNL     1      39.744  -8.605  -1.705  1.00  0.00     0.280 HD
HETATM   34  C   UNL     1      41.779  -8.309  -1.868  1.00  0.00     0.262 C 
HETATM   35  C   UNL     1      42.934  -7.565  -1.153  1.00  0.00     0.260 C 
HETATM   36  N   UNL     1      42.508  -6.184  -0.724  1.00  0.00    -0.072 N 
HETATM   37  H   UNL     1      42.381  -5.556  -1.534  1.00  0.00     0.277 HD
HETATM   38  H   UNL     1      43.280  -5.750  -0.187  1.00  0.00     0.277 HD
HETATM   39  C   UNL     1      41.279  -6.189   0.156  1.00  0.00     0.260 C 
HETATM   40  C   UNL     1      40.106  -6.924  -0.544  1.00  0.00     0.262 C 
ENDBRANCH  31  32
ENDBRANCH  30  31
ENDBRANCH   3  30
TORSDOF 10
ENDMDL
MODEL 10
REMARK VINA RESULT:      -7.4      3.230      5.642
REMARK  10 active torsions:
REMARK  status: ('A' for Active; 'I' for Inactive)
REMARK    1  A    between atoms: C_2  and  O_3 
REMARK    2  A    between atoms: O_3  and  C_4 
REMARK    3  A    between atoms: C_7  and  C_8 
REMARK    4  A    between atoms: C_8  and  C_9 
REMARK    5  A    between atoms: C_10  and  C_11 
REMARK    6  A    between atoms: C_14  and  N_15 
REMARK    7  A    between atoms: N_20  and  C_21 
REMARK    8  A    between atoms: C_21  and  C_22 
REMARK    9  A    between atoms: C_22  and  N_23 
REMARK   10  A    between atoms: C_34  and  O_35 
ROOT
HETATM    1  C   UNL     1      40.666 -13.270  -0.110  1.00  0.00     0.059 C 
HETATM    2  C   UNL     1      41.196 -12.120   0.686  1.00  0.00     0.161 C 
HETATM    3  N   UNL     1      41.029 -11.011  -0.257  1.00  0.00    -0.332 N 
HETATM    4  C   UNL     1      40.737 -11.502  -1.519  1.00  0.00     0.278 C 
HETATM    5  O   UNL     1      40.783 -10.853  -2.551  1.00  0.00    -0.265 OA
HETATM    6  C   UNL     1      40.385 -12.923  -1.375  1.00  0.00     0.146 C 
ENDROOT
BRANCH   1   7
HETATM    7  C   UNL     1      40.375 -14.647   0.337  1.00  0.00     0.193 C 
HETATM    8  O   UNL     1      39.560 -15.311  -0.304  1.00  0.00    -0.287 OA
BRANCH   7   9
HETATM    9  C   UNL     1      41.016 -15.239   1.531  1.00  0.00     0.015 A 
HETATM   10  C   UNL     1      42.347 -15.673   1.538  1.00  0.00     0.018 A 
HETATM   11  C   UNL     1      42.880 -16.276   2.682  1.00  0.00     0.038 A 
HETATM   12  C   UNL     1      42.079 -16.468   3.808  1.00  0.00     0.069 A 
HETATM   13  C   UNL     1      40.742 -16.083   3.790  1.00  0.00     0.038 A 
HETATM   14  C   UNL     1      40.211 -15.462   2.657  1.00  0.00     0.018 A 
BRANCH  12  15
HETATM   15  O   UNL     1      42.519 -17.154   4.901  1.00  0.00    -0.347 OA
BRANCH  15  16
HETATM   16  C   UNL     1      43.935 -17.389   4.918  1.00  0.00     0.120 C 
HETATM   17  C   UNL     1      44.182 -18.891   5.014  1.00  0.00     0.040 C 
HETATM   18  C   UNL     1      44.497 -16.680   6.147  1.00  0.00     0.040 C 
ENDBRANCH  15  16
ENDBRANCH  12  15
ENDBRANCH   7   9
ENDBRANCH   1   7
BRANCH   2  19
HETATM   19  C   UNL     1      40.532 -11.833   2.015  1.00  0.00    -0.030 A 
HETATM   20  C   UNL     1      41.316 -11.826   3.185  1.00  0.00     0.012 A 
HETATM   21  C   UNL     1      40.749 -11.551   4.432  1.00  0.00     0.037 A 
HETATM   22  C   UNL     1      39.379 -11.281   4.522  1.00  0.00     0.102 A 
HETATM   23  C   UNL     1      38.582 -11.284   3.370  1.00  0.00     0.037 A 
HETATM   24  C   UNL     1      39.159 -11.552   2.124  1.00  0.00     0.012 A 
BRANCH  22  25
HETATM   25  N   UNL     1      38.784 -10.970   5.829  1.00  0.00    -0.116 N 
HETATM   26  O   UNL     1      38.127  -9.924   5.920  1.00  0.00    -0.532 OA
HETATM   27  O   UNL     1      38.950 -11.788   6.741  1.00  0.00    -0.532 OA
ENDBRANCH  22  25
ENDBRANCH   2  19
BRANCH   6  28
HETATM   28  O   UNL     1      39.870 -13.675  -2.389  1.00  0.00    -0.355 OA
HETATM   29  H   UNL     1      40.123 -14.615  -2.222  1.00  0.00     0.218 HD
ENDBRANCH   6  28
BRANCH   3  30
HETATM   30  C   UNL     1      41.651  -9.705  -0.063  1.00  0.00     0.155 C 
BRANCH  30  31
HETATM   31  C   UNL     1      40.638  -8.539   0.131  1.00  0.00     0.254 C 
BRANCH  31  32
HETATM   32  N   UNL     1      41.028  -7.599   1.288  1.00  0.00    -0.066 N 
HETATM   33  H   UNL     1      42.059  -7.653   1.331  1.00  0.00     0.280 HD
HETATM   34  C   UNL     1      40.540  -8.090   2.658  1.00  0.00     0.262 C 
HETATM   35  C   UNL     1      39.057  -7.735   2.927  1.00  0.00     0.260 C 
HETATM   36  N   UNL     1      38.806  -6.262   2.727  1.00  0.00    -0.072 N 
HETATM   37  H   UNL     1      39.250  -5.696   3.468  1.00  0.00     0.277 HD
HETATM   38  H   UNL     1      37.793  -6.078   2.843  1.00  0.00     0.277 HD
HETATM   39  C   UNL     1      39.209  -5.773   1.355  1.00  0.00     0.260 C 
HETATM   40  C   UNL     1      40.694  -6.112   1.066  1.00  0.00     0.262 C 
ENDBRANCH  31  32
ENDBRANCH  30  31
ENDBRANCH   3  30
TORSDOF 10
ENDMDL
