MODEL 1
REMARK VINA RESULT:      -9.5      0.000      0.000
REMARK  8 active torsions:
REMARK  status: ('A' for Active; 'I' for Inactive)
REMARK    1  A    between atoms: C_3  and  S_4 
REMARK    2  A    between atoms: S_4  and  C_5 
REMARK    3  A    between atoms: C_5  and  C_6 
REMARK       I    between atoms: C_6  and  N_7 
REMARK    4  A    between atoms: N_7  and  C_8 
REMARK    5  A    between atoms: C_8  and  C_9 
REMARK    6  A    between atoms: C_18  and  C_19 
REMARK    7  A    between atoms: C_19  and  O_20 
REMARK    8  A    between atoms: O_20  and  C_21 
ROOT
HETATM    1  C   UNL     1      41.310 -11.413   6.045  1.00  0.00     0.160 C 
HETATM    2  N   UNL     1      42.671 -11.670   6.440  1.00  0.00    -0.314 N 
HETATM    3  C   UNL     1      43.483 -10.886   7.210  1.00  0.00     0.191 A 
HETATM    4  N   UNL     1      44.644 -11.474   7.372  1.00  0.00    -0.123 NA
HETATM    5  N   UNL     1      44.621 -12.651   6.670  1.00  0.00    -0.132 NA
HETATM    6  C   UNL     1      43.432 -12.769   6.107  1.00  0.00     0.154 A 
ENDROOT
BRANCH   3   7
HETATM    7  S   UNL     1      43.045  -9.332   7.822  1.00  0.00    -0.081 SA
BRANCH   7   8
HETATM    8  C   UNL     1      44.340  -9.065   9.067  1.00  0.00     0.185 C 
BRANCH   8   9
HETATM    9  C   UNL     1      44.092  -9.855  10.342  1.00  0.00     0.227 C 
HETATM   10  N   UNL     1      42.854  -9.679  10.911  1.00  0.00    -0.356 N 
HETATM   11  H   UNL     1      42.208  -9.028  10.469  1.00  0.00     0.162 HD
HETATM   12  O   UNL     1      44.971 -10.548  10.852  1.00  0.00    -0.273 OA
BRANCH  10  13
HETATM   13  C   UNL     1      42.512 -10.200  12.213  1.00  0.00     0.161 C 
BRANCH  13  14
HETATM   14  C   UNL     1      42.427  -9.118  13.260  1.00  0.00    -0.041 A 
HETATM   15  C   UNL     1      43.300  -8.020  13.206  1.00  0.00     0.009 A 
HETATM   16  C   UNL     1      43.212  -6.994  14.149  1.00  0.00     0.001 A 
HETATM   17  C   UNL     1      42.251  -7.051  15.156  1.00  0.00     0.000 A 
HETATM   18  C   UNL     1      41.377  -8.134  15.220  1.00  0.00     0.001 A 
HETATM   19  C   UNL     1      41.459  -9.159  14.276  1.00  0.00     0.009 A 
ENDBRANCH  13  14
ENDBRANCH  10  13
ENDBRANCH   8   9
ENDBRANCH   7   8
ENDBRANCH   3   7
BRANCH   6  20
HETATM   20  C   UNL     1      42.981 -13.888   5.235  1.00  0.00     0.256 C 
BRANCH  20  21
HETATM   21  O   UNL     1      43.577 -15.076   5.758  1.00  0.00    -0.344 OA
BRANCH  21  22
HETATM   22  C   UNL     1      43.511 -16.169   4.937  1.00  0.00     0.069 A 
HETATM   23  C   UNL     1      43.935 -17.454   5.282  1.00  0.00     0.044 A 
HETATM   24  C   UNL     1      43.832 -18.511   4.361  1.00  0.00    -0.049 A 
HETATM   25  C   UNL     1      43.327 -18.264   3.072  1.00  0.00    -0.052 A 
HETATM   26  C   UNL     1      44.335 -19.878   4.757  1.00  0.00     0.039 C 
HETATM   27  C   UNL     1      43.161 -19.373   2.061  1.00  0.00     0.039 C 
HETATM   28  C   UNL     1      42.912 -16.968   2.735  1.00  0.00     0.010 A 
HETATM   29  C   UNL     1      43.997 -20.610   2.385  1.00  0.00     0.005 C 
HETATM   30  C   UNL     1      43.830 -20.997   3.848  1.00  0.00     0.005 C 
HETATM   31  C   UNL     1      43.017 -15.927   3.658  1.00  0.00     0.037 A 
ENDBRANCH  21  22
ENDBRANCH  20  21
ENDBRANCH   6  20
TORSDOF 8
ENDMDL
MODEL 2
REMARK VINA RESULT:      -9.5      2.989      4.278
REMARK  8 active torsions:
REMARK  status: ('A' for Active; 'I' for Inactive)
REMARK    1  A    between atoms: C_3  and  S_4 
REMARK    2  A    between atoms: S_4  and  C_5 
REMARK    3  A    between atoms: C_5  and  C_6 
REMARK       I    between atoms: C_6  and  N_7 
REMARK    4  A    between atoms: N_7  and  C_8 
REMARK    5  A    between atoms: C_8  and  C_9 
REMARK    6  A    between atoms: C_18  and  C_19 
REMARK    7  A    between atoms: C_19  and  O_20 
REMARK    8  A    between atoms: O_20  and  C_21 
ROOT
HETATM    1  C   UNL     1      42.033 -10.949   4.872  1.00  0.00     0.160 C 
HETATM    2  N   UNL     1      41.266 -12.009   5.473  1.00  0.00    -0.314 N 
HETATM    3  C   UNL     1      40.006 -11.939   5.995  1.00  0.00     0.191 A 
HETATM    4  N   UNL     1      39.637 -13.124   6.424  1.00  0.00    -0.123 NA
HETATM    5  N   UNL     1      40.681 -13.988   6.220  1.00  0.00    -0.132 NA
HETATM    6  C   UNL     1      41.664 -13.316   5.648  1.00  0.00     0.154 A 
ENDROOT
BRANCH   3   7
HETATM    7  S   UNL     1      39.074 -10.490   6.111  1.00  0.00    -0.081 SA
BRANCH   7   8
HETATM    8  C   UNL     1      39.378 -10.011   7.836  1.00  0.00     0.185 C 
BRANCH   8   9
HETATM    9  C   UNL     1      40.698  -9.277   8.011  1.00  0.00     0.227 C 
HETATM   10  N   UNL     1      41.514  -9.762   9.004  1.00  0.00    -0.356 N 
HETATM   11  H   UNL     1      41.180 -10.546   9.563  1.00  0.00     0.162 HD
HETATM   12  O   UNL     1      40.974  -8.280   7.345  1.00  0.00    -0.273 OA
BRANCH  10  13
HETATM   13  C   UNL     1      42.712  -9.082   9.433  1.00  0.00     0.161 C 
BRANCH  13  14
HETATM   14  C   UNL     1      43.944  -9.588   8.725  1.00  0.00    -0.041 A 
HETATM   15  C   UNL     1      45.112  -8.810   8.704  1.00  0.00     0.009 A 
HETATM   16  C   UNL     1      46.270  -9.280   8.082  1.00  0.00     0.001 A 
HETATM   17  C   UNL     1      46.276 -10.533   7.472  1.00  0.00     0.000 A 
HETATM   18  C   UNL     1      45.126 -11.317   7.487  1.00  0.00     0.001 A 
HETATM   19  C   UNL     1      43.967 -10.852   8.114  1.00  0.00     0.009 A 
ENDBRANCH  13  14
ENDBRANCH  10  13
ENDBRANCH   8   9
ENDBRANCH   7   8
ENDBRANCH   3   7
BRANCH   6  20
HETATM   20  C   UNL     1      42.996 -13.863   5.269  1.00  0.00     0.256 C 
BRANCH  20  21
HETATM   21  O   UNL     1      42.807 -14.584   4.051  1.00  0.00    -0.344 OA
BRANCH  21  22
HETATM   22  C   UNL     1      43.166 -15.904   4.096  1.00  0.00     0.069 A 
HETATM   23  C   UNL     1      42.961 -16.823   3.065  1.00  0.00     0.044 A 
HETATM   24  C   UNL     1      43.359 -18.163   3.214  1.00  0.00    -0.049 A 
HETATM   25  C   UNL     1      43.941 -18.586   4.423  1.00  0.00    -0.052 A 
HETATM   26  C   UNL     1      43.086 -19.136   2.092  1.00  0.00     0.039 C 
HETATM   27  C   UNL     1      44.419 -20.004   4.616  1.00  0.00     0.039 C 
HETATM   28  C   UNL     1      44.134 -17.655   5.453  1.00  0.00     0.010 A 
HETATM   29  C   UNL     1      43.805 -20.987   3.621  1.00  0.00     0.005 C 
HETATM   30  C   UNL     1      43.888 -20.432   2.205  1.00  0.00     0.005 C 
HETATM   31  C   UNL     1      43.737 -16.328   5.293  1.00  0.00     0.037 A 
ENDBRANCH  21  22
ENDBRANCH  20  21
ENDBRANCH   6  20
TORSDOF 8
ENDMDL
MODEL 3
REMARK VINA RESULT:      -9.4      1.094      1.776
REMARK  8 active torsions:
REMARK  status: ('A' for Active; 'I' for Inactive)
REMARK    1  A    between atoms: C_3  and  S_4 
REMARK    2  A    between atoms: S_4  and  C_5 
REMARK    3  A    between atoms: C_5  and  C_6 
REMARK       I    between atoms: C_6  and  N_7 
REMARK    4  A    between atoms: N_7  and  C_8 
REMARK    5  A    between atoms: C_8  and  C_9 
REMARK    6  A    between atoms: C_18  and  C_19 
REMARK    7  A    between atoms: C_19  and  O_20 
REMARK    8  A    between atoms: O_20  and  C_21 
ROOT
HETATM    1  C   UNL     1      42.216 -10.117   7.014  1.00  0.00     0.160 C 
HETATM    2  N   UNL     1      43.513 -10.733   6.911  1.00  0.00    -0.314 N 
HETATM    3  C   UNL     1      44.669 -10.362   7.538  1.00  0.00     0.191 A 
HETATM    4  N   UNL     1      45.635 -11.189   7.213  1.00  0.00    -0.123 NA
HETATM    5  N   UNL     1      45.126 -12.102   6.327  1.00  0.00    -0.132 NA
HETATM    6  C   UNL     1      43.847 -11.827   6.144  1.00  0.00     0.154 A 
ENDROOT
BRANCH   3   7
HETATM    7  S   UNL     1      44.827  -8.979   8.559  1.00  0.00    -0.081 SA
BRANCH   7   8
HETATM    8  C   UNL     1      45.374  -9.745  10.111  1.00  0.00     0.185 C 
BRANCH   8   9
HETATM    9  C   UNL     1      44.211 -10.243  10.955  1.00  0.00     0.227 C 
HETATM   10  N   UNL     1      43.121  -9.408  11.005  1.00  0.00    -0.356 N 
HETATM   11  H   UNL     1      43.170  -8.520  10.509  1.00  0.00     0.162 HD
HETATM   12  O   UNL     1      44.282 -11.292  11.594  1.00  0.00    -0.273 OA
BRANCH  10  13
HETATM   13  C   UNL     1      42.009  -9.629  11.899  1.00  0.00     0.161 C 
BRANCH  13  14
HETATM   14  C   UNL     1      42.113  -8.806  13.158  1.00  0.00    -0.041 A 
HETATM   15  C   UNL     1      43.074  -7.788  13.254  1.00  0.00     0.009 A 
HETATM   16  C   UNL     1      43.160  -6.995  14.401  1.00  0.00     0.001 A 
HETATM   17  C   UNL     1      42.287  -7.210  15.465  1.00  0.00     0.000 A 
HETATM   18  C   UNL     1      41.326  -8.215  15.383  1.00  0.00     0.001 A 
HETATM   19  C   UNL     1      41.235  -9.005  14.235  1.00  0.00     0.009 A 
ENDBRANCH  13  14
ENDBRANCH  10  13
ENDBRANCH   8   9
ENDBRANCH   7   8
ENDBRANCH   3   7
BRANCH   6  20
HETATM   20  C   UNL     1      42.913 -12.557   5.243  1.00  0.00     0.256 C 
BRANCH  20  21
HETATM   21  O   UNL     1      42.463 -13.703   5.966  1.00  0.00    -0.344 OA
BRANCH  21  22
HETATM   22  C   UNL     1      42.914 -14.904   5.492  1.00  0.00     0.069 A 
HETATM   23  C   UNL     1      42.469 -15.520   4.321  1.00  0.00     0.044 A 
HETATM   24  C   UNL     1      42.992 -16.763   3.924  1.00  0.00    -0.049 A 
HETATM   25  C   UNL     1      43.948 -17.405   4.732  1.00  0.00    -0.052 A 
HETATM   26  C   UNL     1      42.458 -17.415   2.671  1.00  0.00     0.039 C 
HETATM   27  C   UNL     1      44.566 -18.722   4.329  1.00  0.00     0.039 C 
HETATM   28  C   UNL     1      44.381 -16.781   5.910  1.00  0.00     0.010 A 
HETATM   29  C   UNL     1      43.749 -19.474   3.280  1.00  0.00     0.005 C 
HETATM   30  C   UNL     1      43.349 -18.540   2.146  1.00  0.00     0.005 C 
HETATM   31  C   UNL     1      43.857 -15.546   6.292  1.00  0.00     0.037 A 
ENDBRANCH  21  22
ENDBRANCH  20  21
ENDBRANCH   6  20
TORSDOF 8
ENDMDL
MODEL 4
REMARK VINA RESULT:      -9.4      1.439      2.145
REMARK  8 active torsions:
REMARK  status: ('A' for Active; 'I' for Inactive)
REMARK    1  A    between atoms: C_3  and  S_4 
REMARK    2  A    between atoms: S_4  and  C_5 
REMARK    3  A    between atoms: C_5  and  C_6 
REMARK       I    between atoms: C_6  and  N_7 
REMARK    4  A    between atoms: N_7  and  C_8 
REMARK    5  A    between atoms: C_8  and  C_9 
REMARK    6  A    between atoms: C_18  and  C_19 
REMARK    7  A    between atoms: C_19  and  O_20 
REMARK    8  A    between atoms: O_20  and  C_21 
ROOT
HETATM    1  C   UNL     1      43.348 -13.605   6.937  1.00  0.00     0.160 C 
HETATM    2  N   UNL     1      43.644 -12.778   5.796  1.00  0.00    -0.314 N 
HETATM    3  C   UNL     1      44.446 -11.673   5.748  1.00  0.00     0.191 A 
HETATM    4  N   UNL     1      44.490 -11.209   4.520  1.00  0.00    -0.123 NA
HETATM    5  N   UNL     1      43.676 -11.993   3.747  1.00  0.00    -0.132 NA
HETATM    6  C   UNL     1      43.164 -12.938   4.515  1.00  0.00     0.154 A 
ENDROOT
BRANCH   3   7
HETATM    7  S   UNL     1      45.233 -10.976   7.118  1.00  0.00    -0.081 SA
BRANCH   7   8
HETATM    8  C   UNL     1      43.812 -10.368   8.071  1.00  0.00     0.185 C 
BRANCH   8   9
HETATM    9  C   UNL     1      44.050 -10.431   9.571  1.00  0.00     0.227 C 
HETATM   10  N   UNL     1      42.984 -10.053  10.352  1.00  0.00    -0.356 N 
HETATM   11  H   UNL     1      42.134  -9.737   9.888  1.00  0.00     0.162 HD
HETATM   12  O   UNL     1      45.146 -10.738  10.038  1.00  0.00    -0.273 OA
BRANCH  10  13
HETATM   13  C   UNL     1      43.087  -9.874  11.780  1.00  0.00     0.161 C 
BRANCH  13  14
HETATM   14  C   UNL     1      42.846  -8.445  12.198  1.00  0.00    -0.041 A 
HETATM   15  C   UNL     1      42.388  -7.507  11.259  1.00  0.00     0.009 A 
HETATM   16  C   UNL     1      42.127  -6.189  11.639  1.00  0.00     0.001 A 
HETATM   17  C   UNL     1      42.322  -5.791  12.959  1.00  0.00     0.000 A 
HETATM   18  C   UNL     1      42.773  -6.711  13.902  1.00  0.00     0.001 A 
HETATM   19  C   UNL     1      43.029  -8.031  13.527  1.00  0.00     0.009 A 
ENDBRANCH  13  14
ENDBRANCH  10  13
ENDBRANCH   8   9
ENDBRANCH   7   8
ENDBRANCH   3   7
BRANCH   6  20
HETATM   20  C   UNL     1      42.209 -13.997   4.086  1.00  0.00     0.256 C 
BRANCH  20  21
HETATM   21  O   UNL     1      42.851 -14.725   3.039  1.00  0.00    -0.344 OA
BRANCH  21  22
HETATM   22  C   UNL     1      43.187 -16.015   3.348  1.00  0.00     0.069 A 
HETATM   23  C   UNL     1      43.053 -17.104   2.486  1.00  0.00     0.044 A 
HETATM   24  C   UNL     1      43.420 -18.395   2.904  1.00  0.00    -0.049 A 
HETATM   25  C   UNL     1      43.895 -18.594   4.213  1.00  0.00    -0.052 A 
HETATM   26  C   UNL     1      43.225 -19.554   1.956  1.00  0.00     0.039 C 
HETATM   27  C   UNL     1      44.337 -19.954   4.695  1.00  0.00     0.039 C 
HETATM   28  C   UNL     1      44.017 -17.493   5.072  1.00  0.00     0.010 A 
HETATM   29  C   UNL     1      43.792 -21.100   3.845  1.00  0.00     0.005 C 
HETATM   30  C   UNL     1      43.997 -20.808   2.364  1.00  0.00     0.005 C 
HETATM   31  C   UNL     1      43.653 -16.216   4.645  1.00  0.00     0.037 A 
ENDBRANCH  21  22
ENDBRANCH  20  21
ENDBRANCH   6  20
TORSDOF 8
ENDMDL
MODEL 5
REMARK VINA RESULT:      -9.3      4.841      7.758
REMARK  8 active torsions:
REMARK  status: ('A' for Active; 'I' for Inactive)
REMARK    1  A    between atoms: C_3  and  S_4 
REMARK    2  A    between atoms: S_4  and  C_5 
REMARK    3  A    between atoms: C_5  and  C_6 
REMARK       I    between atoms: C_6  and  N_7 
REMARK    4  A    between atoms: N_7  and  C_8 
REMARK    5  A    between atoms: C_8  and  C_9 
REMARK    6  A    between atoms: C_18  and  C_19 
REMARK    7  A    between atoms: C_19  and  O_20 
REMARK    8  A    between atoms: O_20  and  C_21 
ROOT
HETATM    1  C   UNL     1      42.849 -11.468   6.020  1.00  0.00     0.160 C 
HETATM    2  N   UNL     1      41.719 -12.358   6.074  1.00  0.00    -0.314 N 
HETATM    3  C   UNL     1      40.401 -12.032   6.230  1.00  0.00     0.191 A 
HETATM    4  N   UNL     1      39.667 -13.120   6.201  1.00  0.00    -0.123 NA
HETATM    5  N   UNL     1      40.511 -14.191   6.061  1.00  0.00    -0.132 NA
HETATM    6  C   UNL     1      41.747 -13.733   5.986  1.00  0.00     0.154 A 
ENDROOT
BRANCH   3   7
HETATM    7  S   UNL     1      39.815 -10.427   6.481  1.00  0.00    -0.081 SA
BRANCH   7   8
HETATM    8  C   UNL     1      38.714 -10.225   5.051  1.00  0.00     0.185 C 
BRANCH   8   9
HETATM    9  C   UNL     1      39.456 -10.335   3.727  1.00  0.00     0.227 C 
HETATM   10  N   UNL     1      38.861 -11.139   2.785  1.00  0.00    -0.356 N 
HETATM   11  H   UNL     1      37.998 -11.619   3.035  1.00  0.00     0.162 HD
HETATM   12  O   UNL     1      40.543  -9.788   3.551  1.00  0.00    -0.273 OA
BRANCH  10  13
HETATM   13  C   UNL     1      39.510 -11.505   1.549  1.00  0.00     0.161 C 
BRANCH  13  14
HETATM   14  C   UNL     1      39.675 -12.997   1.408  1.00  0.00    -0.041 A 
HETATM   15  C   UNL     1      39.602 -13.821   2.541  1.00  0.00     0.009 A 
HETATM   16  C   UNL     1      39.719 -15.208   2.423  1.00  0.00     0.001 A 
HETATM   17  C   UNL     1      39.911 -15.788   1.171  1.00  0.00     0.000 A 
HETATM   18  C   UNL     1      39.984 -14.982   0.037  1.00  0.00     0.001 A 
HETATM   19  C   UNL     1      39.861 -13.596   0.152  1.00  0.00     0.009 A 
ENDBRANCH  13  14
ENDBRANCH  10  13
ENDBRANCH   8   9
ENDBRANCH   7   8
ENDBRANCH   3   7
BRANCH   6  20
HETATM   20  C   UNL     1      42.981 -14.555   5.850  1.00  0.00     0.256 C 
BRANCH  20  21
HETATM   21  O   UNL     1      43.225 -14.693   4.450  1.00  0.00    -0.344 OA
BRANCH  21  22
HETATM   22  C   UNL     1      43.303 -15.982   3.998  1.00  0.00     0.069 A 
HETATM   23  C   UNL     1      43.628 -17.087   4.786  1.00  0.00     0.044 A 
HETATM   24  C   UNL     1      43.691 -18.374   4.222  1.00  0.00    -0.049 A 
HETATM   25  C   UNL     1      43.453 -18.542   2.846  1.00  0.00    -0.052 A 
HETATM   26  C   UNL     1      44.083 -19.539   5.099  1.00  0.00     0.039 C 
HETATM   27  C   UNL     1      43.471 -19.907   2.202  1.00  0.00     0.039 C 
HETATM   28  C   UNL     1      43.135 -17.423   2.063  1.00  0.00     0.010 A 
HETATM   29  C   UNL     1      44.205 -20.955   3.035  1.00  0.00     0.005 C 
HETATM   30  C   UNL     1      43.748 -20.898   4.487  1.00  0.00     0.005 C 
HETATM   31  C   UNL     1      43.074 -16.152   2.635  1.00  0.00     0.037 A 
ENDBRANCH  21  22
ENDBRANCH  20  21
ENDBRANCH   6  20
TORSDOF 8
ENDMDL
MODEL 6
REMARK VINA RESULT:      -9.2      1.818     11.056
REMARK  8 active torsions:
REMARK  status: ('A' for Active; 'I' for Inactive)
REMARK    1  A    between atoms: C_3  and  S_4 
REMARK    2  A    between atoms: S_4  and  C_5 
REMARK    3  A    between atoms: C_5  and  C_6 
REMARK       I    between atoms: C_6  and  N_7 
REMARK    4  A    between atoms: N_7  and  C_8 
REMARK    5  A    between atoms: C_8  and  C_9 
REMARK    6  A    between atoms: C_18  and  C_19 
REMARK    7  A    between atoms: C_19  and  O_20 
REMARK    8  A    between atoms: O_20  and  C_21 
ROOT
HETATM    1  C   UNL     1      42.290 -10.206   6.651  1.00  0.00     0.160 C 
HETATM    2  N   UNL     1      43.040 -11.433   6.579  1.00  0.00    -0.314 N 
HETATM    3  C   UNL     1      42.609 -12.656   6.150  1.00  0.00     0.191 A 
HETATM    4  N   UNL     1      43.595 -13.520   6.206  1.00  0.00    -0.123 NA
HETATM    5  N   UNL     1      44.691 -12.873   6.715  1.00  0.00    -0.132 NA
HETATM    6  C   UNL     1      44.357 -11.616   6.942  1.00  0.00     0.154 A 
ENDROOT
BRANCH   3   7
HETATM    7  S   UNL     1      40.990 -13.005   5.661  1.00  0.00    -0.081 SA
BRANCH   7   8
HETATM    8  C   UNL     1      40.947 -14.811   5.840  1.00  0.00     0.185 C 
BRANCH   8   9
HETATM    9  C   UNL     1      41.277 -15.531   4.542  1.00  0.00     0.227 C 
HETATM   10  N   UNL     1      42.564 -16.001   4.440  1.00  0.00    -0.356 N 
HETATM   11  H   UNL     1      43.206 -15.818   5.210  1.00  0.00     0.162 HD
HETATM   12  O   UNL     1      40.456 -15.622   3.630  1.00  0.00    -0.273 OA
BRANCH  10  13
HETATM   13  C   UNL     1      43.103 -16.542   3.216  1.00  0.00     0.161 C 
BRANCH  13  14
HETATM   14  C   UNL     1      43.361 -18.025   3.308  1.00  0.00    -0.041 A 
HETATM   15  C   UNL     1      43.118 -18.850   2.199  1.00  0.00     0.009 A 
HETATM   16  C   UNL     1      43.383 -20.220   2.258  1.00  0.00     0.001 A 
HETATM   17  C   UNL     1      43.896 -20.782   3.425  1.00  0.00     0.000 A 
HETATM   18  C   UNL     1      44.146 -19.975   4.533  1.00  0.00     0.001 A 
HETATM   19  C   UNL     1      43.886 -18.604   4.474  1.00  0.00     0.009 A 
ENDBRANCH  13  14
ENDBRANCH  10  13
ENDBRANCH   8   9
ENDBRANCH   7   8
ENDBRANCH   3   7
BRANCH   6  20
HETATM   20  C   UNL     1      45.240 -10.563   7.514  1.00  0.00     0.256 C 
BRANCH  20  21
HETATM   21  O   UNL     1      45.351 -10.840   8.910  1.00  0.00    -0.344 OA
BRANCH  21  22
HETATM   22  C   UNL     1      44.624 -10.017   9.726  1.00  0.00     0.069 A 
HETATM   23  C   UNL     1      44.027 -10.405  10.927  1.00  0.00     0.044 A 
HETATM   24  C   UNL     1      43.291  -9.483  11.690  1.00  0.00    -0.049 A 
HETATM   25  C   UNL     1      43.128  -8.166  11.223  1.00  0.00    -0.052 A 
HETATM   26  C   UNL     1      42.629  -9.950  12.964  1.00  0.00     0.039 C 
HETATM   27  C   UNL     1      42.379  -7.130  12.025  1.00  0.00     0.039 C 
HETATM   28  C   UNL     1      43.725  -7.790  10.012  1.00  0.00     0.010 A 
HETATM   29  C   UNL     1      41.460  -7.737  13.083  1.00  0.00     0.005 C 
HETATM   30  C   UNL     1      42.197  -8.805  13.879  1.00  0.00     0.005 C 
HETATM   31  C   UNL     1      44.456  -8.714   9.264  1.00  0.00     0.037 A 
ENDBRANCH  21  22
ENDBRANCH  20  21
ENDBRANCH   6  20
TORSDOF 8
ENDMDL
MODEL 7
REMARK VINA RESULT:      -8.9      3.685      5.001
REMARK  8 active torsions:
REMARK  status: ('A' for Active; 'I' for Inactive)
REMARK    1  A    between atoms: C_3  and  S_4 
REMARK    2  A    between atoms: S_4  and  C_5 
REMARK    3  A    between atoms: C_5  and  C_6 
REMARK       I    between atoms: C_6  and  N_7 
REMARK    4  A    between atoms: N_7  and  C_8 
REMARK    5  A    between atoms: C_8  and  C_9 
REMARK    6  A    between atoms: C_18  and  C_19 
REMARK    7  A    between atoms: C_19  and  O_20 
REMARK    8  A    between atoms: O_20  and  C_21 
ROOT
HETATM    1  C   UNL     1      40.868 -11.739   1.225  1.00  0.00     0.160 C 
HETATM    2  N   UNL     1      40.578 -12.410   2.466  1.00  0.00    -0.314 N 
HETATM    3  C   UNL     1      40.061 -11.871   3.610  1.00  0.00     0.191 A 
HETATM    4  N   UNL     1      39.913 -12.810   4.516  1.00  0.00    -0.123 NA
HETATM    5  N   UNL     1      40.372 -13.985   3.981  1.00  0.00    -0.132 NA
HETATM    6  C   UNL     1      40.775 -13.745   2.746  1.00  0.00     0.154 A 
ENDROOT
BRANCH   3   7
HETATM    7  S   UNL     1      39.712 -10.194   3.829  1.00  0.00    -0.081 SA
BRANCH   7   8
HETATM    8  C   UNL     1      41.384  -9.498   3.953  1.00  0.00     0.185 C 
BRANCH   8   9
HETATM    9  C   UNL     1      42.361 -10.450   4.624  1.00  0.00     0.227 C 
HETATM   10  N   UNL     1      42.068 -10.772   5.927  1.00  0.00    -0.356 N 
HETATM   11  H   UNL     1      41.251 -10.342   6.358  1.00  0.00     0.162 HD
HETATM   12  O   UNL     1      43.374 -10.845   4.048  1.00  0.00    -0.273 OA
BRANCH  10  13
HETATM   13  C   UNL     1      42.977 -11.508   6.773  1.00  0.00     0.161 C 
BRANCH  13  14
HETATM   14  C   UNL     1      44.056 -10.631   7.356  1.00  0.00    -0.041 A 
HETATM   15  C   UNL     1      43.709  -9.499   8.110  1.00  0.00     0.009 A 
HETATM   16  C   UNL     1      44.696  -8.696   8.685  1.00  0.00     0.001 A 
HETATM   17  C   UNL     1      46.042  -9.014   8.515  1.00  0.00     0.000 A 
HETATM   18  C   UNL     1      46.401 -10.136   7.772  1.00  0.00     0.001 A 
HETATM   19  C   UNL     1      45.415 -10.944   7.200  1.00  0.00     0.009 A 
ENDBRANCH  13  14
ENDBRANCH  10  13
ENDBRANCH   8   9
ENDBRANCH   7   8
ENDBRANCH   3   7
BRANCH   6  20
HETATM   20  C   UNL     1      41.365 -14.737   1.807  1.00  0.00     0.256 C 
BRANCH  20  21
HETATM   21  O   UNL     1      42.741 -14.868   2.166  1.00  0.00    -0.344 OA
BRANCH  21  22
HETATM   22  C   UNL     1      43.079 -16.060   2.747  1.00  0.00     0.069 A 
HETATM   23  C   UNL     1      43.035 -17.301   2.110  1.00  0.00     0.044 A 
HETATM   24  C   UNL     1      43.396 -18.472   2.799  1.00  0.00    -0.049 A 
HETATM   25  C   UNL     1      43.774 -18.393   4.152  1.00  0.00    -0.052 A 
HETATM   26  C   UNL     1      43.299 -19.800   2.088  1.00  0.00     0.039 C 
HETATM   27  C   UNL     1      44.206 -19.616   4.924  1.00  0.00     0.039 C 
HETATM   28  C   UNL     1      43.806 -17.142   4.784  1.00  0.00     0.010 A 
HETATM   29  C   UNL     1      43.752 -20.925   4.280  1.00  0.00     0.005 C 
HETATM   30  C   UNL     1      44.064 -20.921   2.789  1.00  0.00     0.005 C 
HETATM   31  C   UNL     1      43.448 -15.988   4.088  1.00  0.00     0.037 A 
ENDBRANCH  21  22
ENDBRANCH  20  21
ENDBRANCH   6  20
TORSDOF 8
ENDMDL
MODEL 8
REMARK VINA RESULT:      -8.8      1.551     11.615
REMARK  8 active torsions:
REMARK  status: ('A' for Active; 'I' for Inactive)
REMARK    1  A    between atoms: C_3  and  S_4 
REMARK    2  A    between atoms: S_4  and  C_5 
REMARK    3  A    between atoms: C_5  and  C_6 
REMARK       I    between atoms: C_6  and  N_7 
REMARK    4  A    between atoms: N_7  and  C_8 
REMARK    5  A    between atoms: C_8  and  C_9 
REMARK    6  A    between atoms: C_18  and  C_19 
REMARK    7  A    between atoms: C_19  and  O_20 
REMARK    8  A    between atoms: O_20  and  C_21 
ROOT
HETATM    1  C   UNL     1      41.997  -9.930   6.542  1.00  0.00     0.160 C 
HETATM    2  N   UNL     1      43.113 -10.706   7.019  1.00  0.00    -0.314 N 
HETATM    3  C   UNL     1      43.661 -11.821   6.452  1.00  0.00     0.191 A 
HETATM    4  N   UNL     1      44.685 -12.225   7.168  1.00  0.00    -0.123 NA
HETATM    5  N   UNL     1      44.797 -11.389   8.248  1.00  0.00    -0.132 NA
HETATM    6  C   UNL     1      43.849 -10.474   8.160  1.00  0.00     0.154 A 
ENDROOT
BRANCH   3   7
HETATM    7  S   UNL     1      43.052 -12.599   5.036  1.00  0.00    -0.081 SA
BRANCH   7   8
HETATM    8  C   UNL     1      41.962 -13.855   5.763  1.00  0.00     0.185 C 
BRANCH   8   9
HETATM    9  C   UNL     1      41.711 -15.022   4.821  1.00  0.00     0.227 C 
HETATM   10  N   UNL     1      42.699 -15.254   3.895  1.00  0.00    -0.356 N 
HETATM   11  H   UNL     1      43.503 -14.629   3.882  1.00  0.00     0.162 HD
HETATM   12  O   UNL     1      40.662 -15.664   4.856  1.00  0.00    -0.273 OA
BRANCH  10  13
HETATM   13  C   UNL     1      42.548 -16.194   2.811  1.00  0.00     0.161 C 
BRANCH  13  14
HETATM   14  C   UNL     1      43.108 -17.553   3.148  1.00  0.00    -0.041 A 
HETATM   15  C   UNL     1      43.670 -17.787   4.413  1.00  0.00     0.009 A 
HETATM   16  C   UNL     1      44.161 -19.049   4.752  1.00  0.00     0.001 A 
HETATM   17  C   UNL     1      44.097 -20.093   3.832  1.00  0.00     0.000 A 
HETATM   18  C   UNL     1      43.539 -19.877   2.574  1.00  0.00     0.001 A 
HETATM   19  C   UNL     1      43.042 -18.617   2.235  1.00  0.00     0.009 A 
ENDBRANCH  13  14
ENDBRANCH  10  13
ENDBRANCH   8   9
ENDBRANCH   7   8
ENDBRANCH   3   7
BRANCH   6  20
HETATM   20  C   UNL     1      43.593  -9.379   9.135  1.00  0.00     0.256 C 
BRANCH  20  21
HETATM   21  O   UNL     1      44.144  -9.806  10.381  1.00  0.00    -0.344 OA
BRANCH  21  22
HETATM   22  C   UNL     1      43.422  -9.453  11.488  1.00  0.00     0.069 A 
HETATM   23  C   UNL     1      43.686  -8.344  12.294  1.00  0.00     0.044 A 
HETATM   24  C   UNL     1      42.887  -8.073  13.419  1.00  0.00    -0.049 A 
HETATM   25  C   UNL     1      41.835  -8.944  13.751  1.00  0.00    -0.052 A 
HETATM   26  C   UNL     1      43.227  -6.885  14.288  1.00  0.00     0.039 C 
HETATM   27  C   UNL     1      40.926  -8.675  14.926  1.00  0.00     0.039 C 
HETATM   28  C   UNL     1      41.585 -10.059  12.939  1.00  0.00     0.010 A 
HETATM   29  C   UNL     1      41.525  -7.699  15.937  1.00  0.00     0.005 C 
HETATM   30  C   UNL     1      42.093  -6.477  15.227  1.00  0.00     0.005 C 
HETATM   31  C   UNL     1      42.383 -10.316  11.824  1.00  0.00     0.037 A 
ENDBRANCH  21  22
ENDBRANCH  20  21
ENDBRANCH   6  20
TORSDOF 8
ENDMDL
MODEL 9
REMARK VINA RESULT:      -8.6      1.727      2.700
REMARK  8 active torsions:
REMARK  status: ('A' for Active; 'I' for Inactive)
REMARK    1  A    between atoms: C_3  and  S_4 
REMARK    2  A    between atoms: S_4  and  C_5 
REMARK    3  A    between atoms: C_5  and  C_6 
REMARK       I    between atoms: C_6  and  N_7 
REMARK    4  A    between atoms: N_7  and  C_8 
REMARK    5  A    between atoms: C_8  and  C_9 
REMARK    6  A    between atoms: C_18  and  C_19 
REMARK    7  A    between atoms: C_19  and  O_20 
REMARK    8  A    between atoms: O_20  and  C_21 
ROOT
HETATM    1  C   UNL     1      42.491 -11.602   3.364  1.00  0.00     0.160 C 
HETATM    2  N   UNL     1      41.650 -12.323   4.284  1.00  0.00    -0.314 N 
HETATM    3  C   UNL     1      41.185 -11.906   5.499  1.00  0.00     0.191 A 
HETATM    4  N   UNL     1      40.422 -12.835   6.026  1.00  0.00    -0.123 NA
HETATM    5  N   UNL     1      40.409 -13.903   5.168  1.00  0.00    -0.132 NA
HETATM    6  C   UNL     1      41.150 -13.596   4.118  1.00  0.00     0.154 A 
ENDROOT
BRANCH   3   7
HETATM    7  S   UNL     1      41.593 -10.398   6.236  1.00  0.00    -0.081 SA
BRANCH   7   8
HETATM    8  C   UNL     1      43.212 -10.786   6.960  1.00  0.00     0.185 C 
BRANCH   8   9
HETATM    9  C   UNL     1      43.611  -9.803   8.050  1.00  0.00     0.227 C 
HETATM   10  N   UNL     1      42.571  -9.137   8.651  1.00  0.00    -0.356 N 
HETATM   11  H   UNL     1      41.625  -9.318   8.318  1.00  0.00     0.162 HD
HETATM   12  O   UNL     1      44.791  -9.584   8.319  1.00  0.00    -0.273 OA
BRANCH  10  13
HETATM   13  C   UNL     1      42.772  -8.041   9.568  1.00  0.00     0.161 C 
BRANCH  13  14
HETATM   14  C   UNL     1      42.621  -8.463  11.008  1.00  0.00    -0.041 A 
HETATM   15  C   UNL     1      43.133  -7.654  12.034  1.00  0.00     0.009 A 
HETATM   16  C   UNL     1      42.972  -8.015  13.374  1.00  0.00     0.001 A 
HETATM   17  C   UNL     1      42.298  -9.188  13.704  1.00  0.00     0.000 A 
HETATM   18  C   UNL     1      41.782 -10.000  12.697  1.00  0.00     0.001 A 
HETATM   19  C   UNL     1      41.937  -9.638  11.357  1.00  0.00     0.009 A 
ENDBRANCH  13  14
ENDBRANCH  10  13
ENDBRANCH   8   9
ENDBRANCH   7   8
ENDBRANCH   3   7
BRANCH   6  20
HETATM   20  C   UNL     1      41.427 -14.478   2.951  1.00  0.00     0.256 C 
BRANCH  20  21
HETATM   21  O   UNL     1      42.829 -14.744   2.965  1.00  0.00    -0.344 OA
BRANCH  21  22
HETATM   22  C   UNL     1      43.175 -16.024   3.303  1.00  0.00     0.069 A 
HETATM   23  C   UNL     1      43.037 -17.136   2.471  1.00  0.00     0.044 A 
HETATM   24  C   UNL     1      43.415 -18.414   2.918  1.00  0.00    -0.049 A 
HETATM   25  C   UNL     1      43.906 -18.576   4.226  1.00  0.00    -0.052 A 
HETATM   26  C   UNL     1      43.216 -19.598   2.002  1.00  0.00     0.039 C 
HETATM   27  C   UNL     1      44.361 -19.921   4.739  1.00  0.00     0.039 C 
HETATM   28  C   UNL     1      44.032 -17.453   5.055  1.00  0.00     0.010 A 
HETATM   29  C   UNL     1      43.812 -21.091   3.924  1.00  0.00     0.005 C 
HETATM   30  C   UNL     1      43.998 -20.837   2.434  1.00  0.00     0.005 C 
HETATM   31  C   UNL     1      43.656 -16.189   4.600  1.00  0.00     0.037 A 
ENDBRANCH  21  22
ENDBRANCH  20  21
ENDBRANCH   6  20
TORSDOF 8
ENDMDL
MODEL 10
REMARK VINA RESULT:      -8.5      2.367     10.983
REMARK  8 active torsions:
REMARK  status: ('A' for Active; 'I' for Inactive)
REMARK    1  A    between atoms: C_3  and  S_4 
REMARK    2  A    between atoms: S_4  and  C_5 
REMARK    3  A    between atoms: C_5  and  C_6 
REMARK       I    between atoms: C_6  and  N_7 
REMARK    4  A    between atoms: N_7  and  C_8 
REMARK    5  A    between atoms: C_8  and  C_9 
REMARK    6  A    between atoms: C_18  and  C_19 
REMARK    7  A    between atoms: C_19  and  O_20 
REMARK    8  A    between atoms: O_20  and  C_21 
ROOT
HETATM    1  C   UNL     1      41.189 -10.567   5.901  1.00  0.00     0.160 C 
HETATM    2  N   UNL     1      42.464 -10.881   5.309  1.00  0.00    -0.314 N 
HETATM    3  C   UNL     1      42.762 -11.014   3.982  1.00  0.00     0.191 A 
HETATM    4  N   UNL     1      44.040 -11.276   3.839  1.00  0.00    -0.123 NA
HETATM    5  N   UNL     1      44.595 -11.356   5.089  1.00  0.00    -0.132 NA
HETATM    6  C   UNL     1      43.645 -11.119   5.975  1.00  0.00     0.154 A 
ENDROOT
BRANCH   3   7
HETATM    7  S   UNL     1      41.605 -10.904   2.705  1.00  0.00    -0.081 SA
BRANCH   7   8
HETATM    8  C   UNL     1      41.916 -12.453   1.811  1.00  0.00     0.185 C 
BRANCH   8   9
HETATM    9  C   UNL     1      41.414 -13.672   2.569  1.00  0.00     0.227 C 
HETATM   10  N   UNL     1      41.898 -14.880   2.128  1.00  0.00    -0.356 N 
HETATM   11  H   UNL     1      42.525 -14.884   1.325  1.00  0.00     0.162 HD
HETATM   12  O   UNL     1      40.582 -13.573   3.470  1.00  0.00    -0.273 OA
BRANCH  10  13
HETATM   13  C   UNL     1      41.391 -16.145   2.603  1.00  0.00     0.161 C 
BRANCH  13  14
HETATM   14  C   UNL     1      42.485 -17.038   3.132  1.00  0.00    -0.041 A 
HETATM   15  C   UNL     1      43.007 -16.824   4.417  1.00  0.00     0.009 A 
HETATM   16  C   UNL     1      43.996 -17.663   4.933  1.00  0.00     0.001 A 
HETATM   17  C   UNL     1      44.476 -18.728   4.172  1.00  0.00     0.000 A 
HETATM   18  C   UNL     1      43.965 -18.954   2.897  1.00  0.00     0.001 A 
HETATM   19  C   UNL     1      42.972 -18.120   2.380  1.00  0.00     0.009 A 
ENDBRANCH  13  14
ENDBRANCH  10  13
ENDBRANCH   8   9
ENDBRANCH   7   8
ENDBRANCH   3   7
BRANCH   6  20
HETATM   20  C   UNL     1      43.805 -11.126   7.456  1.00  0.00     0.256 C 
BRANCH  20  21
HETATM   21  O   UNL     1      44.335  -9.849   7.814  1.00  0.00    -0.344 OA
BRANCH  21  22
HETATM   22  C   UNL     1      43.981  -9.400   9.057  1.00  0.00     0.069 A 
HETATM   23  C   UNL     1      43.402  -8.158   9.323  1.00  0.00     0.044 A 
HETATM   24  C   UNL     1      43.083  -7.787  10.641  1.00  0.00    -0.049 A 
HETATM   25  C   UNL     1      43.379  -8.663  11.701  1.00  0.00    -0.052 A 
HETATM   26  C   UNL     1      42.493  -6.420  10.894  1.00  0.00     0.039 C 
HETATM   27  C   UNL     1      43.020  -8.326  13.128  1.00  0.00     0.039 C 
HETATM   28  C   UNL     1      43.967  -9.904  11.422  1.00  0.00     0.010 A 
HETATM   29  C   UNL     1      42.771  -6.835  13.349  1.00  0.00     0.005 C 
HETATM   30  C   UNL     1      41.847  -6.284  12.272  1.00  0.00     0.005 C 
HETATM   31  C   UNL     1      44.277 -10.262  10.110  1.00  0.00     0.037 A 
ENDBRANCH  21  22
ENDBRANCH  20  21
ENDBRANCH   6  20
TORSDOF 8
ENDMDL
