MODEL 1
REMARK VINA RESULT:      -7.7      0.000      0.000
REMARK  3 active torsions:
REMARK  status: ('A' for Active; 'I' for Inactive)
REMARK    1  A    between atoms: C_2  and  C_3 
REMARK    2  A    between atoms: C_9  and  C_10 
REMARK    3  A    between atoms: C_23  and  N_24 
ROOT
HETATM    1  C   UNL     1      43.137 -11.313   6.507  1.00  0.00     0.066 A 
HETATM    2  N   UNL     1      43.196 -10.575   7.630  1.00  0.00    -0.177 NA
HETATM    3  N   UNL     1      41.950 -10.079   7.769  1.00  0.00    -0.256 N 
HETATM    4  H   UNL     1      41.751  -9.469   8.554  1.00  0.00     0.191 HD
HETATM    5  C   UNL     1      41.118 -10.464   6.770  1.00  0.00     0.175 A 
HETATM    6  C   UNL     1      41.837 -11.292   5.946  1.00  0.00     0.035 A 
HETATM    7  C   UNL     1      41.196 -11.872   4.731  1.00  0.00     0.106 A 
HETATM    8  C   UNL     1      39.785 -11.295   4.548  1.00  0.00     0.081 A 
HETATM    9  C   UNL     1      39.109 -11.644   3.343  1.00  0.00     0.100 C 
HETATM   10  N   UNL     1      38.550 -11.924   2.365  1.00  0.00    -0.191 NA
HETATM   11  C   UNL     1      39.202 -10.462   5.455  1.00  0.00     0.140 A 
HETATM   12  O   UNL     1      39.860 -10.065   6.634  1.00  0.00    -0.279 OA
ENDROOT
BRANCH   7  13
HETATM   13  C   UNL     1      41.197 -13.390   4.932  1.00  0.00    -0.033 A 
HETATM   14  C   UNL     1      41.871 -14.284   4.039  1.00  0.00    -0.019 A 
HETATM   15  C   UNL     1      41.803 -15.681   4.297  1.00  0.00    -0.025 A 
HETATM   16  C   UNL     1      42.616 -13.886   2.900  1.00  0.00     0.013 A 
HETATM   17  C   UNL     1      42.457 -16.595   3.456  1.00  0.00     0.012 A 
HETATM   18  C   UNL     1      41.082 -16.165   5.396  1.00  0.00     0.012 A 
HETATM   19  C   UNL     1      43.184 -16.164   2.351  1.00  0.00     0.001 A 
HETATM   20  C   UNL     1      43.263 -14.809   2.073  1.00  0.00     0.001 A 
HETATM   21  C   UNL     1      40.422 -15.298   6.256  1.00  0.00     0.001 A 
HETATM   22  C   UNL     1      40.479 -13.929   6.027  1.00  0.00     0.009 A 
ENDBRANCH   7  13
BRANCH  11  23
HETATM   23  N   UNL     1      37.942  -9.919   5.343  1.00  0.00    -0.282 NA
HETATM   24  H   UNL     1      37.699  -9.555   4.425  1.00  0.00     0.126 HD
HETATM   25  H   UNL     1      37.226 -10.525   5.735  1.00  0.00     0.126 HD
ENDBRANCH  11  23
BRANCH   1  26
HETATM   26  C   UNL     1      44.366 -11.990   6.001  1.00  0.00     0.057 C 
HETATM   27  C   UNL     1      45.648 -11.348   6.506  1.00  0.00     0.011 C 
ENDBRANCH   1  26
TORSDOF 3
ENDMDL
MODEL 2
REMARK VINA RESULT:      -7.7     17.417     18.880
REMARK  3 active torsions:
REMARK  status: ('A' for Active; 'I' for Inactive)
REMARK    1  A    between atoms: C_2  and  C_3 
REMARK    2  A    between atoms: C_9  and  C_10 
REMARK    3  A    between atoms: C_23  and  N_24 
ROOT
HETATM    1  C   UNL     1      47.918 -29.675   0.538  1.00  0.00     0.066 A 
HETATM    2  N   UNL     1      48.853 -30.211   1.342  1.00  0.00    -0.177 NA
HETATM    3  N   UNL     1      48.150 -30.740   2.364  1.00  0.00    -0.256 N 
HETATM    4  H   UNL     1      48.651 -31.196   3.119  1.00  0.00     0.191 HD
HETATM    5  C   UNL     1      46.815 -30.542   2.239  1.00  0.00     0.175 A 
HETATM    6  C   UNL     1      46.616 -29.885   1.053  1.00  0.00     0.035 A 
HETATM    7  C   UNL     1      45.235 -29.505   0.635  1.00  0.00     0.106 A 
HETATM    8  C   UNL     1      44.233 -29.836   1.749  1.00  0.00     0.081 A 
HETATM    9  C   UNL     1      42.895 -29.389   1.552  1.00  0.00     0.100 C 
HETATM   10  N   UNL     1      41.801 -29.029   1.399  1.00  0.00    -0.191 NA
HETATM   11  C   UNL     1      44.585 -30.488   2.892  1.00  0.00     0.140 A 
HETATM   12  O   UNL     1      45.907 -30.905   3.136  1.00  0.00    -0.279 OA
ENDROOT
BRANCH   7  13
HETATM   13  C   UNL     1      44.957 -30.270  -0.663  1.00  0.00    -0.033 A 
HETATM   14  C   UNL     1      44.927 -29.628  -1.942  1.00  0.00    -0.019 A 
HETATM   15  C   UNL     1      44.644 -30.417  -3.091  1.00  0.00    -0.025 A 
HETATM   16  C   UNL     1      45.163 -28.247  -2.165  1.00  0.00     0.013 A 
HETATM   17  C   UNL     1      44.615 -29.834  -4.368  1.00  0.00     0.012 A 
HETATM   18  C   UNL     1      44.391 -31.789  -2.964  1.00  0.00     0.012 A 
HETATM   19  C   UNL     1      44.859 -28.476  -4.545  1.00  0.00     0.001 A 
HETATM   20  C   UNL     1      45.132 -27.682  -3.443  1.00  0.00     0.001 A 
HETATM   21  C   UNL     1      44.412 -32.408  -1.722  1.00  0.00     0.001 A 
HETATM   22  C   UNL     1      44.692 -31.659  -0.587  1.00  0.00     0.009 A 
ENDBRANCH   7  13
BRANCH  11  23
HETATM   23  N   UNL     1      43.730 -30.813   3.921  1.00  0.00    -0.282 NA
HETATM   24  H   UNL     1      43.328 -30.025   4.425  1.00  0.00     0.126 HD
HETATM   25  H   UNL     1      43.038 -31.503   3.642  1.00  0.00     0.126 HD
ENDBRANCH  11  23
BRANCH   1  26
HETATM   26  C   UNL     1      48.333 -28.946  -0.696  1.00  0.00     0.057 C 
HETATM   27  C   UNL     1      48.606 -29.873  -1.869  1.00  0.00     0.011 C 
ENDBRANCH   1  26
TORSDOF 3
ENDMDL
MODEL 3
REMARK VINA RESULT:      -7.6      6.870     10.179
REMARK  3 active torsions:
REMARK  status: ('A' for Active; 'I' for Inactive)
REMARK    1  A    between atoms: C_2  and  C_3 
REMARK    2  A    between atoms: C_9  and  C_10 
REMARK    3  A    between atoms: C_23  and  N_24 
ROOT
HETATM    1  C   UNL     1      41.489  -6.805  10.132  1.00  0.00     0.066 A 
HETATM    2  N   UNL     1      41.329  -6.514   8.829  1.00  0.00    -0.177 NA
HETATM    3  N   UNL     1      40.439  -7.426   8.389  1.00  0.00    -0.256 N 
HETATM    4  H   UNL     1      40.167  -7.414   7.413  1.00  0.00     0.191 HD
HETATM    5  C   UNL     1      40.047  -8.286   9.362  1.00  0.00     0.175 A 
HETATM    6  C   UNL     1      40.677  -7.900  10.517  1.00  0.00     0.035 A 
HETATM    7  C   UNL     1      40.461  -8.670  11.775  1.00  0.00     0.106 A 
HETATM    8  C   UNL     1      39.606  -9.914  11.497  1.00  0.00     0.081 A 
HETATM    9  C   UNL     1      39.444 -10.828  12.578  1.00  0.00     0.100 C 
HETATM   10  N   UNL     1      39.305 -11.577  13.455  1.00  0.00    -0.191 NA
HETATM   11  C   UNL     1      39.052 -10.175  10.280  1.00  0.00     0.140 A 
HETATM   12  O   UNL     1      39.229  -9.314   9.180  1.00  0.00    -0.279 OA
ENDROOT
BRANCH   7  13
HETATM   13  C   UNL     1      39.798  -7.701  12.759  1.00  0.00    -0.033 A 
HETATM   14  C   UNL     1      40.464  -7.222  13.933  1.00  0.00    -0.019 A 
HETATM   15  C   UNL     1      39.762  -6.336  14.797  1.00  0.00    -0.025 A 
HETATM   16  C   UNL     1      41.788  -7.560  14.311  1.00  0.00     0.013 A 
HETATM   17  C   UNL     1      40.377  -5.832  15.954  1.00  0.00     0.012 A 
HETATM   18  C   UNL     1      38.447  -5.955  14.506  1.00  0.00     0.012 A 
HETATM   19  C   UNL     1      41.682  -6.182  16.287  1.00  0.00     0.001 A 
HETATM   20  C   UNL     1      42.387  -7.047  15.466  1.00  0.00     0.001 A 
HETATM   21  C   UNL     1      37.800  -6.426  13.372  1.00  0.00     0.001 A 
HETATM   22  C   UNL     1      38.467  -7.288  12.510  1.00  0.00     0.009 A 
ENDBRANCH   7  13
BRANCH  11  23
HETATM   23  N   UNL     1      38.277 -11.271   9.974  1.00  0.00    -0.282 NA
HETATM   24  H   UNL     1      38.525 -11.761   9.118  1.00  0.00     0.126 HD
HETATM   25  H   UNL     1      38.161 -11.892  10.771  1.00  0.00     0.126 HD
ENDBRANCH  11  23
BRANCH   1  26
HETATM   26  C   UNL     1      42.456  -6.020  10.954  1.00  0.00     0.057 C 
HETATM   27  C   UNL     1      41.843  -4.764  11.551  1.00  0.00     0.011 C 
ENDBRANCH   1  26
TORSDOF 3
ENDMDL
MODEL 4
REMARK VINA RESULT:      -7.5     17.060     19.045
REMARK  3 active torsions:
REMARK  status: ('A' for Active; 'I' for Inactive)
REMARK    1  A    between atoms: C_2  and  C_3 
REMARK    2  A    between atoms: C_9  and  C_10 
REMARK    3  A    between atoms: C_23  and  N_24 
ROOT
HETATM    1  C   UNL     1      43.495 -30.464   1.438  1.00  0.00     0.066 A 
HETATM    2  N   UNL     1      42.863 -29.899   2.482  1.00  0.00    -0.177 NA
HETATM    3  N   UNL     1      43.745 -28.998   2.959  1.00  0.00    -0.256 N 
HETATM    4  H   UNL     1      43.492 -28.448   3.772  1.00  0.00     0.191 HD
HETATM    5  C   UNL     1      44.911 -28.989   2.266  1.00  0.00     0.175 A 
HETATM    6  C   UNL     1      44.780 -29.900   1.249  1.00  0.00     0.035 A 
HETATM    7  C   UNL     1      45.915 -30.135   0.311  1.00  0.00     0.106 A 
HETATM    8  C   UNL     1      47.151 -29.345   0.763  1.00  0.00     0.081 A 
HETATM    9  C   UNL     1      48.358 -29.591   0.047  1.00  0.00     0.100 C 
HETATM   10  N   UNL     1      49.346 -29.784  -0.532  1.00  0.00    -0.191 NA
HETATM   11  C   UNL     1      47.132 -28.477   1.813  1.00  0.00     0.140 A 
HETATM   12  O   UNL     1      45.967 -28.244   2.567  1.00  0.00    -0.279 OA
ENDROOT
BRANCH   7  13
HETATM   13  C   UNL     1      45.415 -29.716  -1.075  1.00  0.00    -0.033 A 
HETATM   14  C   UNL     1      45.052 -30.668  -2.081  1.00  0.00    -0.019 A 
HETATM   15  C   UNL     1      44.614 -30.185  -3.346  1.00  0.00    -0.025 A 
HETATM   16  C   UNL     1      45.090 -32.076  -1.920  1.00  0.00     0.013 A 
HETATM   17  C   UNL     1      44.237 -31.080  -4.360  1.00  0.00     0.012 A 
HETATM   18  C   UNL     1      44.553 -28.809  -3.597  1.00  0.00     0.012 A 
HETATM   19  C   UNL     1      44.282 -32.456  -4.159  1.00  0.00     0.001 A 
HETATM   20  C   UNL     1      44.709 -32.954  -2.939  1.00  0.00     0.001 A 
HETATM   21  C   UNL     1      44.913 -27.888  -2.623  1.00  0.00     0.001 A 
HETATM   22  C   UNL     1      45.338 -28.335  -1.379  1.00  0.00     0.009 A 
ENDBRANCH   7  13
BRANCH  11  23
HETATM   23  N   UNL     1      48.207 -27.743   2.260  1.00  0.00    -0.282 NA
HETATM   24  H   UNL     1      48.860 -27.436   1.542  1.00  0.00     0.126 HD
HETATM   25  H   UNL     1      47.927 -26.996   2.890  1.00  0.00     0.126 HD
ENDBRANCH  11  23
BRANCH   1  26
HETATM   26  C   UNL     1      42.831 -31.562   0.676  1.00  0.00     0.057 C 
HETATM   27  C   UNL     1      43.239 -32.946   1.154  1.00  0.00     0.011 C 
ENDBRANCH   1  26
TORSDOF 3
ENDMDL
MODEL 5
REMARK VINA RESULT:      -7.5      2.052      4.626
REMARK  3 active torsions:
REMARK  status: ('A' for Active; 'I' for Inactive)
REMARK    1  A    between atoms: C_2  and  C_3 
REMARK    2  A    between atoms: C_9  and  C_10 
REMARK    3  A    between atoms: C_23  and  N_24 
ROOT
HETATM    1  C   UNL     1      40.146 -14.498   2.359  1.00  0.00     0.066 A 
HETATM    2  N   UNL     1      39.935 -14.334   1.041  1.00  0.00    -0.177 NA
HETATM    3  N   UNL     1      39.440 -13.084   0.935  1.00  0.00    -0.256 N 
HETATM    4  H   UNL     1      39.186 -12.734   0.018  1.00  0.00     0.191 HD
HETATM    5  C   UNL     1      39.319 -12.466   2.136  1.00  0.00     0.175 A 
HETATM    6  C   UNL     1      39.797 -13.333   3.084  1.00  0.00     0.035 A 
HETATM    7  C   UNL     1      39.781 -12.944   4.523  1.00  0.00     0.106 A 
HETATM    8  C   UNL     1      39.070 -11.596   4.702  1.00  0.00     0.081 A 
HETATM    9  C   UNL     1      38.844 -11.169   6.043  1.00  0.00     0.100 C 
HETATM   10  N   UNL     1      38.658 -10.813   7.132  1.00  0.00    -0.191 NA
HETATM   11  C   UNL     1      38.632 -10.844   3.652  1.00  0.00     0.140 A 
HETATM   12  O   UNL     1      38.801 -11.258   2.318  1.00  0.00    -0.279 OA
ENDROOT
BRANCH   7  13
HETATM   13  C   UNL     1      41.245 -12.908   4.971  1.00  0.00    -0.033 A 
HETATM   14  C   UNL     1      41.817 -13.913   5.815  1.00  0.00    -0.019 A 
HETATM   15  C   UNL     1      43.182 -13.788   6.192  1.00  0.00    -0.025 A 
HETATM   16  C   UNL     1      41.124 -15.046   6.312  1.00  0.00     0.013 A 
HETATM   17  C   UNL     1      43.789 -14.755   7.009  1.00  0.00     0.012 A 
HETATM   18  C   UNL     1      43.942 -12.695   5.754  1.00  0.00     0.012 A 
HETATM   19  C   UNL     1      43.077 -15.857   7.471  1.00  0.00     0.001 A 
HETATM   20  C   UNL     1      41.743 -16.002   7.123  1.00  0.00     0.001 A 
HETATM   21  C   UNL     1      43.384 -11.717   4.942  1.00  0.00     0.001 A 
HETATM   22  C   UNL     1      42.054 -11.822   4.556  1.00  0.00     0.009 A 
ENDBRANCH   7  13
BRANCH  11  23
HETATM   23  N   UNL     1      37.992  -9.630   3.753  1.00  0.00    -0.282 NA
HETATM   24  H   UNL     1      38.592  -8.830   3.938  1.00  0.00     0.126 HD
HETATM   25  H   UNL     1      37.342  -9.474   2.987  1.00  0.00     0.126 HD
ENDBRANCH  11  23
BRANCH   1  26
HETATM   26  C   UNL     1      40.656 -15.804   2.870  1.00  0.00     0.057 C 
HETATM   27  C   UNL     1      42.168 -15.928   2.776  1.00  0.00     0.011 C 
ENDBRANCH   1  26
TORSDOF 3
ENDMDL
MODEL 6
REMARK VINA RESULT:      -7.3      6.094      9.230
REMARK  3 active torsions:
REMARK  status: ('A' for Active; 'I' for Inactive)
REMARK    1  A    between atoms: C_2  and  C_3 
REMARK    2  A    between atoms: C_9  and  C_10 
REMARK    3  A    between atoms: C_23  and  N_24 
ROOT
HETATM    1  C   UNL     1      42.054  -5.741   9.730  1.00  0.00     0.066 A 
HETATM    2  N   UNL     1      41.618  -5.234   8.563  1.00  0.00    -0.177 NA
HETATM    3  N   UNL     1      41.924  -6.180   7.652  1.00  0.00    -0.256 N 
HETATM    4  H   UNL     1      41.699  -6.012   6.678  1.00  0.00     0.191 HD
HETATM    5  C   UNL     1      42.549  -7.251   8.200  1.00  0.00     0.175 A 
HETATM    6  C   UNL     1      42.624  -7.025   9.550  1.00  0.00     0.035 A 
HETATM    7  C   UNL     1      43.283  -8.027  10.437  1.00  0.00     0.106 A 
HETATM    8  C   UNL     1      43.906  -9.150   9.598  1.00  0.00     0.081 A 
HETATM    9  C   UNL     1      44.701 -10.102  10.301  1.00  0.00     0.100 C 
HETATM   10  N   UNL     1      45.348 -10.882  10.866  1.00  0.00    -0.191 NA
HETATM   11  C   UNL     1      43.755  -9.237   8.246  1.00  0.00     0.140 A 
HETATM   12  O   UNL     1      43.013  -8.290   7.517  1.00  0.00    -0.279 OA
ENDROOT
BRANCH   7  13
HETATM   13  C   UNL     1      42.195  -8.530  11.391  1.00  0.00    -0.033 A 
HETATM   14  C   UNL     1      42.176  -8.192  12.782  1.00  0.00    -0.019 A 
HETATM   15  C   UNL     1      41.135  -8.719  13.595  1.00  0.00    -0.025 A 
HETATM   16  C   UNL     1      43.123  -7.357  13.429  1.00  0.00     0.013 A 
HETATM   17  C   UNL     1      41.069  -8.406  14.962  1.00  0.00     0.012 A 
HETATM   18  C   UNL     1      40.161  -9.560  13.043  1.00  0.00     0.012 A 
HETATM   19  C   UNL     1      42.014  -7.577  15.558  1.00  0.00     0.001 A 
HETATM   20  C   UNL     1      43.042  -7.053  14.791  1.00  0.00     0.001 A 
HETATM   21  C   UNL     1      40.185  -9.894  11.695  1.00  0.00     0.001 A 
HETATM   22  C   UNL     1      41.189  -9.386  10.881  1.00  0.00     0.009 A 
ENDBRANCH   7  13
BRANCH  11  23
HETATM   23  N   UNL     1      44.289 -10.221   7.445  1.00  0.00    -0.282 NA
HETATM   24  H   UNL     1      44.684  -9.905   6.563  1.00  0.00     0.126 HD
HETATM   25  H   UNL     1      44.908 -10.841   7.961  1.00  0.00     0.126 HD
ENDBRANCH  11  23
BRANCH   1  26
HETATM   26  C   UNL     1      41.927  -4.937  10.980  1.00  0.00     0.057 C 
HETATM   27  C   UNL     1      40.594  -5.141  11.682  1.00  0.00     0.011 C 
ENDBRANCH   1  26
TORSDOF 3
ENDMDL
MODEL 7
REMARK VINA RESULT:      -7.3      3.925      6.001
REMARK  3 active torsions:
REMARK  status: ('A' for Active; 'I' for Inactive)
REMARK    1  A    between atoms: C_2  and  C_3 
REMARK    2  A    between atoms: C_9  and  C_10 
REMARK    3  A    between atoms: C_23  and  N_24 
ROOT
HETATM    1  C   UNL     1      41.458 -15.594   6.665  1.00  0.00     0.066 A 
HETATM    2  N   UNL     1      42.013 -15.577   7.890  1.00  0.00    -0.177 NA
HETATM    3  N   UNL     1      43.136 -16.311   7.758  1.00  0.00    -0.256 N 
HETATM    4  H   UNL     1      43.725 -16.455   8.571  1.00  0.00     0.191 HD
HETATM    5  C   UNL     1      43.298 -16.799   6.504  1.00  0.00     0.175 A 
HETATM    6  C   UNL     1      42.251 -16.331   5.752  1.00  0.00     0.035 A 
HETATM    7  C   UNL     1      42.137 -16.714   4.315  1.00  0.00     0.106 A 
HETATM    8  C   UNL     1      43.225 -17.732   3.949  1.00  0.00     0.081 A 
HETATM    9  C   UNL     1      43.147 -18.303   2.646  1.00  0.00     0.100 C 
HETATM   10  N   UNL     1      43.091 -18.773   1.585  1.00  0.00    -0.191 NA
HETATM   11  C   UNL     1      44.204 -18.116   4.816  1.00  0.00     0.140 A 
HETATM   12  O   UNL     1      44.284 -17.602   6.124  1.00  0.00    -0.279 OA
ENDROOT
BRANCH   7  13
HETATM   13  C   UNL     1      42.249 -15.411   3.518  1.00  0.00    -0.033 A 
HETATM   14  C   UNL     1      41.462 -15.155   2.349  1.00  0.00    -0.019 A 
HETATM   15  C   UNL     1      41.645 -13.922   1.664  1.00  0.00    -0.025 A 
HETATM   16  C   UNL     1      40.495 -16.041   1.810  1.00  0.00     0.013 A 
HETATM   17  C   UNL     1      40.889 -13.622   0.520  1.00  0.00     0.012 A 
HETATM   18  C   UNL     1      42.585 -12.989   2.121  1.00  0.00     0.012 A 
HETATM   19  C   UNL     1      39.945 -14.516   0.026  1.00  0.00     0.001 A 
HETATM   20  C   UNL     1      39.749 -15.726   0.671  1.00  0.00     0.001 A 
HETATM   21  C   UNL     1      43.353 -13.242   3.250  1.00  0.00     0.001 A 
HETATM   22  C   UNL     1      43.187 -14.437   3.939  1.00  0.00     0.009 A 
ENDBRANCH   7  13
BRANCH  11  23
HETATM   23  N   UNL     1      45.203 -19.021   4.541  1.00  0.00    -0.282 NA
HETATM   24  H   UNL     1      45.766 -18.819   3.718  1.00  0.00     0.126 HD
HETATM   25  H   UNL     1      45.761 -19.239   5.363  1.00  0.00     0.126 HD
ENDBRANCH  11  23
BRANCH   1  26
HETATM   26  C   UNL     1      40.151 -14.911   6.433  1.00  0.00     0.057 C 
HETATM   27  C   UNL     1      40.308 -13.459   6.014  1.00  0.00     0.011 C 
ENDBRANCH   1  26
TORSDOF 3
ENDMDL
MODEL 8
REMARK VINA RESULT:      -7.2      2.105      4.002
REMARK  3 active torsions:
REMARK  status: ('A' for Active; 'I' for Inactive)
REMARK    1  A    between atoms: C_2  and  C_3 
REMARK    2  A    between atoms: C_9  and  C_10 
REMARK    3  A    between atoms: C_23  and  N_24 
ROOT
HETATM    1  C   UNL     1      41.688 -11.724   2.307  1.00  0.00     0.066 A 
HETATM    2  N   UNL     1      41.982 -10.825   1.351  1.00  0.00    -0.177 NA
HETATM    3  N   UNL     1      41.615  -9.641   1.880  1.00  0.00    -0.256 N 
HETATM    4  H   UNL     1      41.731  -8.800   1.327  1.00  0.00     0.191 HD
HETATM    5  C   UNL     1      41.088  -9.765   3.123  1.00  0.00     0.175 A 
HETATM    6  C   UNL     1      41.146 -11.094   3.454  1.00  0.00     0.035 A 
HETATM    7  C   UNL     1      40.619 -11.558   4.769  1.00  0.00     0.106 A 
HETATM    8  C   UNL     1      39.950 -10.394   5.513  1.00  0.00     0.081 A 
HETATM    9  C   UNL     1      39.266 -10.722   6.720  1.00  0.00     0.100 C 
HETATM   10  N   UNL     1      38.708 -10.980   7.705  1.00  0.00    -0.191 NA
HETATM   11  C   UNL     1      39.961  -9.113   5.049  1.00  0.00     0.140 A 
HETATM   12  O   UNL     1      40.591  -8.764   3.839  1.00  0.00    -0.279 OA
ENDROOT
BRANCH   7  13
HETATM   13  C   UNL     1      41.816 -12.139   5.528  1.00  0.00    -0.033 A 
HETATM   14  C   UNL     1      41.823 -13.472   6.048  1.00  0.00    -0.019 A 
HETATM   15  C   UNL     1      42.975 -13.920   6.753  1.00  0.00    -0.025 A 
HETATM   16  C   UNL     1      40.761 -14.402   5.915  1.00  0.00     0.013 A 
HETATM   17  C   UNL     1      43.032 -15.223   7.272  1.00  0.00     0.012 A 
HETATM   18  C   UNL     1      44.069 -13.066   6.940  1.00  0.00     0.012 A 
HETATM   19  C   UNL     1      41.971 -16.109   7.114  1.00  0.00     0.001 A 
HETATM   20  C   UNL     1      40.835 -15.697   6.436  1.00  0.00     0.001 A 
HETATM   21  C   UNL     1      44.057 -11.770   6.441  1.00  0.00     0.001 A 
HETATM   22  C   UNL     1      42.946 -11.313   5.744  1.00  0.00     0.009 A 
ENDBRANCH   7  13
BRANCH  11  23
HETATM   23  N   UNL     1      39.380  -8.033   5.674  1.00  0.00    -0.282 NA
HETATM   24  H   UNL     1      39.791  -7.127   5.459  1.00  0.00     0.126 HD
HETATM   25  H   UNL     1      38.367  -8.042   5.593  1.00  0.00     0.126 HD
ENDBRANCH  11  23
BRANCH   1  26
HETATM   26  C   UNL     1      41.918 -13.176   2.055  1.00  0.00     0.057 C 
HETATM   27  C   UNL     1      43.226 -13.680   2.642  1.00  0.00     0.011 C 
ENDBRANCH   1  26
TORSDOF 3
ENDMDL
MODEL 9
REMARK VINA RESULT:      -7.1      3.009      5.547
REMARK  3 active torsions:
REMARK  status: ('A' for Active; 'I' for Inactive)
REMARK    1  A    between atoms: C_2  and  C_3 
REMARK    2  A    between atoms: C_9  and  C_10 
REMARK    3  A    between atoms: C_23  and  N_24 
ROOT
HETATM    1  C   UNL     1      42.087 -16.216   5.372  1.00  0.00     0.066 A 
HETATM    2  N   UNL     1      42.838 -17.271   5.007  1.00  0.00    -0.177 NA
HETATM    3  N   UNL     1      42.895 -17.191   3.662  1.00  0.00    -0.256 N 
HETATM    4  H   UNL     1      43.405 -17.901   3.150  1.00  0.00     0.191 HD
HETATM    5  C   UNL     1      42.198 -16.137   3.170  1.00  0.00     0.175 A 
HETATM    6  C   UNL     1      41.685 -15.458   4.245  1.00  0.00     0.035 A 
HETATM    7  C   UNL     1      40.845 -14.245   4.028  1.00  0.00     0.106 A 
HETATM    8  C   UNL     1      40.590 -14.037   2.529  1.00  0.00     0.081 A 
HETATM    9  C   UNL     1      39.675 -13.003   2.178  1.00  0.00     0.100 C 
HETATM   10  N   UNL     1      38.932 -12.160   1.883  1.00  0.00    -0.191 NA
HETATM   11  C   UNL     1      41.165 -14.811   1.565  1.00  0.00     0.140 A 
HETATM   12  O   UNL     1      42.039 -15.867   1.881  1.00  0.00    -0.279 OA
ENDROOT
BRANCH   7  13
HETATM   13  C   UNL     1      41.604 -13.080   4.670  1.00  0.00    -0.033 A 
HETATM   14  C   UNL     1      40.963 -12.117   5.513  1.00  0.00    -0.019 A 
HETATM   15  C   UNL     1      41.747 -11.058   6.052  1.00  0.00    -0.025 A 
HETATM   16  C   UNL     1      39.590 -12.130   5.865  1.00  0.00     0.013 A 
HETATM   17  C   UNL     1      41.165 -10.096   6.893  1.00  0.00     0.012 A 
HETATM   18  C   UNL     1      43.111 -10.962   5.751  1.00  0.00     0.012 A 
HETATM   19  C   UNL     1      39.814 -10.149   7.221  1.00  0.00     0.001 A 
HETATM   20  C   UNL     1      39.026 -11.166   6.706  1.00  0.00     0.001 A 
HETATM   21  C   UNL     1      43.729 -11.892   4.926  1.00  0.00     0.001 A 
HETATM   22  C   UNL     1      42.985 -12.937   4.393  1.00  0.00     0.009 A 
ENDBRANCH   7  13
BRANCH  11  23
HETATM   23  N   UNL     1      40.975 -14.668   0.210  1.00  0.00    -0.282 NA
HETATM   24  H   UNL     1      40.066 -14.307  -0.072  1.00  0.00     0.126 HD
HETATM   25  H   UNL     1      41.752 -14.190  -0.239  1.00  0.00     0.126 HD
ENDBRANCH  11  23
BRANCH   1  26
HETATM   26  C   UNL     1      41.763 -16.001   6.812  1.00  0.00     0.057 C 
HETATM   27  C   UNL     1      42.795 -15.149   7.532  1.00  0.00     0.011 C 
ENDBRANCH   1  26
TORSDOF 3
ENDMDL
MODEL 10
REMARK VINA RESULT:      -7.0      2.811      5.301
REMARK  3 active torsions:
REMARK  status: ('A' for Active; 'I' for Inactive)
REMARK    1  A    between atoms: C_2  and  C_3 
REMARK    2  A    between atoms: C_9  and  C_10 
REMARK    3  A    between atoms: C_23  and  N_24 
ROOT
HETATM    1  C   UNL     1      40.414 -13.832   2.206  1.00  0.00     0.066 A 
HETATM    2  N   UNL     1      40.228 -12.914   1.241  1.00  0.00    -0.177 NA
HETATM    3  N   UNL     1      41.192 -11.998   1.462  1.00  0.00    -0.256 N 
HETATM    4  H   UNL     1      41.244 -11.186   0.856  1.00  0.00     0.191 HD
HETATM    5  C   UNL     1      41.963 -12.297   2.536  1.00  0.00     0.175 A 
HETATM    6  C   UNL     1      41.516 -13.496   3.029  1.00  0.00     0.035 A 
HETATM    7  C   UNL     1      42.159 -14.090   4.236  1.00  0.00     0.106 A 
HETATM    8  C   UNL     1      43.198 -13.121   4.816  1.00  0.00     0.081 A 
HETATM    9  C   UNL     1      43.786 -13.491   6.061  1.00  0.00     0.100 C 
HETATM   10  N   UNL     1      44.272 -13.786   7.073  1.00  0.00    -0.191 NA
HETATM   11  C   UNL     1      43.532 -11.945   4.214  1.00  0.00     0.140 A 
HETATM   12  O   UNL     1      42.938 -11.531   3.007  1.00  0.00    -0.279 OA
ENDROOT
BRANCH   7  13
HETATM   13  C   UNL     1      42.773 -15.418   3.781  1.00  0.00    -0.033 A 
HETATM   14  C   UNL     1      42.990 -16.512   4.679  1.00  0.00    -0.019 A 
HETATM   15  C   UNL     1      43.581 -17.702   4.169  1.00  0.00    -0.025 A 
HETATM   16  C   UNL     1      42.658 -16.512   6.057  1.00  0.00     0.013 A 
HETATM   17  C   UNL     1      43.804 -18.805   5.008  1.00  0.00     0.012 A 
HETATM   18  C   UNL     1      43.949 -17.789   2.820  1.00  0.00     0.012 A 
HETATM   19  C   UNL     1      43.456 -18.767   6.355  1.00  0.00     0.001 A 
HETATM   20  C   UNL     1      42.884 -17.619   6.879  1.00  0.00     0.001 A 
HETATM   21  C   UNL     1      43.745 -16.724   1.953  1.00  0.00     0.001 A 
HETATM   22  C   UNL     1      43.165 -15.555   2.427  1.00  0.00     0.009 A 
ENDBRANCH   7  13
BRANCH  11  23
HETATM   23  N   UNL     1      44.456 -11.041   4.687  1.00  0.00    -0.282 NA
HETATM   24  H   UNL     1      45.037 -11.367   5.456  1.00  0.00     0.126 HD
HETATM   25  H   UNL     1      44.990 -10.610   3.938  1.00  0.00     0.126 HD
ENDBRANCH  11  23
BRANCH   1  26
HETATM   26  C   UNL     1      39.486 -14.996   2.310  1.00  0.00     0.057 C 
HETATM   27  C   UNL     1      39.804 -16.098   1.313  1.00  0.00     0.011 C 
ENDBRANCH   1  26
TORSDOF 3
ENDMDL
