MODEL 1
REMARK VINA RESULT:      -8.9      0.000      0.000
REMARK  7 active torsions:
REMARK  status: ('A' for Active; 'I' for Inactive)
REMARK    1  A    between atoms: C_3  and  C_4 
REMARK       I    between atoms: C_4  and  N_5 
REMARK    2  A    between atoms: N_5  and  C_6 
REMARK    3  A    between atoms: C_6  and  C_7 
REMARK    4  A    between atoms: C_13  and  N_14 
REMARK    5  A    between atoms: N_14  and  C_15 
REMARK    6  A    between atoms: C_15  and  N_16 
REMARK       I    between atoms: N_16  and  C_17 
REMARK    7  A    between atoms: C_17  and  C_18 
ROOT
HETATM    1  C   UNL     1      44.430 -18.507   4.196  1.00  0.00     0.001 A 
HETATM    2  C   UNL     1      44.055 -17.562   5.148  1.00  0.00     0.019 A 
HETATM    3  C   UNL     1      43.165 -16.522   4.818  1.00  0.00     0.058 A 
HETATM    4  C   UNL     1      42.653 -16.421   3.509  1.00  0.00     0.050 A 
HETATM    5  C   UNL     1      43.051 -17.380   2.564  1.00  0.00     0.030 A 
HETATM    6  C   UNL     1      43.925 -18.416   2.906  1.00  0.00     0.002 A 
ENDROOT
BRANCH   4   7
HETATM    7  N   UNL     1      41.874 -15.301   3.116  1.00  0.00    -0.332 N 
HETATM    8  H   UNL     1      40.887 -15.338   3.385  1.00  0.00     0.168 HD
BRANCH   7   9
HETATM    9  C   UNL     1      42.247 -14.165   2.443  1.00  0.00     0.179 C 
HETATM   10  S   UNL     1      43.217 -12.918   2.996  1.00  0.00    -0.040 SA
BRANCH   9  11
HETATM   11  N   UNL     1      41.778 -14.049   1.150  1.00  0.00    -0.299 N 
HETATM   12  C   UNL     1      40.576 -14.506   0.630  1.00  0.00     0.257 C 
HETATM   13  O   UNL     1      39.854 -15.329   1.182  1.00  0.00    -0.267 OA
HETATM   14  H   UNL     1      42.317 -13.383   0.614  1.00  0.00     0.171 HD
BRANCH  12  15
HETATM   15  C   UNL     1      40.171 -13.923  -0.676  1.00  0.00     0.035 A 
HETATM   16  C   UNL     1      39.336 -14.604  -1.569  1.00  0.00     0.041 A 
HETATM   17  C   UNL     1      39.030 -14.023  -2.800  1.00  0.00     0.036 A 
HETATM   18 CL   UNL     1      38.016 -14.868  -3.905  1.00  0.00    -0.084 Cl
HETATM   19  C   UNL     1      39.538 -12.774  -3.148  1.00  0.00     0.047 A 
HETATM   20  C   UNL     1      40.350 -12.093  -2.245  1.00  0.00     0.036 A 
HETATM   21 CL   UNL     1      40.982 -10.550  -2.666  1.00  0.00    -0.084 Cl
HETATM   22  C   UNL     1      40.666 -12.655  -1.009  1.00  0.00     0.041 A 
ENDBRANCH  12  15
ENDBRANCH   9  11
ENDBRANCH   7   9
ENDBRANCH   4   7
BRANCH   3  23
HETATM   23  C   UNL     1      42.773 -15.631   5.948  1.00  0.00     0.254 C 
HETATM   24  N   UNL     1      43.603 -14.565   6.212  1.00  0.00    -0.351 N 
HETATM   25  H   UNL     1      44.344 -14.341   5.556  1.00  0.00     0.163 HD
HETATM   26  O   UNL     1      41.715 -15.814   6.542  1.00  0.00    -0.268 OA
BRANCH  24  27
HETATM   27  C   UNL     1      43.142 -13.488   7.055  1.00  0.00     0.187 C 
BRANCH  27  28
HETATM   28  C   UNL     1      44.174 -12.426   7.146  1.00  0.00     0.070 A 
HETATM   29  O   UNL     1      44.247 -11.703   8.306  1.00  0.00    -0.325 OA
HETATM   30  C   UNL     1      45.267 -10.820   8.158  1.00  0.00     0.142 A 
HETATM   31  C   UNL     1      45.858 -10.965   6.924  1.00  0.00     0.027 A 
HETATM   32  C   UNL     1      45.155 -12.004   6.270  1.00  0.00     0.036 A 
ENDBRANCH  27  28
ENDBRANCH  24  27
ENDBRANCH   3  23
TORSDOF 7
ENDMDL
MODEL 2
REMARK VINA RESULT:      -8.8      4.334      7.614
REMARK  7 active torsions:
REMARK  status: ('A' for Active; 'I' for Inactive)
REMARK    1  A    between atoms: C_3  and  C_4 
REMARK       I    between atoms: C_4  and  N_5 
REMARK    2  A    between atoms: N_5  and  C_6 
REMARK    3  A    between atoms: C_6  and  C_7 
REMARK    4  A    between atoms: C_13  and  N_14 
REMARK    5  A    between atoms: N_14  and  C_15 
REMARK    6  A    between atoms: C_15  and  N_16 
REMARK       I    between atoms: N_16  and  C_17 
REMARK    7  A    between atoms: C_17  and  C_18 
ROOT
HETATM    1  C   UNL     1      46.255  -9.186   8.276  1.00  0.00     0.001 A 
HETATM    2  C   UNL     1      44.992  -9.013   8.838  1.00  0.00     0.019 A 
HETATM    3  C   UNL     1      43.982  -9.975   8.650  1.00  0.00     0.058 A 
HETATM    4  C   UNL     1      44.239 -11.124   7.875  1.00  0.00     0.050 A 
HETATM    5  C   UNL     1      45.516 -11.274   7.312  1.00  0.00     0.030 A 
HETATM    6  C   UNL     1      46.516 -10.318   7.516  1.00  0.00     0.002 A 
ENDROOT
BRANCH   4   7
HETATM    7  N   UNL     1      43.197 -12.032   7.550  1.00  0.00    -0.332 N 
HETATM    8  H   UNL     1      42.794 -12.538   8.344  1.00  0.00     0.168 HD
BRANCH   7   9
HETATM    9  C   UNL     1      42.634 -12.324   6.334  1.00  0.00     0.179 C 
HETATM   10  S   UNL     1      41.497 -11.431   5.490  1.00  0.00    -0.040 SA
BRANCH   9  11
HETATM   11  N   UNL     1      43.075 -13.484   5.729  1.00  0.00    -0.299 N 
HETATM   12  C   UNL     1      43.113 -14.765   6.258  1.00  0.00     0.257 C 
HETATM   13  O   UNL     1      43.011 -15.022   7.452  1.00  0.00    -0.267 OA
HETATM   14  H   UNL     1      43.188 -13.366   4.731  1.00  0.00     0.171 HD
BRANCH  12  15
HETATM   15  C   UNL     1      43.277 -15.868   5.275  1.00  0.00     0.035 A 
HETATM   16  C   UNL     1      43.598 -17.172   5.666  1.00  0.00     0.041 A 
HETATM   17  C   UNL     1      43.785 -18.154   4.691  1.00  0.00     0.036 A 
HETATM   18 CL   UNL     1      44.196 -19.755   5.171  1.00  0.00    -0.084 Cl
HETATM   19  C   UNL     1      43.649 -17.853   3.338  1.00  0.00     0.047 A 
HETATM   20  C   UNL     1      43.308 -16.558   2.958  1.00  0.00     0.036 A 
HETATM   21 CL   UNL     1      43.138 -16.179   1.290  1.00  0.00    -0.084 Cl
HETATM   22  C   UNL     1      43.115 -15.564   3.916  1.00  0.00     0.041 A 
ENDBRANCH  12  15
ENDBRANCH   9  11
ENDBRANCH   7   9
ENDBRANCH   4   7
BRANCH   3  23
HETATM   23  C   UNL     1      42.706  -9.717   9.377  1.00  0.00     0.254 C 
HETATM   24  N   UNL     1      42.582 -10.278  10.628  1.00  0.00    -0.351 N 
HETATM   25  H   UNL     1      43.395 -10.704  11.062  1.00  0.00     0.163 HD
HETATM   26  O   UNL     1      41.860  -8.972   8.895  1.00  0.00    -0.268 OA
BRANCH  24  27
HETATM   27  C   UNL     1      41.541  -9.823  11.519  1.00  0.00     0.187 C 
BRANCH  27  28
HETATM   28  C   UNL     1      42.105  -8.927  12.558  1.00  0.00     0.070 A 
HETATM   29  O   UNL     1      41.443  -8.838  13.752  1.00  0.00    -0.325 OA
HETATM   30  C   UNL     1      42.154  -7.986  14.535  1.00  0.00     0.142 A 
HETATM   31  C   UNL     1      43.267  -7.530  13.868  1.00  0.00     0.027 A 
HETATM   32  C   UNL     1      43.238  -8.139  12.592  1.00  0.00     0.036 A 
ENDBRANCH  27  28
ENDBRANCH  24  27
ENDBRANCH   3  23
TORSDOF 7
ENDMDL
MODEL 3
REMARK VINA RESULT:      -8.7      3.834      6.144
REMARK  7 active torsions:
REMARK  status: ('A' for Active; 'I' for Inactive)
REMARK    1  A    between atoms: C_3  and  C_4 
REMARK       I    between atoms: C_4  and  N_5 
REMARK    2  A    between atoms: N_5  and  C_6 
REMARK    3  A    between atoms: C_6  and  C_7 
REMARK    4  A    between atoms: C_13  and  N_14 
REMARK    5  A    between atoms: N_14  and  C_15 
REMARK    6  A    between atoms: C_15  and  N_16 
REMARK       I    between atoms: N_16  and  C_17 
REMARK    7  A    between atoms: C_17  and  C_18 
ROOT
HETATM    1  C   UNL     1      38.894 -10.115   3.599  1.00  0.00     0.001 A 
HETATM    2  C   UNL     1      39.744 -10.993   4.268  1.00  0.00     0.019 A 
HETATM    3  C   UNL     1      39.911 -12.317   3.819  1.00  0.00     0.058 A 
HETATM    4  C   UNL     1      39.204 -12.772   2.688  1.00  0.00     0.050 A 
HETATM    5  C   UNL     1      38.348 -11.872   2.033  1.00  0.00     0.030 A 
HETATM    6  C   UNL     1      38.200 -10.555   2.480  1.00  0.00     0.002 A 
ENDROOT
BRANCH   4   7
HETATM    7  N   UNL     1      39.242 -14.138   2.305  1.00  0.00    -0.332 N 
HETATM    8  H   UNL     1      38.616 -14.758   2.826  1.00  0.00     0.168 HD
BRANCH   7   9
HETATM    9  C   UNL     1      39.981 -14.755   1.327  1.00  0.00     0.179 C 
HETATM   10  S   UNL     1      39.900 -14.511  -0.327  1.00  0.00    -0.040 SA
BRANCH   9  11
HETATM   11  N   UNL     1      40.914 -15.673   1.766  1.00  0.00    -0.299 N 
HETATM   12  C   UNL     1      42.267 -15.476   1.996  1.00  0.00     0.257 C 
HETATM   13  O   UNL     1      42.905 -14.514   1.584  1.00  0.00    -0.267 OA
HETATM   14  H   UNL     1      40.476 -16.508   2.130  1.00  0.00     0.171 HD
BRANCH  12  15
HETATM   15  C   UNL     1      42.944 -16.518   2.813  1.00  0.00     0.035 A 
HETATM   16  C   UNL     1      43.061 -17.844   2.381  1.00  0.00     0.041 A 
HETATM   17  C   UNL     1      43.667 -18.786   3.214  1.00  0.00     0.036 A 
HETATM   18 CL   UNL     1      43.796 -20.420   2.689  1.00  0.00    -0.084 Cl
HETATM   19  C   UNL     1      44.161 -18.422   4.464  1.00  0.00     0.047 A 
HETATM   20  C   UNL     1      44.060 -17.096   4.877  1.00  0.00     0.036 A 
HETATM   21 CL   UNL     1      44.668 -16.639   6.420  1.00  0.00    -0.084 Cl
HETATM   22  C   UNL     1      43.462 -16.140   4.059  1.00  0.00     0.041 A 
ENDBRANCH  12  15
ENDBRANCH   9  11
ENDBRANCH   7   9
ENDBRANCH   4   7
BRANCH   3  23
HETATM   23  C   UNL     1      40.914 -13.127   4.568  1.00  0.00     0.254 C 
HETATM   24  N   UNL     1      42.061 -12.478   4.965  1.00  0.00    -0.351 N 
HETATM   25  H   UNL     1      42.115 -11.469   4.874  1.00  0.00     0.163 HD
HETATM   26  O   UNL     1      40.668 -14.290   4.871  1.00  0.00    -0.268 OA
BRANCH  24  27
HETATM   27  C   UNL     1      42.922 -13.083   5.955  1.00  0.00     0.187 C 
BRANCH  27  28
HETATM   28  C   UNL     1      43.766 -12.050   6.605  1.00  0.00     0.070 A 
HETATM   29  O   UNL     1      43.138 -10.963   7.149  1.00  0.00    -0.325 OA
HETATM   30  C   UNL     1      44.104 -10.182   7.696  1.00  0.00     0.142 A 
HETATM   31  C   UNL     1      45.344 -10.751   7.520  1.00  0.00     0.027 A 
HETATM   32  C   UNL     1      45.127 -11.959   6.817  1.00  0.00     0.036 A 
ENDBRANCH  27  28
ENDBRANCH  24  27
ENDBRANCH   3  23
TORSDOF 7
ENDMDL
MODEL 4
REMARK VINA RESULT:      -8.3      4.295      7.127
REMARK  7 active torsions:
REMARK  status: ('A' for Active; 'I' for Inactive)
REMARK    1  A    between atoms: C_3  and  C_4 
REMARK       I    between atoms: C_4  and  N_5 
REMARK    2  A    between atoms: N_5  and  C_6 
REMARK    3  A    between atoms: C_6  and  C_7 
REMARK    4  A    between atoms: C_13  and  N_14 
REMARK    5  A    between atoms: N_14  and  C_15 
REMARK    6  A    between atoms: C_15  and  N_16 
REMARK       I    between atoms: N_16  and  C_17 
REMARK    7  A    between atoms: C_17  and  C_18 
ROOT
HETATM    1  C   UNL     1      46.215  -9.645   8.816  1.00  0.00     0.001 A 
HETATM    2  C   UNL     1      44.986  -9.476   9.450  1.00  0.00     0.019 A 
HETATM    3  C   UNL     1      43.821 -10.071   8.932  1.00  0.00     0.058 A 
HETATM    4  C   UNL     1      43.886 -10.839   7.751  1.00  0.00     0.050 A 
HETATM    5  C   UNL     1      45.134 -10.990   7.126  1.00  0.00     0.030 A 
HETATM    6  C   UNL     1      46.288 -10.404   7.656  1.00  0.00     0.002 A 
ENDROOT
BRANCH   4   7
HETATM    7  N   UNL     1      42.706 -11.325   7.131  1.00  0.00    -0.332 N 
HETATM    8  H   UNL     1      41.992 -11.687   7.770  1.00  0.00     0.168 HD
BRANCH   7   9
HETATM    9  C   UNL     1      42.365 -11.368   5.803  1.00  0.00     0.179 C 
HETATM   10  S   UNL     1      41.842 -10.105   4.837  1.00  0.00    -0.040 SA
BRANCH   9  11
HETATM   11  N   UNL     1      42.488 -12.599   5.189  1.00  0.00    -0.299 N 
HETATM   12  C   UNL     1      41.875 -13.793   5.535  1.00  0.00     0.257 C 
HETATM   13  O   UNL     1      41.331 -14.003   6.613  1.00  0.00    -0.267 OA
HETATM   14  H   UNL     1      42.929 -12.523   4.283  1.00  0.00     0.171 HD
BRANCH  12  15
HETATM   15  C   UNL     1      41.889 -14.855   4.494  1.00  0.00     0.035 A 
HETATM   16  C   UNL     1      40.961 -14.884   3.447  1.00  0.00     0.041 A 
HETATM   17  C   UNL     1      40.998 -15.934   2.528  1.00  0.00     0.036 A 
HETATM   18 CL   UNL     1      39.847 -15.980   1.250  1.00  0.00    -0.084 Cl
HETATM   19  C   UNL     1      41.949 -16.946   2.635  1.00  0.00     0.047 A 
HETATM   20  C   UNL     1      42.883 -16.897   3.667  1.00  0.00     0.036 A 
HETATM   21 CL   UNL     1      44.061 -18.142   3.806  1.00  0.00    -0.084 Cl
HETATM   22  C   UNL     1      42.864 -15.856   4.593  1.00  0.00     0.041 A 
ENDBRANCH  12  15
ENDBRANCH   9  11
ENDBRANCH   7   9
ENDBRANCH   4   7
BRANCH   3  23
HETATM   23  C   UNL     1      42.588  -9.889   9.751  1.00  0.00     0.254 C 
HETATM   24  N   UNL     1      42.624 -10.373  11.039  1.00  0.00    -0.351 N 
HETATM   25  H   UNL     1      43.508 -10.688  11.424  1.00  0.00     0.163 HD
HETATM   26  O   UNL     1      41.633  -9.263   9.301  1.00  0.00    -0.268 OA
BRANCH  24  27
HETATM   27  C   UNL     1      41.617  -9.962  11.989  1.00  0.00     0.187 C 
BRANCH  27  28
HETATM   28  C   UNL     1      42.139  -8.877  12.857  1.00  0.00     0.070 A 
HETATM   29  O   UNL     1      41.379  -8.496  13.929  1.00  0.00    -0.325 OA
HETATM   30  C   UNL     1      42.066  -7.519  14.573  1.00  0.00     0.142 A 
HETATM   31  C   UNL     1      43.260  -7.268  13.938  1.00  0.00     0.027 A 
HETATM   32  C   UNL     1      43.310  -8.146  12.831  1.00  0.00     0.036 A 
ENDBRANCH  27  28
ENDBRANCH  24  27
ENDBRANCH   3  23
TORSDOF 7
ENDMDL
MODEL 5
REMARK VINA RESULT:      -8.1      3.960      7.269
REMARK  7 active torsions:
REMARK  status: ('A' for Active; 'I' for Inactive)
REMARK    1  A    between atoms: C_3  and  C_4 
REMARK       I    between atoms: C_4  and  N_5 
REMARK    2  A    between atoms: N_5  and  C_6 
REMARK    3  A    between atoms: C_6  and  C_7 
REMARK    4  A    between atoms: C_13  and  N_14 
REMARK    5  A    between atoms: N_14  and  C_15 
REMARK    6  A    between atoms: C_15  and  N_16 
REMARK       I    between atoms: N_16  and  C_17 
REMARK    7  A    between atoms: C_17  and  C_18 
ROOT
HETATM    1  C   UNL     1      43.547 -19.416   2.919  1.00  0.00     0.001 A 
HETATM    2  C   UNL     1      43.084 -18.246   2.321  1.00  0.00     0.019 A 
HETATM    3  C   UNL     1      43.225 -17.003   2.967  1.00  0.00     0.058 A 
HETATM    4  C   UNL     1      43.828 -16.934   4.239  1.00  0.00     0.050 A 
HETATM    5  C   UNL     1      44.281 -18.126   4.825  1.00  0.00     0.030 A 
HETATM    6  C   UNL     1      44.148 -19.354   4.169  1.00  0.00     0.002 A 
ENDROOT
BRANCH   4   7
HETATM    7  N   UNL     1      43.848 -15.718   4.971  1.00  0.00    -0.332 N 
HETATM    8  H   UNL     1      44.563 -15.044   4.684  1.00  0.00     0.168 HD
BRANCH   7   9
HETATM    9  C   UNL     1      43.040 -15.298   5.998  1.00  0.00     0.179 C 
HETATM   10  S   UNL     1      41.759 -16.118   6.696  1.00  0.00    -0.040 SA
BRANCH   9  11
HETATM   11  N   UNL     1      43.336 -14.057   6.527  1.00  0.00    -0.299 N 
HETATM   12  C   UNL     1      43.387 -12.836   5.872  1.00  0.00     0.257 C 
HETATM   13  O   UNL     1      43.442 -12.708   4.654  1.00  0.00    -0.267 OA
HETATM   14  H   UNL     1      43.313 -14.066   7.538  1.00  0.00     0.171 HD
BRANCH  12  15
HETATM   15  C   UNL     1      43.358 -11.632   6.743  1.00  0.00     0.035 A 
HETATM   16  C   UNL     1      44.293 -11.428   7.764  1.00  0.00     0.041 A 
HETATM   17  C   UNL     1      44.185 -10.299   8.578  1.00  0.00     0.036 A 
HETATM   18 CL   UNL     1      45.325 -10.057   9.844  1.00  0.00    -0.084 Cl
HETATM   19  C   UNL     1      43.164  -9.372   8.382  1.00  0.00     0.047 A 
HETATM   20  C   UNL     1      42.251  -9.571   7.350  1.00  0.00     0.036 A 
HETATM   21 CL   UNL     1      40.988  -8.431   7.102  1.00  0.00    -0.084 Cl
HETATM   22  C   UNL     1      42.344 -10.690   6.525  1.00  0.00     0.041 A 
ENDBRANCH  12  15
ENDBRANCH   9  11
ENDBRANCH   7   9
ENDBRANCH   4   7
BRANCH   3  23
HETATM   23  C   UNL     1      42.770 -15.818   2.185  1.00  0.00     0.254 C 
HETATM   24  N   UNL     1      41.412 -15.673   2.014  1.00  0.00    -0.351 N 
HETATM   25  H   UNL     1      40.781 -16.271   2.537  1.00  0.00     0.163 HD
HETATM   26  O   UNL     1      43.583 -14.985   1.795  1.00  0.00    -0.268 OA
BRANCH  24  27
HETATM   27  C   UNL     1      40.876 -14.411   1.561  1.00  0.00     0.187 C 
BRANCH  27  28
HETATM   28  C   UNL     1      40.440 -13.590   2.717  1.00  0.00     0.070 A 
HETATM   29  O   UNL     1      40.346 -14.204   3.936  1.00  0.00    -0.325 OA
HETATM   30  C   UNL     1      39.955 -13.256   4.826  1.00  0.00     0.142 A 
HETATM   31  C   UNL     1      39.803 -12.039   4.203  1.00  0.00     0.027 A 
HETATM   32  C   UNL     1      40.118 -12.253   2.840  1.00  0.00     0.036 A 
ENDBRANCH  27  28
ENDBRANCH  24  27
ENDBRANCH   3  23
TORSDOF 7
ENDMDL
MODEL 6
REMARK VINA RESULT:      -8.0      5.737     10.136
REMARK  7 active torsions:
REMARK  status: ('A' for Active; 'I' for Inactive)
REMARK    1  A    between atoms: C_3  and  C_4 
REMARK       I    between atoms: C_4  and  N_5 
REMARK    2  A    between atoms: N_5  and  C_6 
REMARK    3  A    between atoms: C_6  and  C_7 
REMARK    4  A    between atoms: C_13  and  N_14 
REMARK    5  A    between atoms: N_14  and  C_15 
REMARK    6  A    between atoms: C_15  and  N_16 
REMARK       I    between atoms: N_16  and  C_17 
REMARK    7  A    between atoms: C_17  and  C_18 
ROOT
HETATM    1  C   UNL     1      42.439 -11.553   3.249  1.00  0.00     0.001 A 
HETATM    2  C   UNL     1      42.719 -12.765   3.874  1.00  0.00     0.019 A 
HETATM    3  C   UNL     1      42.907 -12.832   5.267  1.00  0.00     0.058 A 
HETATM    4  C   UNL     1      42.825 -11.659   6.046  1.00  0.00     0.050 A 
HETATM    5  C   UNL     1      42.548 -10.447   5.394  1.00  0.00     0.030 A 
HETATM    6  C   UNL     1      42.351 -10.396   4.011  1.00  0.00     0.002 A 
ENDROOT
BRANCH   4   7
HETATM    7  N   UNL     1      43.155 -11.677   7.426  1.00  0.00    -0.332 N 
HETATM    8  H   UNL     1      42.556 -12.265   8.013  1.00  0.00     0.168 HD
BRANCH   7   9
HETATM    9  C   UNL     1      44.168 -11.038   8.095  1.00  0.00     0.179 C 
HETATM   10  S   UNL     1      45.748 -10.815   7.590  1.00  0.00    -0.040 SA
BRANCH   9  11
HETATM   11  N   UNL     1      43.835 -10.502   9.323  1.00  0.00    -0.299 N 
HETATM   12  C   UNL     1      43.060  -9.383   9.587  1.00  0.00     0.257 C 
HETATM   13  O   UNL     1      42.769  -8.533   8.755  1.00  0.00    -0.267 OA
HETATM   14  H   UNL     1      44.040 -11.141  10.079  1.00  0.00     0.171 HD
BRANCH  12  15
HETATM   15  C   UNL     1      42.559  -9.256  10.981  1.00  0.00     0.035 A 
HETATM   16  C   UNL     1      41.445  -9.969  11.441  1.00  0.00     0.041 A 
HETATM   17  C   UNL     1      40.996  -9.771  12.747  1.00  0.00     0.036 A 
HETATM   18 CL   UNL     1      39.617 -10.635  13.307  1.00  0.00    -0.084 Cl
HETATM   19  C   UNL     1      41.644  -8.880  13.599  1.00  0.00     0.047 A 
HETATM   20  C   UNL     1      42.764  -8.191  13.141  1.00  0.00     0.036 A 
HETATM   21 CL   UNL     1      43.570  -7.089  14.187  1.00  0.00    -0.084 Cl
HETATM   22  C   UNL     1      43.230  -8.377  11.841  1.00  0.00     0.041 A 
ENDBRANCH  12  15
ENDBRANCH   9  11
ENDBRANCH   7   9
ENDBRANCH   4   7
BRANCH   3  23
HETATM   23  C   UNL     1      43.112 -14.200   5.824  1.00  0.00     0.254 C 
HETATM   24  N   UNL     1      42.257 -15.183   5.379  1.00  0.00    -0.351 N 
HETATM   25  H   UNL     1      41.637 -14.984   4.601  1.00  0.00     0.163 HD
HETATM   26  O   UNL     1      44.055 -14.427   6.575  1.00  0.00    -0.268 OA
BRANCH  24  27
HETATM   27  C   UNL     1      42.578 -16.572   5.609  1.00  0.00     0.187 C 
BRANCH  27  28
HETATM   28  C   UNL     1      42.976 -17.226   4.338  1.00  0.00     0.070 A 
HETATM   29  O   UNL     1      43.814 -18.306   4.412  1.00  0.00    -0.325 OA
HETATM   30  C   UNL     1      44.013 -18.738   3.140  1.00  0.00     0.142 A 
HETATM   31  C   UNL     1      43.312 -17.960   2.249  1.00  0.00     0.027 A 
HETATM   32  C   UNL     1      42.640 -16.984   3.022  1.00  0.00     0.036 A 
ENDBRANCH  27  28
ENDBRANCH  24  27
ENDBRANCH   3  23
TORSDOF 7
ENDMDL
MODEL 7
REMARK VINA RESULT:      -8.0      1.632      2.634
REMARK  7 active torsions:
REMARK  status: ('A' for Active; 'I' for Inactive)
REMARK    1  A    between atoms: C_3  and  C_4 
REMARK       I    between atoms: C_4  and  N_5 
REMARK    2  A    between atoms: N_5  and  C_6 
REMARK    3  A    between atoms: C_6  and  C_7 
REMARK    4  A    between atoms: C_13  and  N_14 
REMARK    5  A    between atoms: N_14  and  C_15 
REMARK    6  A    between atoms: C_15  and  N_16 
REMARK       I    between atoms: N_16  and  C_17 
REMARK    7  A    between atoms: C_17  and  C_18 
ROOT
HETATM    1  C   UNL     1      44.300 -19.207   3.955  1.00  0.00     0.001 A 
HETATM    2  C   UNL     1      43.911 -18.285   4.924  1.00  0.00     0.019 A 
HETATM    3  C   UNL     1      43.058 -17.213   4.597  1.00  0.00     0.058 A 
HETATM    4  C   UNL     1      42.600 -17.057   3.273  1.00  0.00     0.050 A 
HETATM    5  C   UNL     1      43.010 -17.994   2.312  1.00  0.00     0.030 A 
HETATM    6  C   UNL     1      43.847 -19.062   2.652  1.00  0.00     0.002 A 
ENDROOT
BRANCH   4   7
HETATM    7  N   UNL     1      41.862 -15.906   2.889  1.00  0.00    -0.332 N 
HETATM    8  H   UNL     1      40.879 -15.900   3.174  1.00  0.00     0.168 HD
BRANCH   7   9
HETATM    9  C   UNL     1      42.272 -14.789   2.206  1.00  0.00     0.179 C 
HETATM   10  S   UNL     1      43.457 -13.693   2.650  1.00  0.00    -0.040 SA
BRANCH   9  11
HETATM   11  N   UNL     1      41.640 -14.554   1.001  1.00  0.00    -0.299 N 
HETATM   12  C   UNL     1      40.397 -13.980   0.783  1.00  0.00     0.257 C 
HETATM   13  O   UNL     1      39.542 -13.835   1.649  1.00  0.00    -0.267 OA
HETATM   14  H   UNL     1      42.274 -14.650   0.220  1.00  0.00     0.171 HD
BRANCH  12  15
HETATM   15  C   UNL     1      40.133 -13.512  -0.604  1.00  0.00     0.035 A 
HETATM   16  C   UNL     1      40.599 -12.279  -1.075  1.00  0.00     0.041 A 
HETATM   17  C   UNL     1      40.279 -11.875  -2.372  1.00  0.00     0.036 A 
HETATM   18 CL   UNL     1      40.838 -10.353  -2.946  1.00  0.00    -0.084 Cl
HETATM   19  C   UNL     1      39.508 -12.685  -3.203  1.00  0.00     0.047 A 
HETATM   20  C   UNL     1      39.067 -13.920  -2.734  1.00  0.00     0.036 A 
HETATM   21 CL   UNL     1      38.116 -14.925  -3.754  1.00  0.00    -0.084 Cl
HETATM   22  C   UNL     1      39.379 -14.342  -1.443  1.00  0.00     0.041 A 
ENDBRANCH  12  15
ENDBRANCH   9  11
ENDBRANCH   7   9
ENDBRANCH   4   7
BRANCH   3  23
HETATM   23  C   UNL     1      42.644 -16.350   5.740  1.00  0.00     0.254 C 
HETATM   24  N   UNL     1      43.297 -15.145   5.873  1.00  0.00    -0.351 N 
HETATM   25  H   UNL     1      43.908 -14.828   5.128  1.00  0.00     0.163 HD
HETATM   26  O   UNL     1      41.710 -16.684   6.460  1.00  0.00    -0.268 OA
BRANCH  24  27
HETATM   27  C   UNL     1      42.751 -14.124   6.736  1.00  0.00     0.187 C 
BRANCH  27  28
HETATM   28  C   UNL     1      41.813 -13.258   5.981  1.00  0.00     0.070 A 
HETATM   29  O   UNL     1      42.270 -12.040   5.557  1.00  0.00    -0.325 OA
HETATM   30  C   UNL     1      41.252 -11.450   4.880  1.00  0.00     0.142 A 
HETATM   31  C   UNL     1      40.148 -12.269   4.855  1.00  0.00     0.027 A 
HETATM   32  C   UNL     1      40.510 -13.439   5.563  1.00  0.00     0.036 A 
ENDBRANCH  27  28
ENDBRANCH  24  27
ENDBRANCH   3  23
TORSDOF 7
ENDMDL
MODEL 8
REMARK VINA RESULT:      -8.0      3.685      7.115
REMARK  7 active torsions:
REMARK  status: ('A' for Active; 'I' for Inactive)
REMARK    1  A    between atoms: C_3  and  C_4 
REMARK       I    between atoms: C_4  and  N_5 
REMARK    2  A    between atoms: N_5  and  C_6 
REMARK    3  A    between atoms: C_6  and  C_7 
REMARK    4  A    between atoms: C_13  and  N_14 
REMARK    5  A    between atoms: N_14  and  C_15 
REMARK    6  A    between atoms: C_15  and  N_16 
REMARK       I    between atoms: N_16  and  C_17 
REMARK    7  A    between atoms: C_17  and  C_18 
ROOT
HETATM    1  C   UNL     1      43.876 -19.585   3.212  1.00  0.00     0.001 A 
HETATM    2  C   UNL     1      43.274 -18.622   2.405  1.00  0.00     0.019 A 
HETATM    3  C   UNL     1      43.090 -17.306   2.870  1.00  0.00     0.058 A 
HETATM    4  C   UNL     1      43.505 -16.953   4.170  1.00  0.00     0.050 A 
HETATM    5  C   UNL     1      44.103 -17.941   4.967  1.00  0.00     0.030 A 
HETATM    6  C   UNL     1      44.293 -19.242   4.491  1.00  0.00     0.002 A 
ENDROOT
BRANCH   4   7
HETATM    7  N   UNL     1      43.199 -15.678   4.712  1.00  0.00    -0.332 N 
HETATM    8  H   UNL     1      43.883 -14.941   4.516  1.00  0.00     0.168 HD
BRANCH   7   9
HETATM    9  C   UNL     1      42.112 -15.274   5.447  1.00  0.00     0.179 C 
HETATM   10  S   UNL     1      40.653 -16.071   5.642  1.00  0.00    -0.040 SA
BRANCH   9  11
HETATM   11  N   UNL     1      42.251 -14.075   6.118  1.00  0.00    -0.299 N 
HETATM   12  C   UNL     1      43.418 -13.469   6.556  1.00  0.00     0.257 C 
HETATM   13  O   UNL     1      44.499 -14.040   6.653  1.00  0.00    -0.267 OA
HETATM   14  H   UNL     1      41.401 -13.529   6.089  1.00  0.00     0.171 HD
BRANCH  12  15
HETATM   15  C   UNL     1      43.309 -12.028   6.906  1.00  0.00     0.035 A 
HETATM   16  C   UNL     1      42.322 -11.201   6.358  1.00  0.00     0.041 A 
HETATM   17  C   UNL     1      42.300  -9.846   6.691  1.00  0.00     0.036 A 
HETATM   18 CL   UNL     1      41.096  -8.826   6.004  1.00  0.00    -0.084 Cl
HETATM   19  C   UNL     1      43.242  -9.309   7.565  1.00  0.00     0.047 A 
HETATM   20  C   UNL     1      44.207 -10.143   8.123  1.00  0.00     0.036 A 
HETATM   21 CL   UNL     1      45.374  -9.488   9.203  1.00  0.00    -0.084 Cl
HETATM   22  C   UNL     1      44.244 -11.499   7.805  1.00  0.00     0.041 A 
ENDBRANCH  12  15
ENDBRANCH   9  11
ENDBRANCH   7   9
ENDBRANCH   4   7
BRANCH   3  23
HETATM   23  C   UNL     1      42.516 -16.349   1.880  1.00  0.00     0.254 C 
HETATM   24  N   UNL     1      41.152 -16.172   1.910  1.00  0.00    -0.351 N 
HETATM   25  H   UNL     1      40.618 -16.567   2.678  1.00  0.00     0.163 HD
HETATM   26  O   UNL     1      43.256 -15.705   1.143  1.00  0.00    -0.268 OA
BRANCH  24  27
HETATM   27  C   UNL     1      40.558 -15.048   1.224  1.00  0.00     0.187 C 
BRANCH  27  28
HETATM   28  C   UNL     1      40.497 -13.869   2.122  1.00  0.00     0.070 A 
HETATM   29  O   UNL     1      41.517 -12.959   2.050  1.00  0.00    -0.325 OA
HETATM   30  C   UNL     1      41.229 -11.974   2.939  1.00  0.00     0.142 A 
HETATM   31  C   UNL     1      40.038 -12.229   3.577  1.00  0.00     0.027 A 
HETATM   32  C   UNL     1      39.563 -13.452   3.049  1.00  0.00     0.036 A 
ENDBRANCH  27  28
ENDBRANCH  24  27
ENDBRANCH   3  23
TORSDOF 7
ENDMDL
MODEL 9
REMARK VINA RESULT:      -7.9      3.929      7.464
REMARK  7 active torsions:
REMARK  status: ('A' for Active; 'I' for Inactive)
REMARK    1  A    between atoms: C_3  and  C_4 
REMARK       I    between atoms: C_4  and  N_5 
REMARK    2  A    between atoms: N_5  and  C_6 
REMARK    3  A    between atoms: C_6  and  C_7 
REMARK    4  A    between atoms: C_13  and  N_14 
REMARK    5  A    between atoms: N_14  and  C_15 
REMARK    6  A    between atoms: C_15  and  N_16 
REMARK       I    between atoms: N_16  and  C_17 
REMARK    7  A    between atoms: C_17  and  C_18 
ROOT
HETATM    1  C   UNL     1      38.272 -12.919  -2.953  1.00  0.00     0.001 A 
HETATM    2  C   UNL     1      39.044 -11.942  -2.331  1.00  0.00     0.019 A 
HETATM    3  C   UNL     1      39.993 -12.289  -1.351  1.00  0.00     0.058 A 
HETATM    4  C   UNL     1      40.162 -13.639  -0.981  1.00  0.00     0.050 A 
HETATM    5  C   UNL     1      39.368 -14.606  -1.617  1.00  0.00     0.030 A 
HETATM    6  C   UNL     1      38.437 -14.251  -2.598  1.00  0.00     0.002 A 
ENDROOT
BRANCH   4   7
HETATM    7  N   UNL     1      41.005 -13.997   0.104  1.00  0.00    -0.332 N 
HETATM    8  H   UNL     1      42.009 -13.961  -0.091  1.00  0.00     0.168 HD
BRANCH   7   9
HETATM    9  C   UNL     1      40.678 -14.368   1.384  1.00  0.00     0.179 C 
HETATM   10  S   UNL     1      39.553 -13.660   2.401  1.00  0.00    -0.040 SA
BRANCH   9  11
HETATM   11  N   UNL     1      41.348 -15.468   1.881  1.00  0.00    -0.299 N 
HETATM   12  C   UNL     1      42.714 -15.639   2.043  1.00  0.00     0.257 C 
HETATM   13  O   UNL     1      43.566 -14.934   1.513  1.00  0.00    -0.267 OA
HETATM   14  H   UNL     1      40.720 -16.112   2.342  1.00  0.00     0.171 HD
BRANCH  12  15
HETATM   15  C   UNL     1      43.128 -16.753   2.936  1.00  0.00     0.035 A 
HETATM   16  C   UNL     1      43.344 -16.567   4.306  1.00  0.00     0.041 A 
HETATM   17  C   UNL     1      43.776 -17.643   5.084  1.00  0.00     0.036 A 
HETATM   18 CL   UNL     1      44.057 -17.412   6.766  1.00  0.00    -0.084 Cl
HETATM   19  C   UNL     1      43.988 -18.897   4.515  1.00  0.00     0.047 A 
HETATM   20  C   UNL     1      43.750 -19.078   3.155  1.00  0.00     0.036 A 
HETATM   21 CL   UNL     1      44.009 -20.623   2.446  1.00  0.00    -0.084 Cl
HETATM   22  C   UNL     1      43.315 -18.017   2.363  1.00  0.00     0.041 A 
ENDBRANCH  12  15
ENDBRANCH   9  11
ENDBRANCH   7   9
ENDBRANCH   4   7
BRANCH   3  23
HETATM   23  C   UNL     1      40.817 -11.162  -0.826  1.00  0.00     0.254 C 
HETATM   24  N   UNL     1      40.693 -10.877   0.515  1.00  0.00    -0.351 N 
HETATM   25  H   UNL     1      40.180 -11.518   1.111  1.00  0.00     0.163 HD
HETATM   26  O   UNL     1      41.617 -10.588  -1.558  1.00  0.00    -0.268 OA
BRANCH  24  27
HETATM   27  C   UNL     1      41.671 -10.036   1.164  1.00  0.00     0.187 C 
BRANCH  27  28
HETATM   28  C   UNL     1      42.090 -10.633   2.455  1.00  0.00     0.070 A 
HETATM   29  O   UNL     1      41.763  -9.965   3.604  1.00  0.00    -0.325 OA
HETATM   30  C   UNL     1      42.228 -10.709   4.639  1.00  0.00     0.142 A 
HETATM   31  C   UNL     1      42.843 -11.849   4.179  1.00  0.00     0.027 A 
HETATM   32  C   UNL     1      42.752 -11.803   2.768  1.00  0.00     0.036 A 
ENDBRANCH  27  28
ENDBRANCH  24  27
ENDBRANCH   3  23
TORSDOF 7
ENDMDL
MODEL 10
REMARK VINA RESULT:      -7.9      4.432      8.660
REMARK  7 active torsions:
REMARK  status: ('A' for Active; 'I' for Inactive)
REMARK    1  A    between atoms: C_3  and  C_4 
REMARK       I    between atoms: C_4  and  N_5 
REMARK    2  A    between atoms: N_5  and  C_6 
REMARK    3  A    between atoms: C_6  and  C_7 
REMARK    4  A    between atoms: C_13  and  N_14 
REMARK    5  A    between atoms: N_14  and  C_15 
REMARK    6  A    between atoms: C_15  and  N_16 
REMARK       I    between atoms: N_16  and  C_17 
REMARK    7  A    between atoms: C_17  and  C_18 
ROOT
HETATM    1  C   UNL     1      38.175 -13.118  -2.917  1.00  0.00     0.001 A 
HETATM    2  C   UNL     1      38.851 -12.098  -2.251  1.00  0.00     0.019 A 
HETATM    3  C   UNL     1      39.840 -12.394  -1.295  1.00  0.00     0.058 A 
HETATM    4  C   UNL     1      40.148 -13.735  -0.991  1.00  0.00     0.050 A 
HETATM    5  C   UNL     1      39.450 -14.747  -1.669  1.00  0.00     0.030 A 
HETATM    6  C   UNL     1      38.478 -14.441  -2.627  1.00  0.00     0.002 A 
ENDROOT
BRANCH   4   7
HETATM    7  N   UNL     1      41.034 -14.057   0.070  1.00  0.00    -0.332 N 
HETATM    8  H   UNL     1      42.030 -14.026  -0.164  1.00  0.00     0.168 HD
BRANCH   7   9
HETATM    9  C   UNL     1      40.758 -14.389   1.373  1.00  0.00     0.179 C 
HETATM   10  S   UNL     1      39.672 -13.651   2.411  1.00  0.00    -0.040 SA
BRANCH   9  11
HETATM   11  N   UNL     1      41.450 -15.472   1.877  1.00  0.00    -0.299 N 
HETATM   12  C   UNL     1      42.819 -15.614   2.042  1.00  0.00     0.257 C 
HETATM   13  O   UNL     1      43.657 -14.894   1.511  1.00  0.00    -0.267 OA
HETATM   14  H   UNL     1      40.834 -16.127   2.341  1.00  0.00     0.171 HD
BRANCH  12  15
HETATM   15  C   UNL     1      43.254 -16.714   2.943  1.00  0.00     0.035 A 
HETATM   16  C   UNL     1      43.372 -18.036   2.499  1.00  0.00     0.041 A 
HETATM   17  C   UNL     1      43.740 -19.033   3.405  1.00  0.00     0.036 A 
HETATM   18 CL   UNL     1      43.870 -20.661   2.863  1.00  0.00    -0.084 Cl
HETATM   19  C   UNL     1      43.995 -18.728   4.739  1.00  0.00     0.047 A 
HETATM   20  C   UNL     1      43.896 -17.406   5.167  1.00  0.00     0.036 A 
HETATM   21 CL   UNL     1      44.210 -17.021   6.814  1.00  0.00    -0.084 Cl
HETATM   22  C   UNL     1      43.533 -16.397   4.278  1.00  0.00     0.041 A 
ENDBRANCH  12  15
ENDBRANCH   9  11
ENDBRANCH   7   9
ENDBRANCH   4   7
BRANCH   3  23
HETATM   23  C   UNL     1      40.551 -11.215  -0.720  1.00  0.00     0.254 C 
HETATM   24  N   UNL     1      41.471 -10.592  -1.532  1.00  0.00    -0.351 N 
HETATM   25  H   UNL     1      41.522 -10.851  -2.512  1.00  0.00     0.163 HD
HETATM   26  O   UNL     1      40.251 -10.794   0.393  1.00  0.00    -0.268 OA
BRANCH  24  27
HETATM   27  C   UNL     1      41.959  -9.277  -1.187  1.00  0.00     0.187 C 
BRANCH  27  28
HETATM   28  C   UNL     1      41.911  -8.382  -2.369  1.00  0.00     0.070 A 
HETATM   29  O   UNL     1      43.020  -7.628  -2.644  1.00  0.00    -0.325 OA
HETATM   30  C   UNL     1      42.746  -6.918  -3.768  1.00  0.00     0.142 A 
HETATM   31  C   UNL     1      41.482  -7.208  -4.227  1.00  0.00     0.027 A 
HETATM   32  C   UNL     1      40.943  -8.155  -3.326  1.00  0.00     0.036 A 
ENDBRANCH  27  28
ENDBRANCH  24  27
ENDBRANCH   3  23
TORSDOF 7
ENDMDL
