MODEL 1
REMARK VINA RESULT:      -9.1      0.000      0.000
REMARK  3 active torsions:
REMARK  status: ('A' for Active; 'I' for Inactive)
REMARK    1  A    between atoms: C_3  and  C_4 
REMARK       I    between atoms: C_4  and  N_5 
REMARK    2  A    between atoms: N_5  and  C_6 
REMARK    3  A    between atoms: C_13  and  C_14 
REMARK       I    between atoms: C_14  and  N_15 
ROOT
HETATM    1  C   UNL     1      40.857 -14.694   1.193  1.00  0.00     0.035 A 
HETATM    2  C   UNL     1      40.393 -14.507  -0.116  1.00  0.00     0.046 A 
HETATM    3  C   UNL     1      39.390 -13.546  -0.369  1.00  0.00     0.030 A 
HETATM    4  C   UNL     1      38.872 -12.821   0.696  1.00  0.00     0.063 A 
HETATM    5  N   UNL     1      37.937 -11.990   0.147  1.00  0.00    -0.277 N 
HETATM    6  H   UNL     1      37.355 -11.316   0.632  1.00  0.00     0.189 HD
HETATM    7  N   UNL     1      37.812 -12.095  -1.186  1.00  0.00    -0.168 NA
HETATM    8  C   UNL     1      38.708 -13.053  -1.521  1.00  0.00     0.156 A 
HETATM    9  C   UNL     1      39.302 -12.990   2.014  1.00  0.00     0.034 A 
HETATM   10  C   UNL     1      40.312 -13.935   2.237  1.00  0.00     0.032 A 
ENDROOT
BRANCH   1  11
HETATM   11  N   UNL     1      41.895 -15.582   1.526  1.00  0.00    -0.325 N 
HETATM   12  C   UNL     1      43.101 -15.288   2.137  1.00  0.00     0.252 C 
HETATM   13  O   UNL     1      43.555 -14.170   2.361  1.00  0.00    -0.270 OA
HETATM   14  H   UNL     1      41.764 -16.563   1.295  1.00  0.00     0.169 HD
BRANCH  12  15
HETATM   15  C   UNL     1      43.844 -16.541   2.606  1.00  0.00     0.229 C 
HETATM   16  C   UNL     1      43.708 -16.769   4.128  1.00  0.00     0.056 C 
HETATM   17  C   UNL     1      42.391 -16.313   4.754  1.00  0.00     0.018 C 
HETATM   18  C   UNL     1      43.798 -18.256   4.126  1.00  0.00    -0.018 A 
HETATM   19  C   UNL     1      43.588 -18.729   2.839  1.00  0.00     0.076 A 
HETATM   20  C   UNL     1      43.990 -19.130   5.181  1.00  0.00     0.010 A 
HETATM   21  O   UNL     1      43.395 -17.737   1.913  1.00  0.00    -0.335 OA
HETATM   22  C   UNL     1      43.550 -20.078   2.554  1.00  0.00     0.037 A 
HETATM   23  C   UNL     1      43.749 -20.973   3.607  1.00  0.00     0.003 A 
HETATM   24  C   UNL     1      43.969 -20.502   4.913  1.00  0.00     0.001 A 
ENDBRANCH  12  15
ENDBRANCH   1  11
BRANCH   8  25
HETATM   25  C   UNL     1      38.900 -13.460  -2.920  1.00  0.00     0.270 C 
HETATM   26  N   UNL     1      37.747 -13.835  -3.555  1.00  0.00    -0.365 N 
HETATM   27  H   UNL     1      36.875 -13.795  -3.042  1.00  0.00     0.159 HD
HETATM   28  H   UNL     1      37.779 -14.112  -4.524  1.00  0.00     0.159 HD
HETATM   29  O   UNL     1      39.977 -13.468  -3.506  1.00  0.00    -0.266 OA
ENDBRANCH   8  25
TORSDOF 3
ENDMDL
MODEL 2
REMARK VINA RESULT:      -8.6      5.861      8.285
REMARK  3 active torsions:
REMARK  status: ('A' for Active; 'I' for Inactive)
REMARK    1  A    between atoms: C_3  and  C_4 
REMARK       I    between atoms: C_4  and  N_5 
REMARK    2  A    between atoms: N_5  and  C_6 
REMARK    3  A    between atoms: C_13  and  C_14 
REMARK       I    between atoms: C_14  and  N_15 
ROOT
HETATM    1  C   UNL     1      44.124 -12.734   6.824  1.00  0.00     0.035 A 
HETATM    2  C   UNL     1      43.684 -12.019   7.947  1.00  0.00     0.046 A 
HETATM    3  C   UNL     1      44.316 -10.805   8.290  1.00  0.00     0.030 A 
HETATM    4  C   UNL     1      45.377 -10.357   7.514  1.00  0.00     0.063 A 
HETATM    5  N   UNL     1      45.774  -9.182   8.087  1.00  0.00    -0.277 N 
HETATM    6  H   UNL     1      46.529  -8.577   7.785  1.00  0.00     0.189 HD
HETATM    7  N   UNL     1      45.053  -8.813   9.158  1.00  0.00    -0.168 NA
HETATM    8  C   UNL     1      44.144  -9.806   9.295  1.00  0.00     0.156 A 
HETATM    9  C   UNL     1      45.849 -11.050   6.397  1.00  0.00     0.034 A 
HETATM   10  C   UNL     1      45.193 -12.241   6.064  1.00  0.00     0.032 A 
ENDROOT
BRANCH   1  11
HETATM   11  N   UNL     1      43.513 -13.917   6.373  1.00  0.00    -0.325 N 
HETATM   12  C   UNL     1      42.388 -14.042   5.577  1.00  0.00     0.252 C 
HETATM   13  O   UNL     1      41.621 -13.143   5.245  1.00  0.00    -0.270 OA
HETATM   14  H   UNL     1      43.932 -14.799   6.657  1.00  0.00     0.169 HD
BRANCH  12  15
HETATM   15  C   UNL     1      42.196 -15.466   5.048  1.00  0.00     0.229 C 
HETATM   16  C   UNL     1      42.264 -15.534   3.506  1.00  0.00     0.056 C 
HETATM   17  C   UNL     1      43.199 -14.528   2.837  1.00  0.00     0.018 C 
HETATM   18  C   UNL     1      42.806 -16.915   3.381  1.00  0.00    -0.018 A 
HETATM   19  C   UNL     1      43.321 -17.321   4.603  1.00  0.00     0.076 A 
HETATM   20  C   UNL     1      42.895 -17.731   2.267  1.00  0.00     0.010 A 
HETATM   21  O   UNL     1      43.171 -16.392   5.599  1.00  0.00    -0.335 OA
HETATM   22  C   UNL     1      43.949 -18.539   4.763  1.00  0.00     0.037 A 
HETATM   23  C   UNL     1      44.039 -19.377   3.650  1.00  0.00     0.003 A 
HETATM   24  C   UNL     1      43.515 -18.975   2.409  1.00  0.00     0.001 A 
ENDBRANCH  12  15
ENDBRANCH   1  11
BRANCH   8  25
HETATM   25  C   UNL     1      43.133  -9.773  10.362  1.00  0.00     0.270 C 
HETATM   26  N   UNL     1      43.200 -10.830  11.227  1.00  0.00    -0.365 N 
HETATM   27  H   UNL     1      43.922 -11.528  11.087  1.00  0.00     0.159 HD
HETATM   28  H   UNL     1      42.559 -10.882  12.003  1.00  0.00     0.159 HD
HETATM   29  O   UNL     1      42.295  -8.889  10.505  1.00  0.00    -0.266 OA
ENDBRANCH   8  25
TORSDOF 3
ENDMDL
MODEL 3
REMARK VINA RESULT:      -8.4      3.965      5.728
REMARK  3 active torsions:
REMARK  status: ('A' for Active; 'I' for Inactive)
REMARK    1  A    between atoms: C_3  and  C_4 
REMARK       I    between atoms: C_4  and  N_5 
REMARK    2  A    between atoms: N_5  and  C_6 
REMARK    3  A    between atoms: C_13  and  C_14 
REMARK       I    between atoms: C_14  and  N_15 
ROOT
HETATM    1  C   UNL     1      39.835 -12.815   4.060  1.00  0.00     0.035 A 
HETATM    2  C   UNL     1      39.858 -12.158   5.298  1.00  0.00     0.046 A 
HETATM    3  C   UNL     1      39.271 -10.881   5.418  1.00  0.00     0.030 A 
HETATM    4  C   UNL     1      38.699 -10.296   4.296  1.00  0.00     0.063 A 
HETATM    5  N   UNL     1      38.226  -9.085   4.719  1.00  0.00    -0.277 N 
HETATM    6  H   UNL     1      37.748  -8.385   4.164  1.00  0.00     0.189 HD
HETATM    7  N   UNL     1      38.422  -8.836   6.024  1.00  0.00    -0.168 NA
HETATM    8  C   UNL     1      39.065  -9.940   6.472  1.00  0.00     0.156 A 
HETATM    9  C   UNL     1      38.668 -10.917   3.046  1.00  0.00     0.034 A 
HETATM   10  C   UNL     1      39.239 -12.192   2.955  1.00  0.00     0.032 A 
ENDROOT
BRANCH   1  11
HETATM   11  N   UNL     1      40.338 -14.114   3.865  1.00  0.00    -0.325 N 
HETATM   12  C   UNL     1      41.633 -14.561   4.059  1.00  0.00     0.252 C 
HETATM   13  O   UNL     1      42.620 -13.870   4.289  1.00  0.00    -0.270 OA
HETATM   14  H   UNL     1      39.688 -14.824   3.538  1.00  0.00     0.169 HD
BRANCH  12  15
HETATM   15  C   UNL     1      41.738 -16.088   4.032  1.00  0.00     0.229 C 
HETATM   16  C   UNL     1      42.052 -16.630   2.619  1.00  0.00     0.056 C 
HETATM   17  C   UNL     1      42.920 -15.731   1.740  1.00  0.00     0.018 C 
HETATM   18  C   UNL     1      42.806 -17.849   3.026  1.00  0.00    -0.018 A 
HETATM   19  C   UNL     1      43.181 -17.738   4.356  1.00  0.00     0.076 A 
HETATM   20  C   UNL     1      43.185 -18.945   2.271  1.00  0.00     0.010 A 
HETATM   21  O   UNL     1      42.743 -16.586   4.957  1.00  0.00    -0.335 OA
HETATM   22  C   UNL     1      43.949 -18.698   4.982  1.00  0.00     0.037 A 
HETATM   23  C   UNL     1      44.334 -19.812   4.234  1.00  0.00     0.003 A 
HETATM   24  C   UNL     1      43.953 -19.936   2.887  1.00  0.00     0.001 A 
ENDBRANCH  12  15
ENDBRANCH   1  11
BRANCH   8  25
HETATM   25  C   UNL     1      39.452 -10.077   7.884  1.00  0.00     0.270 C 
HETATM   26  N   UNL     1      40.759  -9.762   8.137  1.00  0.00    -0.365 N 
HETATM   27  H   UNL     1      41.343  -9.455   7.368  1.00  0.00     0.159 HD
HETATM   28  H   UNL     1      41.109  -9.807   9.081  1.00  0.00     0.159 HD
HETATM   29  O   UNL     1      38.699 -10.428   8.786  1.00  0.00    -0.266 OA
ENDBRANCH   8  25
TORSDOF 3
ENDMDL
MODEL 4
REMARK VINA RESULT:      -8.3      6.453      9.372
REMARK  3 active torsions:
REMARK  status: ('A' for Active; 'I' for Inactive)
REMARK    1  A    between atoms: C_3  and  C_4 
REMARK       I    between atoms: C_4  and  N_5 
REMARK    2  A    between atoms: N_5  and  C_6 
REMARK    3  A    between atoms: C_13  and  C_14 
REMARK       I    between atoms: C_14  and  N_15 
ROOT
HETATM    1  C   UNL     1      43.159 -13.232   6.472  1.00  0.00     0.035 A 
HETATM    2  C   UNL     1      43.397 -14.609   6.361  1.00  0.00     0.046 A 
HETATM    3  C   UNL     1      42.884 -15.317   5.253  1.00  0.00     0.030 A 
HETATM    4  C   UNL     1      42.135 -14.632   4.306  1.00  0.00     0.063 A 
HETATM    5  N   UNL     1      41.782 -15.568   3.376  1.00  0.00    -0.277 N 
HETATM    6  H   UNL     1      41.227 -15.424   2.540  1.00  0.00     0.189 HD
HETATM    7  N   UNL     1      42.251 -16.802   3.623  1.00  0.00    -0.168 NA
HETATM    8  C   UNL     1      42.938 -16.663   4.780  1.00  0.00     0.156 A 
HETATM    9  C   UNL     1      41.868 -13.263   4.391  1.00  0.00     0.034 A 
HETATM   10  C   UNL     1      42.405 -12.578   5.488  1.00  0.00     0.032 A 
ENDROOT
BRANCH   1  11
HETATM   11  N   UNL     1      43.684 -12.437   7.506  1.00  0.00    -0.325 N 
HETATM   12  C   UNL     1      44.703 -11.504   7.426  1.00  0.00     0.252 C 
HETATM   13  O   UNL     1      45.444 -11.309   6.468  1.00  0.00    -0.270 OA
HETATM   14  H   UNL     1      43.281 -12.549   8.433  1.00  0.00     0.169 HD
BRANCH  12  15
HETATM   15  C   UNL     1      44.797 -10.628   8.678  1.00  0.00     0.229 C 
HETATM   16  C   UNL     1      44.148  -9.240   8.474  1.00  0.00     0.056 C 
HETATM   17  C   UNL     1      42.946  -9.201   7.532  1.00  0.00     0.018 C 
HETATM   18  C   UNL     1      43.719  -9.001   9.880  1.00  0.00    -0.018 A 
HETATM   19  C   UNL     1      43.750 -10.197  10.581  1.00  0.00     0.076 A 
HETATM   20  C   UNL     1      43.279  -7.836  10.482  1.00  0.00     0.010 A 
HETATM   21  O   UNL     1      44.191 -11.260   9.837  1.00  0.00    -0.335 OA
HETATM   22  C   UNL     1      43.338 -10.284  11.895  1.00  0.00     0.037 A 
HETATM   23  C   UNL     1      42.897  -9.115  12.518  1.00  0.00     0.003 A 
HETATM   24  C   UNL     1      42.869  -7.898  11.816  1.00  0.00     0.001 A 
ENDBRANCH  12  15
ENDBRANCH   1  11
BRANCH   8  25
HETATM   25  C   UNL     1      43.635 -17.802   5.395  1.00  0.00     0.270 C 
HETATM   26  N   UNL     1      44.510 -18.438   4.556  1.00  0.00    -0.365 N 
HETATM   27  H   UNL     1      44.622 -18.086   3.613  1.00  0.00     0.159 HD
HETATM   28  H   UNL     1      45.049 -19.219   4.897  1.00  0.00     0.159 HD
HETATM   29  O   UNL     1      43.484 -18.174   6.553  1.00  0.00    -0.266 OA
ENDBRANCH   8  25
TORSDOF 3
ENDMDL
MODEL 5
REMARK VINA RESULT:      -8.3      6.237      8.634
REMARK  3 active torsions:
REMARK  status: ('A' for Active; 'I' for Inactive)
REMARK    1  A    between atoms: C_3  and  C_4 
REMARK       I    between atoms: C_4  and  N_5 
REMARK    2  A    between atoms: N_5  and  C_6 
REMARK    3  A    between atoms: C_13  and  C_14 
REMARK       I    between atoms: C_14  and  N_15 
ROOT
HETATM    1  C   UNL     1      43.188 -13.591   6.546  1.00  0.00     0.035 A 
HETATM    2  C   UNL     1      42.217 -13.251   5.595  1.00  0.00     0.046 A 
HETATM    3  C   UNL     1      41.675 -14.255   4.764  1.00  0.00     0.030 A 
HETATM    4  C   UNL     1      42.135 -15.558   4.898  1.00  0.00     0.063 A 
HETATM    5  N   UNL     1      41.439 -16.285   3.974  1.00  0.00    -0.277 N 
HETATM    6  H   UNL     1      41.518 -17.279   3.789  1.00  0.00     0.189 HD
HETATM    7  N   UNL     1      40.550 -15.575   3.261  1.00  0.00    -0.168 NA
HETATM    8  C   UNL     1      40.682 -14.316   3.740  1.00  0.00     0.156 A 
HETATM    9  C   UNL     1      43.109 -15.930   5.827  1.00  0.00     0.034 A 
HETATM   10  C   UNL     1      43.618 -14.920   6.654  1.00  0.00     0.032 A 
ENDROOT
BRANCH   1  11
HETATM   11  N   UNL     1      43.735 -12.669   7.456  1.00  0.00    -0.325 N 
HETATM   12  C   UNL     1      44.638 -11.652   7.197  1.00  0.00     0.252 C 
HETATM   13  O   UNL     1      45.250 -11.466   6.150  1.00  0.00    -0.270 OA
HETATM   14  H   UNL     1      43.447 -12.743   8.428  1.00  0.00     0.169 HD
BRANCH  12  15
HETATM   15  C   UNL     1      44.774 -10.674   8.366  1.00  0.00     0.229 C 
HETATM   16  C   UNL     1      44.028  -9.345   8.110  1.00  0.00     0.056 C 
HETATM   17  C   UNL     1      42.757  -9.448   7.267  1.00  0.00     0.018 C 
HETATM   18  C   UNL     1      43.693  -9.017   9.523  1.00  0.00    -0.018 A 
HETATM   19  C   UNL     1      43.849 -10.148  10.309  1.00  0.00     0.076 A 
HETATM   20  C   UNL     1      43.229  -7.832  10.068  1.00  0.00     0.010 A 
HETATM   21  O   UNL     1      44.297 -11.242   9.616  1.00  0.00    -0.335 OA
HETATM   22  C   UNL     1      43.544 -10.151  11.655  1.00  0.00     0.037 A 
HETATM   23  C   UNL     1      43.082  -8.961  12.220  1.00  0.00     0.003 A 
HETATM   24  C   UNL     1      42.927  -7.808  11.431  1.00  0.00     0.001 A 
ENDBRANCH  12  15
ENDBRANCH   1  11
BRANCH   8  25
HETATM   25  C   UNL     1      39.855 -13.214   3.227  1.00  0.00     0.270 C 
HETATM   26  N   UNL     1      38.669 -13.616   2.677  1.00  0.00    -0.365 N 
HETATM   27  H   UNL     1      38.445 -14.604   2.674  1.00  0.00     0.159 HD
HETATM   28  H   UNL     1      38.027 -12.927   2.316  1.00  0.00     0.159 HD
HETATM   29  O   UNL     1      40.160 -12.027   3.277  1.00  0.00    -0.266 OA
ENDBRANCH   8  25
TORSDOF 3
ENDMDL
MODEL 6
REMARK VINA RESULT:      -8.2      5.262      7.270
REMARK  3 active torsions:
REMARK  status: ('A' for Active; 'I' for Inactive)
REMARK    1  A    between atoms: C_3  and  C_4 
REMARK       I    between atoms: C_4  and  N_5 
REMARK    2  A    between atoms: N_5  and  C_6 
REMARK    3  A    between atoms: C_13  and  C_14 
REMARK       I    between atoms: C_14  and  N_15 
ROOT
HETATM    1  C   UNL     1      43.173 -12.631   5.931  1.00  0.00     0.035 A 
HETATM    2  C   UNL     1      44.037 -11.850   6.711  1.00  0.00     0.046 A 
HETATM    3  C   UNL     1      43.612 -10.582   7.162  1.00  0.00     0.030 A 
HETATM    4  C   UNL     1      42.349 -10.130   6.803  1.00  0.00     0.063 A 
HETATM    5  N   UNL     1      42.230  -8.895   7.376  1.00  0.00    -0.277 N 
HETATM    6  H   UNL     1      41.435  -8.268   7.321  1.00  0.00     0.189 HD
HETATM    7  N   UNL     1      43.297  -8.508   8.093  1.00  0.00    -0.168 NA
HETATM    8  C   UNL     1      44.161  -9.544   7.973  1.00  0.00     0.156 A 
HETATM    9  C   UNL     1      41.467 -10.877   6.019  1.00  0.00     0.034 A 
HETATM   10  C   UNL     1      41.903 -12.140   5.600  1.00  0.00     0.032 A 
ENDROOT
BRANCH   1  11
HETATM   11  N   UNL     1      43.488 -13.930   5.493  1.00  0.00    -0.325 N 
HETATM   12  C   UNL     1      42.694 -14.795   4.760  1.00  0.00     0.252 C 
HETATM   13  O   UNL     1      41.506 -14.648   4.489  1.00  0.00    -0.270 OA
HETATM   14  H   UNL     1      44.404 -14.297   5.736  1.00  0.00     0.169 HD
BRANCH  12  15
HETATM   15  C   UNL     1      43.477 -15.993   4.217  1.00  0.00     0.229 C 
HETATM   16  C   UNL     1      43.743 -17.061   5.302  1.00  0.00     0.056 C 
HETATM   17  C   UNL     1      42.665 -17.201   6.375  1.00  0.00     0.018 C 
HETATM   18  C   UNL     1      43.759 -18.259   4.418  1.00  0.00    -0.018 A 
HETATM   19  C   UNL     1      43.191 -17.937   3.195  1.00  0.00     0.076 A 
HETATM   20  C   UNL     1      44.186 -19.548   4.686  1.00  0.00     0.010 A 
HETATM   21  O   UNL     1      42.803 -16.626   3.096  1.00  0.00    -0.335 OA
HETATM   22  C   UNL     1      43.015 -18.878   2.201  1.00  0.00     0.037 A 
HETATM   23  C   UNL     1      43.447 -20.181   2.454  1.00  0.00     0.003 A 
HETATM   24  C   UNL     1      44.031 -20.514   3.689  1.00  0.00     0.001 A 
ENDBRANCH  12  15
ENDBRANCH   1  11
BRANCH   8  25
HETATM   25  C   UNL     1      45.471  -9.525   8.640  1.00  0.00     0.270 C 
HETATM   26  N   UNL     1      46.518  -9.249   7.804  1.00  0.00    -0.365 N 
HETATM   27  H   UNL     1      46.325  -9.070   6.826  1.00  0.00     0.159 HD
HETATM   28  H   UNL     1      47.453  -9.195   8.177  1.00  0.00     0.159 HD
HETATM   29  O   UNL     1      45.651  -9.723   9.837  1.00  0.00    -0.266 OA
ENDBRANCH   8  25
TORSDOF 3
ENDMDL
MODEL 7
REMARK VINA RESULT:      -8.2      2.948      8.718
REMARK  3 active torsions:
REMARK  status: ('A' for Active; 'I' for Inactive)
REMARK    1  A    between atoms: C_3  and  C_4 
REMARK       I    between atoms: C_4  and  N_5 
REMARK    2  A    between atoms: N_5  and  C_6 
REMARK    3  A    between atoms: C_13  and  C_14 
REMARK       I    between atoms: C_14  and  N_15 
ROOT
HETATM    1  C   UNL     1      42.298 -15.951   2.428  1.00  0.00     0.035 A 
HETATM    2  C   UNL     1      42.137 -15.846   3.816  1.00  0.00     0.046 A 
HETATM    3  C   UNL     1      42.756 -16.791   4.661  1.00  0.00     0.030 A 
HETATM    4  C   UNL     1      43.497 -17.818   4.092  1.00  0.00     0.063 A 
HETATM    5  N   UNL     1      43.960 -18.558   5.143  1.00  0.00    -0.277 N 
HETATM    6  H   UNL     1      44.537 -19.390   5.101  1.00  0.00     0.189 HD
HETATM    7  N   UNL     1      43.602 -18.094   6.351  1.00  0.00    -0.168 NA
HETATM    8  C   UNL     1      42.858 -16.998   6.070  1.00  0.00     0.156 A 
HETATM    9  C   UNL     1      43.669 -17.960   2.713  1.00  0.00     0.034 A 
HETATM   10  C   UNL     1      43.062 -16.998   1.895  1.00  0.00     0.032 A 
ENDROOT
BRANCH   1  11
HETATM   11  N   UNL     1      41.771 -15.019   1.515  1.00  0.00    -0.325 N 
HETATM   12  C   UNL     1      40.454 -14.615   1.378  1.00  0.00     0.252 C 
HETATM   13  O   UNL     1      39.475 -15.113   1.925  1.00  0.00    -0.270 OA
HETATM   14  H   UNL     1      42.420 -14.580   0.868  1.00  0.00     0.169 HD
BRANCH  12  15
HETATM   15  C   UNL     1      40.308 -13.378   0.490  1.00  0.00     0.229 C 
HETATM   16  C   UNL     1      40.133 -13.742  -1.001  1.00  0.00     0.056 C 
HETATM   17  C   UNL     1      39.393 -15.048  -1.284  1.00  0.00     0.018 C 
HETATM   18  C   UNL     1      39.305 -12.573  -1.407  1.00  0.00    -0.018 A 
HETATM   19  C   UNL     1      38.791 -11.957  -0.276  1.00  0.00     0.076 A 
HETATM   20  C   UNL     1      38.978 -12.120  -2.673  1.00  0.00     0.010 A 
HETATM   21  O   UNL     1      39.195 -12.537   0.898  1.00  0.00    -0.335 OA
HETATM   22  C   UNL     1      37.932 -10.881  -0.357  1.00  0.00     0.037 A 
HETATM   23  C   UNL     1      37.598 -10.408  -1.628  1.00  0.00     0.003 A 
HETATM   24  C   UNL     1      38.119 -11.023  -2.779  1.00  0.00     0.001 A 
ENDBRANCH  12  15
ENDBRANCH   1  11
BRANCH   8  25
HETATM   25  C   UNL     1      42.281 -16.173   7.141  1.00  0.00     0.270 C 
HETATM   26  N   UNL     1      43.105 -16.003   8.220  1.00  0.00    -0.365 N 
HETATM   27  H   UNL     1      44.025 -16.428   8.201  1.00  0.00     0.159 HD
HETATM   28  H   UNL     1      42.802 -15.435   8.995  1.00  0.00     0.159 HD
HETATM   29  O   UNL     1      41.169 -15.656   7.106  1.00  0.00    -0.266 OA
ENDBRANCH   8  25
TORSDOF 3
ENDMDL
MODEL 8
REMARK VINA RESULT:      -8.2      2.274      3.393
REMARK  3 active torsions:
REMARK  status: ('A' for Active; 'I' for Inactive)
REMARK    1  A    between atoms: C_3  and  C_4 
REMARK       I    between atoms: C_4  and  N_5 
REMARK    2  A    between atoms: N_5  and  C_6 
REMARK    3  A    between atoms: C_13  and  C_14 
REMARK       I    between atoms: C_14  and  N_15 
ROOT
HETATM    1  C   UNL     1      40.196 -14.072  -0.635  1.00  0.00     0.035 A 
HETATM    2  C   UNL     1      40.590 -12.737  -0.794  1.00  0.00     0.046 A 
HETATM    3  C   UNL     1      39.954 -11.934  -1.765  1.00  0.00     0.030 A 
HETATM    4  C   UNL     1      38.963 -12.498  -2.558  1.00  0.00     0.063 A 
HETATM    5  N   UNL     1      38.548 -11.495  -3.388  1.00  0.00    -0.277 N 
HETATM    6  H   UNL     1      37.834 -11.548  -4.105  1.00  0.00     0.189 HD
HETATM    7  N   UNL     1      39.169 -10.320  -3.195  1.00  0.00    -0.168 NA
HETATM    8  C   UNL     1      40.040 -10.574  -2.191  1.00  0.00     0.156 A 
HETATM    9  C   UNL     1      38.554 -13.828  -2.435  1.00  0.00     0.034 A 
HETATM   10  C   UNL     1      39.185 -14.599  -1.450  1.00  0.00     0.032 A 
ENDROOT
BRANCH   1  11
HETATM   11  N   UNL     1      40.729 -14.924   0.348  1.00  0.00    -0.325 N 
HETATM   12  C   UNL     1      40.799 -14.707   1.714  1.00  0.00     0.252 C 
HETATM   13  O   UNL     1      40.549 -13.659   2.302  1.00  0.00    -0.270 OA
HETATM   14  H   UNL     1      41.117 -15.811   0.039  1.00  0.00     0.169 HD
BRANCH  12  15
HETATM   15  C   UNL     1      41.168 -15.972   2.492  1.00  0.00     0.229 C 
HETATM   16  C   UNL     1      42.520 -16.566   2.039  1.00  0.00     0.056 C 
HETATM   17  C   UNL     1      43.565 -15.557   1.568  1.00  0.00     0.018 C 
HETATM   18  C   UNL     1      42.927 -17.173   3.337  1.00  0.00    -0.018 A 
HETATM   19  C   UNL     1      42.158 -16.637   4.359  1.00  0.00     0.076 A 
HETATM   20  C   UNL     1      43.935 -18.082   3.608  1.00  0.00     0.010 A 
HETATM   21  O   UNL     1      41.218 -15.739   3.926  1.00  0.00    -0.335 OA
HETATM   22  C   UNL     1      42.365 -16.972   5.681  1.00  0.00     0.037 A 
HETATM   23  C   UNL     1      43.373 -17.893   5.970  1.00  0.00     0.003 A 
HETATM   24  C   UNL     1      44.153 -18.446   4.940  1.00  0.00     0.001 A 
ENDBRANCH  12  15
ENDBRANCH   1  11
BRANCH   8  25
HETATM   25  C   UNL     1      40.916  -9.522  -1.656  1.00  0.00     0.270 C 
HETATM   26  N   UNL     1      40.282  -8.330  -1.430  1.00  0.00    -0.365 N 
HETATM   27  H   UNL     1      39.290  -8.263  -1.626  1.00  0.00     0.159 HD
HETATM   28  H   UNL     1      40.799  -7.556  -1.045  1.00  0.00     0.159 HD
HETATM   29  O   UNL     1      42.109  -9.661  -1.411  1.00  0.00    -0.266 OA
ENDBRANCH   8  25
TORSDOF 3
ENDMDL
MODEL 9
REMARK VINA RESULT:      -8.1      4.028      8.253
REMARK  3 active torsions:
REMARK  status: ('A' for Active; 'I' for Inactive)
REMARK    1  A    between atoms: C_3  and  C_4 
REMARK       I    between atoms: C_4  and  N_5 
REMARK    2  A    between atoms: N_5  and  C_6 
REMARK    3  A    between atoms: C_13  and  C_14 
REMARK       I    between atoms: C_14  and  N_15 
ROOT
HETATM    1  C   UNL     1      42.526 -12.943   3.281  1.00  0.00     0.035 A 
HETATM    2  C   UNL     1      42.399 -13.825   4.362  1.00  0.00     0.046 A 
HETATM    3  C   UNL     1      43.040 -13.527   5.583  1.00  0.00     0.030 A 
HETATM    4  C   UNL     1      43.803 -12.370   5.676  1.00  0.00     0.063 A 
HETATM    5  N   UNL     1      44.290 -12.359   6.953  1.00  0.00    -0.277 N 
HETATM    6  H   UNL     1      44.891 -11.659   7.374  1.00  0.00     0.189 HD
HETATM    7  N   UNL     1      43.897 -13.397   7.708  1.00  0.00    -0.168 NA
HETATM    8  C   UNL     1      43.120 -14.129   6.876  1.00  0.00     0.156 A 
HETATM    9  C   UNL     1      43.961 -11.475   4.616  1.00  0.00     0.034 A 
HETATM   10  C   UNL     1      43.299 -11.782   3.421  1.00  0.00     0.032 A 
ENDROOT
BRANCH   1  11
HETATM   11  N   UNL     1      41.871 -13.127   2.051  1.00  0.00    -0.325 N 
HETATM   12  C   UNL     1      40.546 -12.870   1.747  1.00  0.00     0.252 C 
HETATM   13  O   UNL     1      39.656 -12.579   2.540  1.00  0.00    -0.270 OA
HETATM   14  H   UNL     1      42.420 -13.496   1.279  1.00  0.00     0.169 HD
BRANCH  12  15
HETATM   15  C   UNL     1      40.269 -12.910   0.242  1.00  0.00     0.229 C 
HETATM   16  C   UNL     1      40.341 -14.343  -0.331  1.00  0.00     0.056 C 
HETATM   17  C   UNL     1      39.903 -15.460   0.615  1.00  0.00     0.018 C 
HETATM   18  C   UNL     1      39.357 -14.177  -1.436  1.00  0.00    -0.018 A 
HETATM   19  C   UNL     1      38.607 -13.031  -1.217  1.00  0.00     0.076 A 
HETATM   20  C   UNL     1      39.098 -15.000  -2.518  1.00  0.00     0.010 A 
HETATM   21  O   UNL     1      38.976 -12.339  -0.094  1.00  0.00    -0.335 OA
HETATM   22  C   UNL     1      37.572 -12.666  -2.053  1.00  0.00     0.037 A 
HETATM   23  C   UNL     1      37.303 -13.482  -3.153  1.00  0.00     0.003 A 
HETATM   24  C   UNL     1      38.063 -14.642  -3.385  1.00  0.00     0.001 A 
ENDBRANCH  12  15
ENDBRANCH   1  11
BRANCH   8  25
HETATM   25  C   UNL     1      42.466 -15.364   7.331  1.00  0.00     0.270 C 
HETATM   26  N   UNL     1      43.195 -16.078   8.242  1.00  0.00    -0.365 N 
HETATM   27  H   UNL     1      44.094 -15.714   8.538  1.00  0.00     0.159 HD
HETATM   28  H   UNL     1      42.818 -16.930   8.626  1.00  0.00     0.159 HD
HETATM   29  O   UNL     1      41.362 -15.749   6.961  1.00  0.00    -0.266 OA
ENDBRANCH   8  25
TORSDOF 3
ENDMDL
MODEL 10
REMARK VINA RESULT:      -8.0      2.167      3.205
REMARK  3 active torsions:
REMARK  status: ('A' for Active; 'I' for Inactive)
REMARK    1  A    between atoms: C_3  and  C_4 
REMARK       I    between atoms: C_4  and  N_5 
REMARK    2  A    between atoms: N_5  and  C_6 
REMARK    3  A    between atoms: C_13  and  C_14 
REMARK       I    between atoms: C_14  and  N_15 
ROOT
HETATM    1  C   UNL     1      39.988 -13.510  -0.407  1.00  0.00     0.035 A 
HETATM    2  C   UNL     1      39.215 -12.387  -0.082  1.00  0.00     0.046 A 
HETATM    3  C   UNL     1      38.267 -11.903  -1.008  1.00  0.00     0.030 A 
HETATM    4  C   UNL     1      38.138 -12.543  -2.233  1.00  0.00     0.063 A 
HETATM    5  N   UNL     1      37.163 -11.855  -2.900  1.00  0.00    -0.277 N 
HETATM    6  H   UNL     1      36.807 -12.043  -3.830  1.00  0.00     0.189 HD
HETATM    7  N   UNL     1      36.631 -10.834  -2.210  1.00  0.00    -0.168 NA
HETATM    8  C   UNL     1      37.302 -10.851  -1.035  1.00  0.00     0.156 A 
HETATM    9  C   UNL     1      38.899 -13.657  -2.595  1.00  0.00     0.034 A 
HETATM   10  C   UNL     1      39.819 -14.132  -1.652  1.00  0.00     0.032 A 
ENDROOT
BRANCH   1  11
HETATM   11  N   UNL     1      40.909 -14.098   0.478  1.00  0.00    -0.325 N 
HETATM   12  C   UNL     1      40.787 -15.297   1.159  1.00  0.00     0.252 C 
HETATM   13  O   UNL     1      39.781 -15.995   1.237  1.00  0.00    -0.270 OA
HETATM   14  H   UNL     1      41.775 -13.596   0.654  1.00  0.00     0.169 HD
BRANCH  12  15
HETATM   15  C   UNL     1      42.105 -15.752   1.791  1.00  0.00     0.229 C 
HETATM   16  C   UNL     1      42.246 -15.282   3.256  1.00  0.00     0.056 C 
HETATM   17  C   UNL     1      40.945 -15.183   4.051  1.00  0.00     0.018 C 
HETATM   18  C   UNL     1      43.080 -16.409   3.758  1.00  0.00    -0.018 A 
HETATM   19  C   UNL     1      43.022 -17.462   2.857  1.00  0.00     0.076 A 
HETATM   20  C   UNL     1      43.788 -16.525   4.942  1.00  0.00     0.010 A 
HETATM   21  O   UNL     1      42.266 -17.195   1.746  1.00  0.00    -0.335 OA
HETATM   22  C   UNL     1      43.651 -18.666   3.100  1.00  0.00     0.037 A 
HETATM   23  C   UNL     1      44.375 -18.795   4.287  1.00  0.00     0.003 A 
HETATM   24  C   UNL     1      44.444 -17.731   5.202  1.00  0.00     0.001 A 
ENDBRANCH  12  15
ENDBRANCH   1  11
BRANCH   8  25
HETATM   25  C   UNL     1      37.001  -9.884   0.030  1.00  0.00     0.270 C 
HETATM   26  N   UNL     1      35.939 -10.236   0.819  1.00  0.00    -0.365 N 
HETATM   27  H   UNL     1      35.462 -11.110   0.630  1.00  0.00     0.159 HD
HETATM   28  H   UNL     1      35.671  -9.642   1.588  1.00  0.00     0.159 HD
HETATM   29  O   UNL     1      37.626  -8.849   0.235  1.00  0.00    -0.266 OA
ENDBRANCH   8  25
TORSDOF 3
ENDMDL
