MODEL 1
REMARK VINA RESULT:      -7.6      0.000      0.000
REMARK  6 active torsions:
REMARK  status: ('A' for Active; 'I' for Inactive)
REMARK    1  A    between atoms: N_1  and  C_5 
REMARK    2  A    between atoms: C_5  and  C_6 
REMARK    3  A    between atoms: C_6  and  O_7 
REMARK    4  A    between atoms: C_6  and  C_8 
REMARK    5  A    between atoms: C_6  and  C_15 
REMARK    6  A    between atoms: C_18  and  C_21 
ROOT
HETATM    1  C   UNL     1      41.957 -15.115   4.352  1.00  0.00     0.135 C 
ENDROOT
BRANCH   1   2
HETATM    2  C   UNL     1      40.793 -14.844   5.364  1.00  0.00     0.277 C 
BRANCH   2   3
HETATM    3  N   UNL     1      41.243 -13.829   6.379  1.00  0.00    -0.076 N 
HETATM    4  H   UNL     1      41.174 -14.279   7.308  1.00  0.00     0.274 HD
HETATM    5  H   UNL     1      42.235 -13.584   6.251  1.00  0.00     0.274 HD
HETATM    6  H   UNL     1      40.680 -12.972   6.380  1.00  0.00     0.274 HD
ENDBRANCH   2   3
ENDBRANCH   1   2
BRANCH   1   7
HETATM    7  O   UNL     1      42.908 -14.069   4.679  1.00  0.00    -0.378 OA
HETATM    8  H   UNL     1      42.431 -13.365   5.161  1.00  0.00     0.211 HD
ENDBRANCH   1   7
BRANCH   1   9
HETATM    9  C   UNL     1      42.655 -16.469   4.489  1.00  0.00    -0.018 A 
HETATM   10  C   UNL     1      43.221 -17.157   3.401  1.00  0.00     0.012 A 
HETATM   11  C   UNL     1      43.838 -18.401   3.581  1.00  0.00     0.024 A 
HETATM   12  C   UNL     1      43.900 -18.977   4.847  1.00  0.00     0.034 A 
HETATM   13 CL   UNL     1      44.656 -20.505   5.056  1.00  0.00    -0.084 Cl
HETATM   14  C   UNL     1      43.355 -18.316   5.940  1.00  0.00     0.024 A 
HETATM   15  C   UNL     1      42.738 -17.074   5.763  1.00  0.00     0.012 A 
ENDBRANCH   1   9
BRANCH   1  16
HETATM   16  C   UNL     1      41.412 -14.877   2.934  1.00  0.00    -0.018 A 
HETATM   17  C   UNL     1      40.386 -15.668   2.394  1.00  0.00     0.011 A 
HETATM   18  C   UNL     1      39.935 -15.467   1.084  1.00  0.00     0.013 A 
HETATM   19  C   UNL     1      40.493 -14.470   0.278  1.00  0.00    -0.023 A 
HETATM   20  C   UNL     1      41.499 -13.661   0.818  1.00  0.00     0.013 A 
HETATM   21  C   UNL     1      41.949 -13.856   2.128  1.00  0.00     0.011 A 
BRANCH  19  22
HETATM   22  C   UNL     1      40.020 -14.280  -1.081  1.00  0.00     0.010 A 
HETATM   23  C   UNL     1      40.323 -13.280  -2.035  1.00  0.00     0.152 A 
HETATM   24  N   UNL     1      39.653 -13.434  -3.178  1.00  0.00    -0.187 NA
HETATM   25  N   UNL     1      38.924 -14.541  -2.972  1.00  0.00    -0.289 N 
HETATM   26  H   UNL     1      38.322 -14.866  -3.722  1.00  0.00     0.188 HD
HETATM   27  C   UNL     1      39.101 -15.081  -1.728  1.00  0.00     0.123 A 
ENDBRANCH  19  22
ENDBRANCH   1  16
TORSDOF 6
ENDMDL
MODEL 2
REMARK VINA RESULT:      -7.6      3.778      6.727
REMARK  6 active torsions:
REMARK  status: ('A' for Active; 'I' for Inactive)
REMARK    1  A    between atoms: N_1  and  C_5 
REMARK    2  A    between atoms: C_5  and  C_6 
REMARK    3  A    between atoms: C_6  and  O_7 
REMARK    4  A    between atoms: C_6  and  C_8 
REMARK    5  A    between atoms: C_6  and  C_15 
REMARK    6  A    between atoms: C_18  and  C_21 
ROOT
HETATM    1  C   UNL     1      41.397 -14.797   4.462  1.00  0.00     0.135 C 
ENDROOT
BRANCH   1   2
HETATM    2  C   UNL     1      40.578 -13.995   3.393  1.00  0.00     0.277 C 
BRANCH   2   3
HETATM    3  N   UNL     1      39.399 -13.341   4.060  1.00  0.00    -0.076 N 
HETATM    4  H   UNL     1      39.408 -12.344   3.780  1.00  0.00     0.274 HD
HETATM    5  H   UNL     1      38.509 -13.728   3.715  1.00  0.00     0.274 HD
HETATM    6  H   UNL     1      39.420 -13.401   5.083  1.00  0.00     0.274 HD
ENDBRANCH   2   3
ENDBRANCH   1   2
BRANCH   1   7
HETATM    7  O   UNL     1      40.377 -15.172   5.423  1.00  0.00    -0.378 OA
HETATM    8  H   UNL     1      40.324 -14.468   6.099  1.00  0.00     0.211 HD
ENDBRANCH   1   7
BRANCH   1   9
HETATM    9  C   UNL     1      42.083 -16.067   3.956  1.00  0.00    -0.018 A 
HETATM   10  C   UNL     1      43.066 -16.755   4.690  1.00  0.00     0.012 A 
HETATM   11  C   UNL     1      43.671 -17.907   4.174  1.00  0.00     0.024 A 
HETATM   12  C   UNL     1      43.305 -18.391   2.922  1.00  0.00     0.034 A 
HETATM   13 CL   UNL     1      44.056 -19.804   2.296  1.00  0.00    -0.084 Cl
HETATM   14  C   UNL     1      42.332 -17.735   2.179  1.00  0.00     0.024 A 
HETATM   15  C   UNL     1      41.726 -16.584   2.691  1.00  0.00     0.012 A 
ENDBRANCH   1   9
BRANCH   1  16
HETATM   16  C   UNL     1      42.383 -13.822   5.126  1.00  0.00    -0.018 A 
HETATM   17  C   UNL     1      42.714 -13.918   6.487  1.00  0.00     0.011 A 
HETATM   18  C   UNL     1      43.577 -12.992   7.086  1.00  0.00     0.013 A 
HETATM   19  C   UNL     1      44.136 -11.947   6.343  1.00  0.00    -0.023 A 
HETATM   20  C   UNL     1      43.830 -11.860   4.980  1.00  0.00     0.013 A 
HETATM   21  C   UNL     1      42.970 -12.786   4.378  1.00  0.00     0.011 A 
BRANCH  19  22
HETATM   22  C   UNL     1      45.022 -10.991   6.981  1.00  0.00     0.010 A 
HETATM   23  C   UNL     1      44.747  -9.923   7.867  1.00  0.00     0.152 A 
HETATM   24  N   UNL     1      45.842  -9.245   8.215  1.00  0.00    -0.187 NA
HETATM   25  N   UNL     1      46.829  -9.879   7.566  1.00  0.00    -0.289 N 
HETATM   26  H   UNL     1      47.778  -9.538   7.683  1.00  0.00     0.188 HD
HETATM   27  C   UNL     1      46.390 -10.927   6.806  1.00  0.00     0.123 A 
ENDBRANCH  19  22
ENDBRANCH   1  16
TORSDOF 6
ENDMDL
MODEL 3
REMARK VINA RESULT:      -7.6      4.203      6.211
REMARK  6 active torsions:
REMARK  status: ('A' for Active; 'I' for Inactive)
REMARK    1  A    between atoms: N_1  and  C_5 
REMARK    2  A    between atoms: C_5  and  C_6 
REMARK    3  A    between atoms: C_6  and  O_7 
REMARK    4  A    between atoms: C_6  and  C_8 
REMARK    5  A    between atoms: C_6  and  C_15 
REMARK    6  A    between atoms: C_18  and  C_21 
ROOT
HETATM    1  C   UNL     1      42.113 -13.487   4.076  1.00  0.00     0.135 C 
ENDROOT
BRANCH   1   2
HETATM    2  C   UNL     1      40.618 -13.408   4.537  1.00  0.00     0.277 C 
BRANCH   2   3
HETATM    3  N   UNL     1      39.728 -13.880   3.419  1.00  0.00    -0.076 N 
HETATM    4  H   UNL     1      38.906 -13.251   3.401  1.00  0.00     0.274 HD
HETATM    5  H   UNL     1      40.189 -13.777   2.504  1.00  0.00     0.274 HD
HETATM    6  H   UNL     1      39.407 -14.846   3.531  1.00  0.00     0.274 HD
ENDBRANCH   2   3
ENDBRANCH   1   2
BRANCH   1   7
HETATM    7  O   UNL     1      42.084 -12.801   2.798  1.00  0.00    -0.378 OA
HETATM    8  H   UNL     1      41.173 -12.483   2.644  1.00  0.00     0.211 HD
ENDBRANCH   1   7
BRANCH   1   9
HETATM    9  C   UNL     1      43.125 -12.785   4.984  1.00  0.00    -0.018 A 
HETATM   10  C   UNL     1      44.126 -11.925   4.499  1.00  0.00     0.012 A 
HETATM   11  C   UNL     1      45.036 -11.318   5.374  1.00  0.00     0.024 A 
HETATM   12  C   UNL     1      44.961 -11.560   6.742  1.00  0.00     0.034 A 
HETATM   13 CL   UNL     1      46.084 -10.813   7.806  1.00  0.00    -0.084 Cl
HETATM   14  C   UNL     1      43.978 -12.400   7.248  1.00  0.00     0.024 A 
HETATM   15  C   UNL     1      43.069 -13.008   6.377  1.00  0.00     0.012 A 
ENDBRANCH   1   9
BRANCH   1  16
HETATM   16  C   UNL     1      42.457 -14.967   3.847  1.00  0.00    -0.018 A 
HETATM   17  C   UNL     1      42.384 -15.912   4.883  1.00  0.00     0.011 A 
HETATM   18  C   UNL     1      42.747 -17.247   4.667  1.00  0.00     0.013 A 
HETATM   19  C   UNL     1      43.190 -17.677   3.412  1.00  0.00    -0.023 A 
HETATM   20  C   UNL     1      43.242 -16.746   2.369  1.00  0.00     0.013 A 
HETATM   21  C   UNL     1      42.876 -15.412   2.580  1.00  0.00     0.011 A 
BRANCH  19  22
HETATM   22  C   UNL     1      43.570 -19.063   3.208  1.00  0.00     0.010 A 
HETATM   23  C   UNL     1      43.553 -19.864   2.041  1.00  0.00     0.152 A 
HETATM   24  N   UNL     1      43.955 -21.116   2.268  1.00  0.00    -0.187 NA
HETATM   25  N   UNL     1      44.246 -21.124   3.577  1.00  0.00    -0.289 N 
HETATM   26  H   UNL     1      44.584 -21.989   3.988  1.00  0.00     0.188 HD
HETATM   27  C   UNL     1      44.024 -19.922   4.188  1.00  0.00     0.123 A 
ENDBRANCH  19  22
ENDBRANCH   1  16
TORSDOF 6
ENDMDL
MODEL 4
REMARK VINA RESULT:      -7.4      3.907      6.965
REMARK  6 active torsions:
REMARK  status: ('A' for Active; 'I' for Inactive)
REMARK    1  A    between atoms: N_1  and  C_5 
REMARK    2  A    between atoms: C_5  and  C_6 
REMARK    3  A    between atoms: C_6  and  O_7 
REMARK    4  A    between atoms: C_6  and  C_8 
REMARK    5  A    between atoms: C_6  and  C_15 
REMARK    6  A    between atoms: C_18  and  C_21 
ROOT
HETATM    1  C   UNL     1      41.807 -13.627   2.374  1.00  0.00     0.135 C 
ENDROOT
BRANCH   1   2
HETATM    2  C   UNL     1      42.989 -12.636   2.649  1.00  0.00     0.277 C 
BRANCH   2   3
HETATM    3  N   UNL     1      42.490 -11.488   3.482  1.00  0.00    -0.076 N 
HETATM    4  H   UNL     1      43.096 -11.436   4.320  1.00  0.00     0.274 HD
HETATM    5  H   UNL     1      42.603 -10.590   2.991  1.00  0.00     0.274 HD
HETATM    6  H   UNL     1      41.515 -11.590   3.781  1.00  0.00     0.274 HD
ENDBRANCH   2   3
ENDBRANCH   1   2
BRANCH   1   7
HETATM    7  O   UNL     1      40.852 -13.272   3.407  1.00  0.00    -0.378 OA
HETATM    8  H   UNL     1      39.967 -13.217   2.996  1.00  0.00     0.211 HD
ENDBRANCH   1   7
BRANCH   1   9
HETATM    9  C   UNL     1      41.126 -13.487   1.011  1.00  0.00    -0.018 A 
HETATM   10  C   UNL     1      41.266 -12.351   0.194  1.00  0.00     0.012 A 
HETATM   11  C   UNL     1      40.610 -12.269  -1.040  1.00  0.00     0.024 A 
HETATM   12  C   UNL     1      39.806 -13.318  -1.478  1.00  0.00     0.034 A 
HETATM   13 CL   UNL     1      39.003 -13.207  -2.992  1.00  0.00    -0.084 Cl
HETATM   14  C   UNL     1      39.656 -14.454  -0.694  1.00  0.00     0.024 A 
HETATM   15  C   UNL     1      40.310 -14.538   0.539  1.00  0.00     0.012 A 
ENDBRANCH   1   9
BRANCH   1  16
HETATM   16  C   UNL     1      42.321 -15.053   2.629  1.00  0.00    -0.018 A 
HETATM   17  C   UNL     1      43.127 -15.727   1.698  1.00  0.00     0.011 A 
HETATM   18  C   UNL     1      43.546 -17.043   1.926  1.00  0.00     0.013 A 
HETATM   19  C   UNL     1      43.175 -17.722   3.091  1.00  0.00    -0.023 A 
HETATM   20  C   UNL     1      42.393 -17.049   4.035  1.00  0.00     0.013 A 
HETATM   21  C   UNL     1      41.975 -15.732   3.812  1.00  0.00     0.011 A 
BRANCH  19  22
HETATM   22  C   UNL     1      43.611 -19.090   3.308  1.00  0.00     0.010 A 
HETATM   23  C   UNL     1      43.621 -20.207   2.439  1.00  0.00     0.152 A 
HETATM   24  N   UNL     1      44.077 -21.315   3.026  1.00  0.00    -0.187 NA
HETATM   25  N   UNL     1      44.374 -20.915   4.271  1.00  0.00    -0.289 N 
HETATM   26  H   UNL     1      44.751 -21.601   4.919  1.00  0.00     0.188 HD
HETATM   27  C   UNL     1      44.106 -19.593   4.494  1.00  0.00     0.123 A 
ENDBRANCH  19  22
ENDBRANCH   1  16
TORSDOF 6
ENDMDL
MODEL 5
REMARK VINA RESULT:      -7.3      4.886      6.807
REMARK  6 active torsions:
REMARK  status: ('A' for Active; 'I' for Inactive)
REMARK    1  A    between atoms: N_1  and  C_5 
REMARK    2  A    between atoms: C_5  and  C_6 
REMARK    3  A    between atoms: C_6  and  O_7 
REMARK    4  A    between atoms: C_6  and  C_8 
REMARK    5  A    between atoms: C_6  and  C_15 
REMARK    6  A    between atoms: C_18  and  C_21 
ROOT
HETATM    1  C   UNL     1      42.768 -13.812   5.795  1.00  0.00     0.135 C 
ENDROOT
BRANCH   1   2
HETATM    2  C   UNL     1      44.002 -13.354   6.645  1.00  0.00     0.277 C 
BRANCH   2   3
HETATM    3  N   UNL     1      43.567 -12.293   7.619  1.00  0.00    -0.076 N 
HETATM    4  H   UNL     1      44.032 -12.499   8.520  1.00  0.00     0.274 HD
HETATM    5  H   UNL     1      43.897 -11.361   7.332  1.00  0.00     0.274 HD
HETATM    6  H   UNL     1      42.553 -12.262   7.767  1.00  0.00     0.274 HD
ENDBRANCH   2   3
ENDBRANCH   1   2
BRANCH   1   7
HETATM    7  O   UNL     1      41.715 -13.899   6.789  1.00  0.00    -0.378 OA
HETATM    8  H   UNL     1      41.268 -14.762   6.682  1.00  0.00     0.211 HD
ENDBRANCH   1   7
BRANCH   1   9
HETATM    9  C   UNL     1      42.323 -12.845   4.696  1.00  0.00    -0.018 A 
HETATM   10  C   UNL     1      40.974 -12.602   4.385  1.00  0.00     0.012 A 
HETATM   11  C   UNL     1      40.622 -11.716   3.359  1.00  0.00     0.024 A 
HETATM   12  C   UNL     1      41.609 -11.059   2.631  1.00  0.00     0.034 A 
HETATM   13 CL   UNL     1      41.167  -9.976   1.372  1.00  0.00    -0.084 Cl
HETATM   14  C   UNL     1      42.950 -11.275   2.922  1.00  0.00     0.024 A 
HETATM   15  C   UNL     1      43.304 -12.160   3.945  1.00  0.00     0.012 A 
ENDBRANCH   1   9
BRANCH   1  16
HETATM   16  C   UNL     1      43.069 -15.219   5.253  1.00  0.00    -0.018 A 
HETATM   17  C   UNL     1      42.750 -15.588   3.936  1.00  0.00     0.011 A 
HETATM   18  C   UNL     1      42.987 -16.888   3.475  1.00  0.00     0.013 A 
HETATM   19  C   UNL     1      43.552 -17.855   4.313  1.00  0.00    -0.023 A 
HETATM   20  C   UNL     1      43.895 -17.488   5.618  1.00  0.00     0.013 A 
HETATM   21  C   UNL     1      43.662 -16.188   6.082  1.00  0.00     0.011 A 
BRANCH  19  22
HETATM   22  C   UNL     1      43.784 -19.201   3.821  1.00  0.00     0.010 A 
HETATM   23  C   UNL     1      43.706 -19.733   2.512  1.00  0.00     0.152 A 
HETATM   24  N   UNL     1      43.965 -21.042   2.469  1.00  0.00    -0.187 NA
HETATM   25  N   UNL     1      44.223 -21.356   3.747  1.00  0.00    -0.289 N 
HETATM   26  H   UNL     1      44.456 -22.319   3.967  1.00  0.00     0.188 HD
HETATM   27  C   UNL     1      44.119 -20.291   4.598  1.00  0.00     0.123 A 
ENDBRANCH  19  22
ENDBRANCH   1  16
TORSDOF 6
ENDMDL
MODEL 6
REMARK VINA RESULT:      -7.2     12.848     15.582
REMARK  6 active torsions:
REMARK  status: ('A' for Active; 'I' for Inactive)
REMARK    1  A    between atoms: N_1  and  C_5 
REMARK    2  A    between atoms: C_5  and  C_6 
REMARK    3  A    between atoms: C_6  and  O_7 
REMARK    4  A    between atoms: C_6  and  C_8 
REMARK    5  A    between atoms: C_6  and  C_15 
REMARK    6  A    between atoms: C_18  and  C_21 
ROOT
HETATM    1  C   UNL     1      41.228  -6.512  16.589  1.00  0.00     0.135 C 
ENDROOT
BRANCH   1   2
HETATM    2  C   UNL     1      39.968  -5.693  16.147  1.00  0.00     0.277 C 
BRANCH   2   3
HETATM    3  N   UNL     1      40.401  -4.327  15.688  1.00  0.00    -0.076 N 
HETATM    4  H   UNL     1      39.871  -3.637  16.248  1.00  0.00     0.274 HD
HETATM    5  H   UNL     1      41.396  -4.159  15.893  1.00  0.00     0.274 HD
HETATM    6  H   UNL     1      40.226  -4.154  14.693  1.00  0.00     0.274 HD
ENDBRANCH   2   3
ENDBRANCH   1   2
BRANCH   1   7
HETATM    7  O   UNL     1      42.208  -5.473  16.840  1.00  0.00    -0.378 OA
HETATM    8  H   UNL     1      42.964  -5.617  16.238  1.00  0.00     0.211 HD
ENDBRANCH   1   7
BRANCH   1   9
HETATM    9  C   UNL     1      41.064  -7.347  17.861  1.00  0.00    -0.018 A 
HETATM   10  C   UNL     1      42.150  -7.782  18.641  1.00  0.00     0.012 A 
HETATM   11  C   UNL     1      41.944  -8.555  19.790  1.00  0.00     0.024 A 
HETATM   12  C   UNL     1      40.654  -8.904  20.179  1.00  0.00     0.034 A 
HETATM   13 CL   UNL     1      40.412  -9.855  21.589  1.00  0.00    -0.084 Cl
HETATM   14  C   UNL     1      39.563  -8.481  19.430  1.00  0.00     0.024 A 
HETATM   15  C   UNL     1      39.766  -7.710  18.282  1.00  0.00     0.012 A 
ENDBRANCH   1   9
BRANCH   1  16
HETATM   16  C   UNL     1      41.684  -7.357  15.388  1.00  0.00    -0.018 A 
HETATM   17  C   UNL     1      42.853  -7.054  14.672  1.00  0.00     0.011 A 
HETATM   18  C   UNL     1      43.227  -7.806  13.552  1.00  0.00     0.013 A 
HETATM   19  C   UNL     1      42.447  -8.882  13.117  1.00  0.00    -0.023 A 
HETATM   20  C   UNL     1      41.295  -9.206  13.840  1.00  0.00     0.013 A 
HETATM   21  C   UNL     1      40.919  -8.458  14.963  1.00  0.00     0.011 A 
BRANCH  19  22
HETATM   22  C   UNL     1      42.846  -9.646  11.949  1.00  0.00     0.010 A 
HETATM   23  C   UNL     1      43.700 -10.768  11.825  1.00  0.00     0.152 A 
HETATM   24  N   UNL     1      43.842 -11.172  10.561  1.00  0.00    -0.187 NA
HETATM   25  N   UNL     1      43.071 -10.323   9.867  1.00  0.00    -0.289 N 
HETATM   26  H   UNL     1      43.014 -10.439   8.860  1.00  0.00     0.188 HD
HETATM   27  C   UNL     1      42.459  -9.384  10.650  1.00  0.00     0.123 A 
ENDBRANCH  19  22
ENDBRANCH   1  16
TORSDOF 6
ENDMDL
MODEL 7
REMARK VINA RESULT:      -6.9      9.893     12.634
REMARK  6 active torsions:
REMARK  status: ('A' for Active; 'I' for Inactive)
REMARK    1  A    between atoms: N_1  and  C_5 
REMARK    2  A    between atoms: C_5  and  C_6 
REMARK    3  A    between atoms: C_6  and  O_7 
REMARK    4  A    between atoms: C_6  and  C_8 
REMARK    5  A    between atoms: C_6  and  C_15 
REMARK    6  A    between atoms: C_18  and  C_21 
ROOT
HETATM    1  C   UNL     1      40.266  -9.388  12.594  1.00  0.00     0.135 C 
ENDROOT
BRANCH   1   2
HETATM    2  C   UNL     1      39.880 -10.802  13.146  1.00  0.00     0.277 C 
BRANCH   2   3
HETATM    3  N   UNL     1      38.699 -11.329  12.378  1.00  0.00    -0.076 N 
HETATM    4  H   UNL     1      38.108 -11.850  13.050  1.00  0.00     0.274 HD
HETATM    5  H   UNL     1      38.114 -10.563  12.016  1.00  0.00     0.274 HD
HETATM    6  H   UNL     1      38.956 -11.953  11.606  1.00  0.00     0.274 HD
ENDBRANCH   2   3
ENDBRANCH   1   2
BRANCH   1   7
HETATM    7  O   UNL     1      39.074  -8.998  11.866  1.00  0.00    -0.378 OA
HETATM    8  H   UNL     1      39.271  -8.174  11.378  1.00  0.00     0.211 HD
ENDBRANCH   1   7
BRANCH   1   9
HETATM    9  C   UNL     1      40.565  -8.322  13.650  1.00  0.00    -0.018 A 
HETATM   10  C   UNL     1      41.309  -8.579  14.814  1.00  0.00     0.012 A 
HETATM   11  C   UNL     1      41.542  -7.569  15.755  1.00  0.00     0.024 A 
HETATM   12  C   UNL     1      41.038  -6.288  15.548  1.00  0.00     0.034 A 
HETATM   13 CL   UNL     1      41.327  -5.056  16.710  1.00  0.00    -0.084 Cl
HETATM   14  C   UNL     1      40.306  -6.005  14.403  1.00  0.00     0.024 A 
HETATM   15  C   UNL     1      40.071  -7.012  13.462  1.00  0.00     0.012 A 
ENDBRANCH   1   9
BRANCH   1  16
HETATM   16  C   UNL     1      41.426  -9.572  11.602  1.00  0.00    -0.018 A 
HETATM   17  C   UNL     1      42.670 -10.084  12.004  1.00  0.00     0.011 A 
HETATM   18  C   UNL     1      43.729 -10.200  11.096  1.00  0.00     0.013 A 
HETATM   19  C   UNL     1      43.577  -9.810   9.761  1.00  0.00    -0.023 A 
HETATM   20  C   UNL     1      42.333  -9.322   9.347  1.00  0.00     0.013 A 
HETATM   21  C   UNL     1      41.270  -9.209  10.251  1.00  0.00     0.011 A 
BRANCH  19  22
HETATM   22  C   UNL     1      44.688  -9.929   8.835  1.00  0.00     0.010 A 
HETATM   23  C   UNL     1      45.053 -10.979   7.959  1.00  0.00     0.152 A 
HETATM   24  N   UNL     1      46.174 -10.722   7.282  1.00  0.00    -0.187 NA
HETATM   25  N   UNL     1      46.529  -9.501   7.709  1.00  0.00    -0.289 N 
HETATM   26  H   UNL     1      47.370  -9.083   7.322  1.00  0.00     0.188 HD
HETATM   27  C   UNL     1      45.677  -8.986   8.646  1.00  0.00     0.123 A 
ENDBRANCH  19  22
ENDBRANCH   1  16
TORSDOF 6
ENDMDL
MODEL 8
REMARK VINA RESULT:      -6.8      2.911      3.730
REMARK  6 active torsions:
REMARK  status: ('A' for Active; 'I' for Inactive)
REMARK    1  A    between atoms: N_1  and  C_5 
REMARK    2  A    between atoms: C_5  and  C_6 
REMARK    3  A    between atoms: C_6  and  O_7 
REMARK    4  A    between atoms: C_6  and  C_8 
REMARK    5  A    between atoms: C_6  and  C_15 
REMARK    6  A    between atoms: C_18  and  C_21 
ROOT
HETATM    1  C   UNL     1      40.985 -14.431   4.640  1.00  0.00     0.135 C 
ENDROOT
BRANCH   1   2
HETATM    2  C   UNL     1      41.065 -15.972   4.912  1.00  0.00     0.277 C 
BRANCH   2   3
HETATM    3  N   UNL     1      39.770 -16.437   5.518  1.00  0.00    -0.076 N 
HETATM    4  H   UNL     1      39.161 -15.604   5.607  1.00  0.00     0.274 HD
HETATM    5  H   UNL     1      39.275 -17.089   4.893  1.00  0.00     0.274 HD
HETATM    6  H   UNL     1      39.880 -16.870   6.440  1.00  0.00     0.274 HD
ENDBRANCH   2   3
ENDBRANCH   1   2
BRANCH   1   7
HETATM    7  O   UNL     1      39.797 -14.043   5.375  1.00  0.00    -0.378 OA
HETATM    8  H   UNL     1      39.379 -14.854   5.728  1.00  0.00     0.211 HD
ENDBRANCH   1   7
BRANCH   1   9
HETATM    9  C   UNL     1      42.167 -13.605   5.151  1.00  0.00    -0.018 A 
HETATM   10  C   UNL     1      42.680 -12.490   4.465  1.00  0.00     0.012 A 
HETATM   11  C   UNL     1      43.773 -11.775   4.972  1.00  0.00     0.024 A 
HETATM   12  C   UNL     1      44.368 -12.161   6.169  1.00  0.00     0.034 A 
HETATM   13 CL   UNL     1      45.710 -11.280   6.781  1.00  0.00    -0.084 Cl
HETATM   14  C   UNL     1      43.877 -13.255   6.871  1.00  0.00     0.024 A 
HETATM   15  C   UNL     1      42.787 -13.970   6.367  1.00  0.00     0.012 A 
ENDBRANCH   1   9
BRANCH   1  16
HETATM   16  C   UNL     1      40.737 -14.232   3.136  1.00  0.00    -0.018 A 
HETATM   17  C   UNL     1      39.855 -13.251   2.656  1.00  0.00     0.011 A 
HETATM   18  C   UNL     1      39.605 -13.115   1.285  1.00  0.00     0.013 A 
HETATM   19  C   UNL     1      40.229 -13.953   0.355  1.00  0.00    -0.023 A 
HETATM   20  C   UNL     1      41.129 -14.916   0.825  1.00  0.00     0.013 A 
HETATM   21  C   UNL     1      41.384 -15.052   2.194  1.00  0.00     0.011 A 
BRANCH  19  22
HETATM   22  C   UNL     1      39.953 -13.804  -1.062  1.00  0.00     0.010 A 
HETATM   23  C   UNL     1      39.214 -14.622  -1.951  1.00  0.00     0.152 A 
HETATM   24  N   UNL     1      39.215 -14.158  -3.202  1.00  0.00    -0.187 NA
HETATM   25  N   UNL     1      39.942 -13.034  -3.123  1.00  0.00    -0.289 N 
HETATM   26  H   UNL     1      40.082 -12.491  -3.970  1.00  0.00     0.188 HD
HETATM   27  C   UNL     1      40.415 -12.782  -1.865  1.00  0.00     0.123 A 
ENDBRANCH  19  22
ENDBRANCH   1  16
TORSDOF 6
ENDMDL
MODEL 9
REMARK VINA RESULT:      -6.8      4.532      6.783
REMARK  6 active torsions:
REMARK  status: ('A' for Active; 'I' for Inactive)
REMARK    1  A    between atoms: N_1  and  C_5 
REMARK    2  A    between atoms: C_5  and  C_6 
REMARK    3  A    between atoms: C_6  and  O_7 
REMARK    4  A    between atoms: C_6  and  C_8 
REMARK    5  A    between atoms: C_6  and  C_15 
REMARK    6  A    between atoms: C_18  and  C_21 
ROOT
HETATM    1  C   UNL     1      41.867 -12.584   5.218  1.00  0.00     0.135 C 
ENDROOT
BRANCH   1   2
HETATM    2  C   UNL     1      40.421 -12.584   5.821  1.00  0.00     0.277 C 
BRANCH   2   3
HETATM    3  N   UNL     1      39.453 -13.093   4.790  1.00  0.00    -0.076 N 
HETATM    4  H   UNL     1      38.706 -12.382   4.698  1.00  0.00     0.274 HD
HETATM    5  H   UNL     1      39.895 -13.166   3.863  1.00  0.00     0.274 HD
HETATM    6  H   UNL     1      39.028 -13.993   5.035  1.00  0.00     0.274 HD
ENDBRANCH   2   3
ENDBRANCH   1   2
BRANCH   1   7
HETATM    7  O   UNL     1      41.676 -11.919   3.943  1.00  0.00    -0.378 OA
HETATM    8  H   UNL     1      42.552 -11.813   3.522  1.00  0.00     0.211 HD
ENDBRANCH   1   7
BRANCH   1   9
HETATM    9  C   UNL     1      42.921 -11.815   6.017  1.00  0.00    -0.018 A 
HETATM   10  C   UNL     1      42.611 -10.724   6.848  1.00  0.00     0.012 A 
HETATM   11  C   UNL     1      43.617 -10.046   7.548  1.00  0.00     0.024 A 
HETATM   12  C   UNL     1      44.944 -10.447   7.431  1.00  0.00     0.034 A 
HETATM   13 CL   UNL     1      46.172  -9.608   8.292  1.00  0.00    -0.084 Cl
HETATM   14  C   UNL     1      45.277 -11.527   6.622  1.00  0.00     0.024 A 
HETATM   15  C   UNL     1      44.275 -12.204   5.922  1.00  0.00     0.012 A 
ENDBRANCH   1   9
BRANCH   1  16
HETATM   16  C   UNL     1      42.272 -14.046   4.969  1.00  0.00    -0.018 A 
HETATM   17  C   UNL     1      42.182 -15.020   5.976  1.00  0.00     0.011 A 
HETATM   18  C   UNL     1      42.600 -16.337   5.745  1.00  0.00     0.013 A 
HETATM   19  C   UNL     1      43.117 -16.717   4.502  1.00  0.00    -0.023 A 
HETATM   20  C   UNL     1      43.186 -15.758   3.486  1.00  0.00     0.013 A 
HETATM   21  C   UNL     1      42.766 -14.443   3.712  1.00  0.00     0.011 A 
BRANCH  19  22
HETATM   22  C   UNL     1      43.553 -18.084   4.281  1.00  0.00     0.010 A 
HETATM   23  C   UNL     1      43.994 -19.073   5.193  1.00  0.00     0.152 A 
HETATM   24  N   UNL     1      44.343 -20.212   4.592  1.00  0.00    -0.187 NA
HETATM   25  N   UNL     1      44.117 -19.968   3.294  1.00  0.00    -0.289 N 
HETATM   26  H   UNL     1      44.309 -20.708   2.625  1.00  0.00     0.188 HD
HETATM   27  C   UNL     1      43.651 -18.705   3.053  1.00  0.00     0.123 A 
ENDBRANCH  19  22
ENDBRANCH   1  16
TORSDOF 6
ENDMDL
MODEL 10
REMARK VINA RESULT:      -6.8     14.547     16.091
REMARK  6 active torsions:
REMARK  status: ('A' for Active; 'I' for Inactive)
REMARK    1  A    between atoms: N_1  and  C_5 
REMARK    2  A    between atoms: C_5  and  C_6 
REMARK    3  A    between atoms: C_6  and  O_7 
REMARK    4  A    between atoms: C_6  and  C_8 
REMARK    5  A    between atoms: C_6  and  C_15 
REMARK    6  A    between atoms: C_18  and  C_21 
ROOT
HETATM    1  C   UNL     1      45.450 -29.146  -0.169  1.00  0.00     0.135 C 
ENDROOT
BRANCH   1   2
HETATM    2  C   UNL     1      46.812 -29.724   0.345  1.00  0.00     0.277 C 
BRANCH   2   3
HETATM    3  N   UNL     1      47.817 -28.610   0.447  1.00  0.00    -0.076 N 
HETATM    4  H   UNL     1      48.695 -29.025   0.803  1.00  0.00     0.274 HD
HETATM    5  H   UNL     1      48.040 -28.219  -0.480  1.00  0.00     0.274 HD
HETATM    6  H   UNL     1      47.528 -27.852   1.073  1.00  0.00     0.274 HD
ENDBRANCH   2   3
ENDBRANCH   1   2
BRANCH   1   7
HETATM    7  O   UNL     1      45.636 -27.716  -0.014  1.00  0.00    -0.378 OA
HETATM    8  H   UNL     1      44.851 -27.356   0.445  1.00  0.00     0.211 HD
ENDBRANCH   1   7
BRANCH   1   9
HETATM    9  C   UNL     1      45.114 -29.439  -1.633  1.00  0.00    -0.018 A 
HETATM   10  C   UNL     1      45.208 -28.475  -2.651  1.00  0.00     0.012 A 
HETATM   11  C   UNL     1      44.876 -28.793  -3.974  1.00  0.00     0.024 A 
HETATM   12  C   UNL     1      44.448 -30.076  -4.300  1.00  0.00     0.034 A 
HETATM   13 CL   UNL     1      44.040 -30.456  -5.925  1.00  0.00    -0.084 Cl
HETATM   14  C   UNL     1      44.352 -31.050  -3.314  1.00  0.00     0.024 A 
HETATM   15  C   UNL     1      44.683 -30.735  -1.993  1.00  0.00     0.012 A 
ENDBRANCH   1   9
BRANCH   1  16
HETATM   16  C   UNL     1      44.347 -29.620   0.792  1.00  0.00    -0.018 A 
HETATM   17  C   UNL     1      44.594 -30.576   1.789  1.00  0.00     0.011 A 
HETATM   18  C   UNL     1      43.566 -31.029   2.624  1.00  0.00     0.013 A 
HETATM   19  C   UNL     1      42.263 -30.540   2.488  1.00  0.00    -0.023 A 
HETATM   20  C   UNL     1      42.014 -29.569   1.513  1.00  0.00     0.013 A 
HETATM   21  C   UNL     1      43.040 -29.110   0.679  1.00  0.00     0.011 A 
BRANCH  19  22
HETATM   22  C   UNL     1      41.207 -31.027   3.357  1.00  0.00     0.010 A 
HETATM   23  C   UNL     1      40.950 -30.783   4.727  1.00  0.00     0.152 A 
HETATM   24  N   UNL     1      39.885 -31.447   5.180  1.00  0.00    -0.187 NA
HETATM   25  N   UNL     1      39.443 -32.112   4.103  1.00  0.00    -0.289 N 
HETATM   26  H   UNL     1      38.619 -32.696   4.203  1.00  0.00     0.188 HD
HETATM   27  C   UNL     1      40.205 -31.901   2.987  1.00  0.00     0.123 A 
ENDBRANCH  19  22
ENDBRANCH   1  16
TORSDOF 6
ENDMDL
