MODEL 1
REMARK VINA RESULT:      -9.6      0.000      0.000
REMARK  7 active torsions:
REMARK  status: ('A' for Active; 'I' for Inactive)
REMARK    1  A    between atoms: C_9  and  C_10 
REMARK       I    between atoms: C_10  and  N_11 
REMARK    2  A    between atoms: N_11  and  C_12 
REMARK    3  A    between atoms: C_12  and  C_13 
REMARK    4  A    between atoms: C_12  and  C_22 
REMARK       I    between atoms: C_13  and  N_14 
REMARK    5  A    between atoms: N_14  and  C_15 
REMARK    6  A    between atoms: C_15  and  C_16 
REMARK    7  A    between atoms: C_22  and  C_23 
ROOT
HETATM    1  C   UNL     1      43.234 -14.166   5.590  1.00  0.00     0.180 C 
ENDROOT
BRANCH   1   2
HETATM    2  N   UNL     1      41.873 -14.333   5.034  1.00  0.00    -0.346 N 
HETATM    3  C   UNL     1      41.635 -14.649   3.729  1.00  0.00     0.249 C 
HETATM    4  O   UNL     1      42.529 -14.723   2.884  1.00  0.00    -0.271 OA
HETATM    5  H   UNL     1      41.152 -14.388   5.752  1.00  0.00     0.163 HD
BRANCH   3   6
HETATM    6  C   UNL     1      40.162 -14.792   3.287  1.00  0.00     0.281 C 
HETATM    7  N   UNL     1      39.408 -13.491   3.514  1.00  0.00    -0.058 N 
HETATM    8  C   UNL     1      39.818 -12.394   2.590  1.00  0.00     0.272 C 
HETATM    9  H   UNL     1      38.397 -13.642   3.441  1.00  0.00     0.278 HD
HETATM   10  H   UNL     1      39.622 -13.177   4.472  1.00  0.00     0.278 HD
HETATM   11  C   UNL     1      39.903 -12.827   1.156  1.00  0.00    -0.026 A 
HETATM   12  C   UNL     1      40.003 -14.186   0.808  1.00  0.00    -0.048 A 
HETATM   13  C   UNL     1      39.938 -11.854   0.145  1.00  0.00     0.009 A 
HETATM   14  C   UNL     1      40.105 -14.548  -0.543  1.00  0.00     0.008 A 
HETATM   15  C   UNL     1      39.923 -15.271   1.852  1.00  0.00     0.082 C 
HETATM   16  C   UNL     1      40.128 -13.572  -1.537  1.00  0.00     0.001 A 
HETATM   17  C   UNL     1      40.046 -12.226  -1.194  1.00  0.00     0.001 A 
ENDBRANCH   3   6
ENDBRANCH   1   2
BRANCH   1  18
HETATM   18  C   UNL     1      43.654 -15.590   6.017  1.00  0.00     0.241 C 
HETATM   19  N   UNL     1      43.962 -16.465   5.015  1.00  0.00    -0.353 N 
HETATM   20  H   UNL     1      44.146 -16.128   4.075  1.00  0.00     0.162 HD
HETATM   21  O   UNL     1      43.647 -15.903   7.213  1.00  0.00    -0.271 OA
BRANCH  19  22
HETATM   22  C   UNL     1      44.314 -17.848   5.260  1.00  0.00     0.187 C 
BRANCH  22  23
HETATM   23  C   UNL     1      43.935 -18.677   4.090  1.00  0.00     0.070 A 
HETATM   24  O   UNL     1      44.111 -20.026   4.202  1.00  0.00    -0.325 OA
HETATM   25  C   UNL     1      43.726 -20.576   3.023  1.00  0.00     0.142 A 
HETATM   26  C   UNL     1      43.320 -19.599   2.145  1.00  0.00     0.027 A 
HETATM   27  C   UNL     1      43.454 -18.369   2.834  1.00  0.00     0.036 A 
ENDBRANCH  22  23
ENDBRANCH  19  22
ENDBRANCH   1  18
BRANCH   1  28
HETATM   28  C   UNL     1      43.216 -13.168   6.753  1.00  0.00     0.075 C 
BRANCH  28  29
HETATM   29  C   UNL     1      44.347 -12.183   6.763  1.00  0.00    -0.028 A 
HETATM   30  C   UNL     1      44.615 -11.209   7.781  1.00  0.00    -0.002 A 
HETATM   31  C   UNL     1      45.732 -10.477   7.375  1.00  0.00     0.042 A 
HETATM   32  C   UNL     1      44.003 -10.870   9.005  1.00  0.00     0.014 A 
HETATM   33  C   UNL     1      46.266  -9.425   8.131  1.00  0.00     0.030 A 
HETATM   34  N   UNL     1      46.130 -10.983   6.162  1.00  0.00    -0.365 N 
HETATM   35  C   UNL     1      45.637  -9.108   9.336  1.00  0.00     0.002 A 
HETATM   36  C   UNL     1      44.521  -9.817   9.770  1.00  0.00     0.001 A 
HETATM   37  H   UNL     1      46.912 -10.629   5.626  1.00  0.00     0.165 HD
HETATM   38  C   UNL     1      45.297 -12.000   5.777  1.00  0.00     0.096 A 
ENDBRANCH  28  29
ENDBRANCH   1  28
TORSDOF 7
ENDMDL
MODEL 2
REMARK VINA RESULT:      -9.4      2.593      6.753
REMARK  7 active torsions:
REMARK  status: ('A' for Active; 'I' for Inactive)
REMARK    1  A    between atoms: C_9  and  C_10 
REMARK       I    between atoms: C_10  and  N_11 
REMARK    2  A    between atoms: N_11  and  C_12 
REMARK    3  A    between atoms: C_12  and  C_13 
REMARK    4  A    between atoms: C_12  and  C_22 
REMARK       I    between atoms: C_13  and  N_14 
REMARK    5  A    between atoms: N_14  and  C_15 
REMARK    6  A    between atoms: C_15  and  C_16 
REMARK    7  A    between atoms: C_22  and  C_23 
ROOT
HETATM    1  C   UNL     1      41.826 -14.671   1.902  1.00  0.00     0.180 C 
ENDROOT
BRANCH   1   2
HETATM    2  N   UNL     1      41.348 -14.373   0.534  1.00  0.00    -0.346 N 
HETATM    3  C   UNL     1      40.155 -14.822   0.047  1.00  0.00     0.249 C 
HETATM    4  O   UNL     1      39.425 -15.595   0.670  1.00  0.00    -0.271 OA
HETATM    5  H   UNL     1      41.892 -13.646   0.071  1.00  0.00     0.163 HD
BRANCH   3   6
HETATM    6  C   UNL     1      39.785 -14.434  -1.402  1.00  0.00     0.281 C 
HETATM    7  N   UNL     1      38.359 -13.910  -1.466  1.00  0.00    -0.058 N 
HETATM    8  C   UNL     1      38.183 -12.577  -0.820  1.00  0.00     0.272 C 
HETATM    9  H   UNL     1      38.034 -13.868  -2.436  1.00  0.00     0.278 HD
HETATM   10  H   UNL     1      37.765 -14.577  -0.952  1.00  0.00     0.278 HD
HETATM   11  C   UNL     1      39.235 -11.583  -1.217  1.00  0.00    -0.026 A 
HETATM   12  C   UNL     1      40.457 -11.996  -1.777  1.00  0.00    -0.048 A 
HETATM   13  C   UNL     1      39.018 -10.218  -0.972  1.00  0.00     0.009 A 
HETATM   14  C   UNL     1      41.424 -11.037  -2.112  1.00  0.00     0.008 A 
HETATM   15  C   UNL     1      40.720 -13.445  -2.103  1.00  0.00     0.082 C 
HETATM   16  C   UNL     1      41.191  -9.684  -1.873  1.00  0.00     0.001 A 
HETATM   17  C   UNL     1      39.990  -9.275  -1.303  1.00  0.00     0.001 A 
ENDBRANCH   3   6
ENDBRANCH   1   2
BRANCH   1  18
HETATM   18  C   UNL     1      41.924 -13.290   2.586  1.00  0.00     0.241 C 
HETATM   19  N   UNL     1      43.180 -12.785   2.771  1.00  0.00    -0.353 N 
HETATM   20  H   UNL     1      43.971 -13.174   2.268  1.00  0.00     0.162 HD
HETATM   21  O   UNL     1      40.900 -12.724   2.984  1.00  0.00    -0.271 OA
BRANCH  19  22
HETATM   22  C   UNL     1      43.430 -11.531   3.452  1.00  0.00     0.187 C 
BRANCH  22  23
HETATM   23  C   UNL     1      43.925 -11.796   4.824  1.00  0.00     0.070 A 
HETATM   24  O   UNL     1      45.080 -11.171   5.198  1.00  0.00    -0.325 OA
HETATM   25  C   UNL     1      45.354 -11.570   6.466  1.00  0.00     0.142 A 
HETATM   26  C   UNL     1      44.402 -12.456   6.909  1.00  0.00     0.027 A 
HETATM   27  C   UNL     1      43.476 -12.604   5.849  1.00  0.00     0.036 A 
ENDBRANCH  22  23
ENDBRANCH  19  22
ENDBRANCH   1  18
BRANCH   1  28
HETATM   28  C   UNL     1      43.165 -15.415   1.850  1.00  0.00     0.075 C 
BRANCH  28  29
HETATM   29  C   UNL     1      43.431 -16.328   3.009  1.00  0.00    -0.028 A 
HETATM   30  C   UNL     1      43.530 -17.758   2.958  1.00  0.00    -0.002 A 
HETATM   31  C   UNL     1      43.744 -18.210   4.260  1.00  0.00     0.042 A 
HETATM   32  C   UNL     1      43.443 -18.715   1.925  1.00  0.00     0.014 A 
HETATM   33  C   UNL     1      43.874 -19.567   4.582  1.00  0.00     0.030 A 
HETATM   34  N   UNL     1      43.775 -17.104   5.074  1.00  0.00    -0.365 N 
HETATM   35  C   UNL     1      43.778 -20.492   3.541  1.00  0.00     0.002 A 
HETATM   36  C   UNL     1      43.565 -20.076   2.230  1.00  0.00     0.001 A 
HETATM   37  H   UNL     1      43.903 -17.137   6.077  1.00  0.00     0.165 HD
HETATM   38  C   UNL     1      43.575 -15.967   4.335  1.00  0.00     0.096 A 
ENDBRANCH  28  29
ENDBRANCH   1  28
TORSDOF 7
ENDMDL
MODEL 3
REMARK VINA RESULT:      -9.4      1.766      6.692
REMARK  7 active torsions:
REMARK  status: ('A' for Active; 'I' for Inactive)
REMARK    1  A    between atoms: C_9  and  C_10 
REMARK       I    between atoms: C_10  and  N_11 
REMARK    2  A    between atoms: N_11  and  C_12 
REMARK    3  A    between atoms: C_12  and  C_13 
REMARK    4  A    between atoms: C_12  and  C_22 
REMARK       I    between atoms: C_13  and  N_14 
REMARK    5  A    between atoms: N_14  and  C_15 
REMARK    6  A    between atoms: C_15  and  C_16 
REMARK    7  A    between atoms: C_22  and  C_23 
ROOT
HETATM    1  C   UNL     1      42.410 -14.933   5.137  1.00  0.00     0.180 C 
ENDROOT
BRANCH   1   2
HETATM    2  N   UNL     1      41.173 -15.024   4.332  1.00  0.00    -0.346 N 
HETATM    3  C   UNL     1      41.174 -15.233   2.984  1.00  0.00     0.249 C 
HETATM    4  O   UNL     1      42.207 -15.263   2.312  1.00  0.00    -0.271 OA
HETATM    5  H   UNL     1      40.332 -15.117   4.901  1.00  0.00     0.163 HD
BRANCH   3   6
HETATM    6  C   UNL     1      39.805 -15.306   2.272  1.00  0.00     0.281 C 
HETATM    7  N   UNL     1      38.920 -14.145   2.699  1.00  0.00    -0.058 N 
HETATM    8  C   UNL     1      39.377 -12.823   2.180  1.00  0.00     0.272 C 
HETATM    9  H   UNL     1      37.949 -14.309   2.415  1.00  0.00     0.278 HD
HETATM   10  H   UNL     1      38.954 -14.096   3.728  1.00  0.00     0.278 HD
HETATM   11  C   UNL     1      39.720 -12.846   0.720  1.00  0.00    -0.026 A 
HETATM   12  C   UNL     1      39.986 -14.054   0.050  1.00  0.00    -0.048 A 
HETATM   13  C   UNL     1      39.832 -11.634   0.021  1.00  0.00     0.009 A 
HETATM   14  C   UNL     1      40.327 -14.030  -1.310  1.00  0.00     0.008 A 
HETATM   15  C   UNL     1      39.834 -15.385   0.743  1.00  0.00     0.082 C 
HETATM   16  C   UNL     1      40.424 -12.820  -1.994  1.00  0.00     0.001 A 
HETATM   17  C   UNL     1      40.178 -11.623  -1.329  1.00  0.00     0.001 A 
ENDBRANCH   3   6
ENDBRANCH   1   2
BRANCH   1  18
HETATM   18  C   UNL     1      42.736 -13.424   5.177  1.00  0.00     0.241 C 
HETATM   19  N   UNL     1      42.433 -12.761   6.332  1.00  0.00    -0.353 N 
HETATM   20  H   UNL     1      42.245 -13.276   7.187  1.00  0.00     0.162 HD
HETATM   21  O   UNL     1      43.195 -12.865   4.174  1.00  0.00    -0.271 OA
BRANCH  19  22
HETATM   22  C   UNL     1      42.626 -11.335   6.494  1.00  0.00     0.187 C 
BRANCH  22  23
HETATM   23  C   UNL     1      43.960 -11.073   7.085  1.00  0.00     0.070 A 
HETATM   24  O   UNL     1      43.990 -10.618   8.371  1.00  0.00    -0.325 OA
HETATM   25  C   UNL     1      45.294 -10.427   8.695  1.00  0.00     0.142 A 
HETATM   26  C   UNL     1      46.105 -10.736   7.630  1.00  0.00     0.027 A 
HETATM   27  C   UNL     1      45.245 -11.155   6.586  1.00  0.00     0.036 A 
ENDBRANCH  22  23
ENDBRANCH  19  22
ENDBRANCH   1  18
BRANCH   1  28
HETATM   28  C   UNL     1      43.523 -15.774   4.502  1.00  0.00     0.075 C 
BRANCH  28  29
HETATM   29  C   UNL     1      43.645 -17.172   5.030  1.00  0.00    -0.028 A 
HETATM   30  C   UNL     1      43.744 -18.370   4.247  1.00  0.00    -0.002 A 
HETATM   31  C   UNL     1      43.798 -19.446   5.134  1.00  0.00     0.042 A 
HETATM   32  C   UNL     1      43.777 -18.642   2.864  1.00  0.00     0.014 A 
HETATM   33  C   UNL     1      43.884 -20.777   4.708  1.00  0.00     0.030 A 
HETATM   34  N   UNL     1      43.737 -18.929   6.405  1.00  0.00    -0.365 N 
HETATM   35  C   UNL     1      43.910 -21.018   3.332  1.00  0.00     0.002 A 
HETATM   36  C   UNL     1      43.857 -19.967   2.421  1.00  0.00     0.001 A 
HETATM   37  H   UNL     1      43.744 -19.487   7.249  1.00  0.00     0.165 HD
HETATM   38  C   UNL     1      43.631 -17.563   6.355  1.00  0.00     0.096 A 
ENDBRANCH  28  29
ENDBRANCH   1  28
TORSDOF 7
ENDMDL
MODEL 4
REMARK VINA RESULT:      -9.2      2.810      7.691
REMARK  7 active torsions:
REMARK  status: ('A' for Active; 'I' for Inactive)
REMARK    1  A    between atoms: C_9  and  C_10 
REMARK       I    between atoms: C_10  and  N_11 
REMARK    2  A    between atoms: N_11  and  C_12 
REMARK    3  A    between atoms: C_12  and  C_13 
REMARK    4  A    between atoms: C_12  and  C_22 
REMARK       I    between atoms: C_13  and  N_14 
REMARK    5  A    between atoms: N_14  and  C_15 
REMARK    6  A    between atoms: C_15  and  C_16 
REMARK    7  A    between atoms: C_22  and  C_23 
ROOT
HETATM    1  C   UNL     1      43.410 -11.505   6.885  1.00  0.00     0.180 C 
ENDROOT
BRANCH   1   2
HETATM    2  N   UNL     1      42.847 -12.850   7.138  1.00  0.00    -0.346 N 
HETATM    3  C   UNL     1      43.514 -14.004   6.848  1.00  0.00     0.249 C 
HETATM    4  O   UNL     1      44.597 -14.022   6.261  1.00  0.00    -0.271 OA
HETATM    5  H   UNL     1      42.014 -12.830   7.724  1.00  0.00     0.163 HD
BRANCH   3   6
HETATM    6  C   UNL     1      42.802 -15.338   7.166  1.00  0.00     0.281 C 
HETATM    7  N   UNL     1      41.372 -15.315   6.650  1.00  0.00    -0.058 N 
HETATM    8  C   UNL     1      41.273 -15.353   5.162  1.00  0.00     0.272 C 
HETATM    9  H   UNL     1      40.832 -16.089   7.051  1.00  0.00     0.278 HD
HETATM   10  H   UNL     1      40.948 -14.428   6.961  1.00  0.00     0.278 HD
HETATM   11  C   UNL     1      42.149 -16.398   4.537  1.00  0.00    -0.026 A 
HETATM   12  C   UNL     1      43.232 -16.959   5.236  1.00  0.00    -0.048 A 
HETATM   13  C   UNL     1      41.916 -16.782   3.207  1.00  0.00     0.009 A 
HETATM   14  C   UNL     1      44.042 -17.915   4.607  1.00  0.00     0.008 A 
HETATM   15  C   UNL     1      43.496 -16.614   6.681  1.00  0.00     0.082 C 
HETATM   16  C   UNL     1      43.793 -18.295   3.289  1.00  0.00     0.001 A 
HETATM   17  C   UNL     1      42.732 -17.730   2.590  1.00  0.00     0.001 A 
ENDBRANCH   3   6
ENDBRANCH   1   2
BRANCH   1  18
HETATM   18  C   UNL     1      44.044 -11.092   8.231  1.00  0.00     0.241 C 
HETATM   19  N   UNL     1      43.214 -10.509   9.146  1.00  0.00    -0.353 N 
HETATM   20  H   UNL     1      42.206 -10.575   9.044  1.00  0.00     0.162 HD
HETATM   21  O   UNL     1      45.256 -11.246   8.416  1.00  0.00    -0.271 OA
BRANCH  19  22
HETATM   22  C   UNL     1      43.679 -10.016  10.426  1.00  0.00     0.187 C 
BRANCH  22  23
HETATM   23  C   UNL     1      42.544  -9.946  11.378  1.00  0.00     0.070 A 
HETATM   24  O   UNL     1      41.306  -9.714  10.852  1.00  0.00    -0.325 OA
HETATM   25  C   UNL     1      40.435  -9.667  11.891  1.00  0.00     0.142 A 
HETATM   26  C   UNL     1      41.095  -9.849  13.082  1.00  0.00     0.027 A 
HETATM   27  C   UNL     1      42.461 -10.029  12.753  1.00  0.00     0.036 A 
ENDBRANCH  22  23
ENDBRANCH  19  22
ENDBRANCH   1  18
BRANCH   1  28
HETATM   28  C   UNL     1      42.311 -10.546   6.415  1.00  0.00     0.075 C 
BRANCH  28  29
HETATM   29  C   UNL     1      41.125 -11.202   5.774  1.00  0.00    -0.028 A 
HETATM   30  C   UNL     1      41.099 -11.842   4.492  1.00  0.00    -0.002 A 
HETATM   31  C   UNL     1      39.793 -12.279   4.268  1.00  0.00     0.042 A 
HETATM   32  C   UNL     1      42.064 -12.080   3.490  1.00  0.00     0.014 A 
HETATM   33  C   UNL     1      39.403 -12.940   3.096  1.00  0.00     0.030 A 
HETATM   34  N   UNL     1      39.052 -11.922   5.368  1.00  0.00    -0.365 N 
HETATM   35  C   UNL     1      40.377 -13.157   2.119  1.00  0.00     0.002 A 
HETATM   36  C   UNL     1      41.690 -12.733   2.310  1.00  0.00     0.001 A 
HETATM   37  H   UNL     1      38.062 -12.103   5.471  1.00  0.00     0.165 HD
HETATM   38  C   UNL     1      39.838 -11.261   6.275  1.00  0.00     0.096 A 
ENDBRANCH  28  29
ENDBRANCH   1  28
TORSDOF 7
ENDMDL
MODEL 5
REMARK VINA RESULT:      -9.0      1.439      7.281
REMARK  7 active torsions:
REMARK  status: ('A' for Active; 'I' for Inactive)
REMARK    1  A    between atoms: C_9  and  C_10 
REMARK       I    between atoms: C_10  and  N_11 
REMARK    2  A    between atoms: N_11  and  C_12 
REMARK    3  A    between atoms: C_12  and  C_13 
REMARK    4  A    between atoms: C_12  and  C_22 
REMARK       I    between atoms: C_13  and  N_14 
REMARK    5  A    between atoms: N_14  and  C_15 
REMARK    6  A    between atoms: C_15  and  C_16 
REMARK    7  A    between atoms: C_22  and  C_23 
ROOT
HETATM    1  C   UNL     1      42.132 -14.666   4.723  1.00  0.00     0.180 C 
ENDROOT
BRANCH   1   2
HETATM    2  N   UNL     1      42.736 -13.316   4.707  1.00  0.00    -0.346 N 
HETATM    3  C   UNL     1      43.525 -12.840   5.713  1.00  0.00     0.249 C 
HETATM    4  O   UNL     1      43.718 -13.457   6.762  1.00  0.00    -0.271 OA
HETATM    5  H   UNL     1      42.673 -12.861   3.797  1.00  0.00     0.163 HD
BRANCH   3   6
HETATM    6  C   UNL     1      44.088 -11.409   5.562  1.00  0.00     0.281 C 
HETATM    7  N   UNL     1      42.966 -10.385   5.630  1.00  0.00    -0.058 N 
HETATM    8  C   UNL     1      42.362 -10.250   6.987  1.00  0.00     0.272 C 
HETATM    9  H   UNL     1      43.294  -9.469   5.307  1.00  0.00     0.278 HD
HETATM   10  H   UNL     1      42.220 -10.705   4.996  1.00  0.00     0.278 HD
HETATM   11  C   UNL     1      43.383 -10.137   8.081  1.00  0.00    -0.026 A 
HETATM   12  C   UNL     1      44.715 -10.542   7.884  1.00  0.00    -0.048 A 
HETATM   13  C   UNL     1      42.987  -9.669   9.344  1.00  0.00     0.009 A 
HETATM   14  C   UNL     1      45.633 -10.442   8.939  1.00  0.00     0.008 A 
HETATM   15  C   UNL     1      45.201 -11.008   6.533  1.00  0.00     0.082 C 
HETATM   16  C   UNL     1      45.228  -9.966  10.185  1.00  0.00     0.001 A 
HETATM   17  C   UNL     1      43.907  -9.580  10.388  1.00  0.00     0.001 A 
ENDBRANCH   3   6
ENDBRANCH   1   2
BRANCH   1  18
HETATM   18  C   UNL     1      42.796 -15.401   3.537  1.00  0.00     0.241 C 
HETATM   19  N   UNL     1      42.641 -16.757   3.491  1.00  0.00    -0.353 N 
HETATM   20  H   UNL     1      41.930 -17.213   4.054  1.00  0.00     0.162 HD
HETATM   21  O   UNL     1      43.474 -14.767   2.720  1.00  0.00    -0.271 OA
BRANCH  19  22
HETATM   22  C   UNL     1      43.256 -17.584   2.474  1.00  0.00     0.187 C 
BRANCH  22  23
HETATM   23  C   UNL     1      43.551 -18.926   3.031  1.00  0.00     0.070 A 
HETATM   24  O   UNL     1      43.956 -18.982   4.333  1.00  0.00    -0.325 OA
HETATM   25  C   UNL     1      44.190 -20.288   4.621  1.00  0.00     0.142 A 
HETATM   26  C   UNL     1      43.958 -21.074   3.518  1.00  0.00     0.027 A 
HETATM   27  C   UNL     1      43.544 -20.195   2.487  1.00  0.00     0.036 A 
ENDBRANCH  22  23
ENDBRANCH  19  22
ENDBRANCH   1  18
BRANCH   1  28
HETATM   28  C   UNL     1      40.608 -14.571   4.596  1.00  0.00     0.075 C 
BRANCH  28  29
HETATM   29  C   UNL     1      40.115 -13.591   3.574  1.00  0.00    -0.028 A 
HETATM   30  C   UNL     1      39.969 -13.831   2.168  1.00  0.00    -0.002 A 
HETATM   31  C   UNL     1      39.521 -12.646   1.585  1.00  0.00     0.042 A 
HETATM   32  C   UNL     1      40.192 -14.945   1.332  1.00  0.00     0.014 A 
HETATM   33  C   UNL     1      39.285 -12.518   0.210  1.00  0.00     0.030 A 
HETATM   34  N   UNL     1      39.396 -11.720   2.591  1.00  0.00    -0.365 N 
HETATM   35  C   UNL     1      39.518 -13.635  -0.595  1.00  0.00     0.002 A 
HETATM   36  C   UNL     1      39.966 -14.832  -0.046  1.00  0.00     0.001 A 
HETATM   37  H   UNL     1      39.100 -10.762   2.452  1.00  0.00     0.165 HD
HETATM   38  C   UNL     1      39.763 -12.272   3.791  1.00  0.00     0.096 A 
ENDBRANCH  28  29
ENDBRANCH   1  28
TORSDOF 7
ENDMDL
MODEL 6
REMARK VINA RESULT:      -9.0      2.386      8.010
REMARK  7 active torsions:
REMARK  status: ('A' for Active; 'I' for Inactive)
REMARK    1  A    between atoms: C_9  and  C_10 
REMARK       I    between atoms: C_10  and  N_11 
REMARK    2  A    between atoms: N_11  and  C_12 
REMARK    3  A    between atoms: C_12  and  C_13 
REMARK    4  A    between atoms: C_12  and  C_22 
REMARK       I    between atoms: C_13  and  N_14 
REMARK    5  A    between atoms: N_14  and  C_15 
REMARK    6  A    between atoms: C_15  and  C_16 
REMARK    7  A    between atoms: C_22  and  C_23 
ROOT
HETATM    1  C   UNL     1      40.988 -11.533   2.970  1.00  0.00     0.180 C 
ENDROOT
BRANCH   1   2
HETATM    2  N   UNL     1      40.512 -12.844   3.464  1.00  0.00    -0.346 N 
HETATM    3  C   UNL     1      41.345 -13.791   3.986  1.00  0.00     0.249 C 
HETATM    4  O   UNL     1      42.571 -13.672   3.997  1.00  0.00    -0.271 OA
HETATM    5  H   UNL     1      39.499 -12.890   3.563  1.00  0.00     0.163 HD
BRANCH   3   6
HETATM    6  C   UNL     1      40.708 -15.115   4.463  1.00  0.00     0.281 C 
HETATM    7  N   UNL     1      40.094 -15.864   3.291  1.00  0.00    -0.058 N 
HETATM    8  C   UNL     1      41.103 -16.424   2.346  1.00  0.00     0.272 C 
HETATM    9  H   UNL     1      39.481 -16.615   3.624  1.00  0.00     0.278 HD
HETATM   10  H   UNL     1      39.523 -15.189   2.761  1.00  0.00     0.278 HD
HETATM   11  C   UNL     1      42.223 -17.146   3.034  1.00  0.00    -0.026 A 
HETATM   12  C   UNL     1      42.499 -16.938   4.397  1.00  0.00    -0.048 A 
HETATM   13  C   UNL     1      43.048 -18.004   2.290  1.00  0.00     0.009 A 
HETATM   14  C   UNL     1      43.570 -17.615   4.998  1.00  0.00     0.008 A 
HETATM   15  C   UNL     1      41.615 -16.064   5.252  1.00  0.00     0.082 C 
HETATM   16  C   UNL     1      44.374 -18.472   4.249  1.00  0.00     0.001 A 
HETATM   17  C   UNL     1      44.114 -18.666   2.896  1.00  0.00     0.001 A 
ENDBRANCH   3   6
ENDBRANCH   1   2
BRANCH   1  18
HETATM   18  C   UNL     1      41.070 -10.650   4.235  1.00  0.00     0.241 C 
HETATM   19  N   UNL     1      42.188 -10.786   5.008  1.00  0.00    -0.353 N 
HETATM   20  H   UNL     1      43.014 -11.247   4.641  1.00  0.00     0.162 HD
HETATM   21  O   UNL     1      40.126  -9.909   4.532  1.00  0.00    -0.271 OA
BRANCH  19  22
HETATM   22  C   UNL     1      42.375 -10.070   6.252  1.00  0.00     0.187 C 
BRANCH  22  23
HETATM   23  C   UNL     1      43.671 -10.454   6.862  1.00  0.00     0.070 A 
HETATM   24  O   UNL     1      43.920 -10.002   8.125  1.00  0.00    -0.325 OA
HETATM   25  C   UNL     1      45.155 -10.449   8.471  1.00  0.00     0.142 A 
HETATM   26  C   UNL     1      45.712 -11.168   7.441  1.00  0.00     0.027 A 
HETATM   27  C   UNL     1      44.754 -11.174   6.398  1.00  0.00     0.036 A 
ENDBRANCH  22  23
ENDBRANCH  19  22
ENDBRANCH   1  18
BRANCH   1  28
HETATM   28  C   UNL     1      40.029 -10.982   1.910  1.00  0.00     0.075 C 
BRANCH  28  29
HETATM   29  C   UNL     1      40.526 -11.065   0.498  1.00  0.00    -0.028 A 
HETATM   30  C   UNL     1      40.296 -12.141  -0.422  1.00  0.00    -0.002 A 
HETATM   31  C   UNL     1      40.967 -11.831  -1.605  1.00  0.00     0.042 A 
HETATM   32  C   UNL     1      39.590 -13.359  -0.354  1.00  0.00     0.014 A 
HETATM   33  C   UNL     1      40.968 -12.676  -2.722  1.00  0.00     0.030 A 
HETATM   34  N   UNL     1      41.581 -10.616  -1.418  1.00  0.00    -0.365 N 
HETATM   35  C   UNL     1      40.265 -13.879  -2.625  1.00  0.00     0.002 A 
HETATM   36  C   UNL     1      39.585 -14.219  -1.459  1.00  0.00     0.001 A 
HETATM   37  H   UNL     1      42.152 -10.153  -2.113  1.00  0.00     0.165 HD
HETATM   38  C   UNL     1      41.334 -10.151  -0.152  1.00  0.00     0.096 A 
ENDBRANCH  28  29
ENDBRANCH   1  28
TORSDOF 7
ENDMDL
MODEL 7
REMARK VINA RESULT:      -9.0      3.751      7.499
REMARK  7 active torsions:
REMARK  status: ('A' for Active; 'I' for Inactive)
REMARK    1  A    between atoms: C_9  and  C_10 
REMARK       I    between atoms: C_10  and  N_11 
REMARK    2  A    between atoms: N_11  and  C_12 
REMARK    3  A    between atoms: C_12  and  C_13 
REMARK    4  A    between atoms: C_12  and  C_22 
REMARK       I    between atoms: C_13  and  N_14 
REMARK    5  A    between atoms: N_14  and  C_15 
REMARK    6  A    between atoms: C_15  and  C_16 
REMARK    7  A    between atoms: C_22  and  C_23 
ROOT
HETATM    1  C   UNL     1      41.076 -13.152   1.599  1.00  0.00     0.180 C 
ENDROOT
BRANCH   1   2
HETATM    2  N   UNL     1      40.697 -13.337   0.181  1.00  0.00    -0.346 N 
HETATM    3  C   UNL     1      39.993 -14.416  -0.268  1.00  0.00     0.249 C 
HETATM    4  O   UNL     1      39.704 -15.373   0.452  1.00  0.00    -0.271 OA
HETATM    5  H   UNL     1      40.833 -12.498  -0.381  1.00  0.00     0.163 HD
BRANCH   3   6
HETATM    6  C   UNL     1      39.668 -14.478  -1.776  1.00  0.00     0.281 C 
HETATM    7  N   UNL     1      38.185 -14.233  -2.012  1.00  0.00    -0.058 N 
HETATM    8  C   UNL     1      37.763 -12.827  -1.745  1.00  0.00     0.272 C 
HETATM    9  H   UNL     1      37.925 -14.494  -2.968  1.00  0.00     0.278 HD
HETATM   10  H   UNL     1      37.667 -14.835  -1.357  1.00  0.00     0.278 HD
HETATM   11  C   UNL     1      38.674 -11.807  -2.362  1.00  0.00    -0.026 A 
HETATM   12  C   UNL     1      39.980 -12.140  -2.763  1.00  0.00    -0.048 A 
HETATM   13  C   UNL     1      38.233 -10.481  -2.490  1.00  0.00     0.009 A 
HETATM   14  C   UNL     1      40.808 -11.151  -3.313  1.00  0.00     0.008 A 
HETATM   15  C   UNL     1      40.485 -13.560  -2.689  1.00  0.00     0.082 C 
HETATM   16  C   UNL     1      40.354  -9.840  -3.444  1.00  0.00     0.001 A 
HETATM   17  C   UNL     1      39.068  -9.505  -3.033  1.00  0.00     0.001 A 
ENDBRANCH   3   6
ENDBRANCH   1   2
BRANCH   1  18
HETATM   18  C   UNL     1      40.742 -11.674   1.899  1.00  0.00     0.241 C 
HETATM   19  N   UNL     1      40.703 -10.825   0.830  1.00  0.00    -0.353 N 
HETATM   20  H   UNL     1      40.647 -11.189  -0.116  1.00  0.00     0.162 HD
HETATM   21  O   UNL     1      40.579 -11.303   3.067  1.00  0.00    -0.271 OA
BRANCH  19  22
HETATM   22  C   UNL     1      40.462  -9.403   0.965  1.00  0.00     0.187 C 
BRANCH  22  23
HETATM   23  C   UNL     1      41.260  -8.662  -0.042  1.00  0.00     0.070 A 
HETATM   24  O   UNL     1      42.406  -9.257  -0.484  1.00  0.00    -0.325 OA
HETATM   25  C   UNL     1      42.979  -8.404  -1.371  1.00  0.00     0.142 A 
HETATM   26  C   UNL     1      42.228  -7.260  -1.494  1.00  0.00     0.027 A 
HETATM   27  C   UNL     1      41.114  -7.425  -0.635  1.00  0.00     0.036 A 
ENDBRANCH  22  23
ENDBRANCH  19  22
ENDBRANCH   1  18
BRANCH   1  28
HETATM   28  C   UNL     1      42.557 -13.489   1.804  1.00  0.00     0.075 C 
BRANCH  28  29
HETATM   29  C   UNL     1      42.859 -14.323   3.013  1.00  0.00    -0.028 A 
HETATM   30  C   UNL     1      43.131 -15.731   3.026  1.00  0.00    -0.002 A 
HETATM   31  C   UNL     1      43.317 -16.109   4.356  1.00  0.00     0.042 A 
HETATM   32  C   UNL     1      43.223 -16.726   2.031  1.00  0.00     0.014 A 
HETATM   33  C   UNL     1      43.589 -17.428   4.741  1.00  0.00     0.030 A 
HETATM   34  N   UNL     1      43.166 -14.980   5.124  1.00  0.00    -0.365 N 
HETATM   35  C   UNL     1      43.669 -18.393   3.735  1.00  0.00     0.002 A 
HETATM   36  C   UNL     1      43.488 -18.051   2.398  1.00  0.00     0.001 A 
HETATM   37  H   UNL     1      43.235 -14.963   6.133  1.00  0.00     0.165 HD
HETATM   38  C   UNL     1      42.877 -13.902   4.329  1.00  0.00     0.096 A 
ENDBRANCH  28  29
ENDBRANCH   1  28
TORSDOF 7
ENDMDL
MODEL 8
REMARK VINA RESULT:      -8.9      3.837      7.183
REMARK  7 active torsions:
REMARK  status: ('A' for Active; 'I' for Inactive)
REMARK    1  A    between atoms: C_9  and  C_10 
REMARK       I    between atoms: C_10  and  N_11 
REMARK    2  A    between atoms: N_11  and  C_12 
REMARK    3  A    between atoms: C_12  and  C_13 
REMARK    4  A    between atoms: C_12  and  C_22 
REMARK       I    between atoms: C_13  and  N_14 
REMARK    5  A    between atoms: N_14  and  C_15 
REMARK    6  A    between atoms: C_15  and  C_16 
REMARK    7  A    between atoms: C_22  and  C_23 
ROOT
HETATM    1  C   UNL     1      40.896 -15.302   2.141  1.00  0.00     0.180 C 
ENDROOT
BRANCH   1   2
HETATM    2  N   UNL     1      40.191 -15.191   0.845  1.00  0.00    -0.346 N 
HETATM    3  C   UNL     1      40.504 -14.255  -0.096  1.00  0.00     0.249 C 
HETATM    4  O   UNL     1      41.331 -13.362   0.096  1.00  0.00    -0.271 OA
HETATM    5  H   UNL     1      39.597 -15.995   0.644  1.00  0.00     0.163 HD
BRANCH   3   6
HETATM    6  C   UNL     1      39.682 -14.257  -1.404  1.00  0.00     0.281 C 
HETATM    7  N   UNL     1      38.290 -13.696  -1.160  1.00  0.00    -0.058 N 
HETATM    8  C   UNL     1      38.276 -12.230  -0.885  1.00  0.00     0.272 C 
HETATM    9  H   UNL     1      37.674 -13.903  -1.953  1.00  0.00     0.278 HD
HETATM   10  H   UNL     1      37.912 -14.165  -0.324  1.00  0.00     0.278 HD
HETATM   11  C   UNL     1      39.112 -11.438  -1.848  1.00  0.00    -0.026 A 
HETATM   12  C   UNL     1      40.109 -12.052  -2.626  1.00  0.00    -0.048 A 
HETATM   13  C   UNL     1      38.932 -10.049  -1.932  1.00  0.00     0.009 A 
HETATM   14  C   UNL     1      40.885 -11.273  -3.497  1.00  0.00     0.008 A 
HETATM   15  C   UNL     1      40.310 -13.547  -2.607  1.00  0.00     0.082 C 
HETATM   16  C   UNL     1      40.688  -9.895  -3.578  1.00  0.00     0.001 A 
HETATM   17  C   UNL     1      39.713  -9.284  -2.797  1.00  0.00     0.001 A 
ENDBRANCH   3   6
ENDBRANCH   1   2
BRANCH   1  18
HETATM   18  C   UNL     1      40.698 -13.922   2.808  1.00  0.00     0.241 C 
HETATM   19  N   UNL     1      41.790 -13.104   2.860  1.00  0.00    -0.353 N 
HETATM   20  H   UNL     1      42.601 -13.289   2.278  1.00  0.00     0.162 HD
HETATM   21  O   UNL     1      39.607 -13.630   3.308  1.00  0.00    -0.271 OA
BRANCH  19  22
HETATM   22  C   UNL     1      41.771 -11.808   3.507  1.00  0.00     0.187 C 
BRANCH  22  23
HETATM   23  C   UNL     1      41.333 -10.772   2.541  1.00  0.00     0.070 A 
HETATM   24  O   UNL     1      42.113 -10.583   1.437  1.00  0.00    -0.325 OA
HETATM   25  C   UNL     1      41.543  -9.586   0.714  1.00  0.00     0.142 A 
HETATM   26  C   UNL     1      40.415  -9.117   1.345  1.00  0.00     0.027 A 
HETATM   27  C   UNL     1      40.277  -9.883   2.528  1.00  0.00     0.036 A 
ENDBRANCH  22  23
ENDBRANCH  19  22
ENDBRANCH   1  18
BRANCH   1  28
HETATM   28  C   UNL     1      42.370 -15.658   1.917  1.00  0.00     0.075 C 
BRANCH  28  29
HETATM   29  C   UNL     1      43.003 -16.465   3.011  1.00  0.00    -0.028 A 
HETATM   30  C   UNL     1      43.244 -17.879   2.992  1.00  0.00    -0.002 A 
HETATM   31  C   UNL     1      43.809 -18.223   4.220  1.00  0.00     0.042 A 
HETATM   32  C   UNL     1      43.020 -18.903   2.049  1.00  0.00     0.014 A 
HETATM   33  C   UNL     1      44.161 -19.538   4.553  1.00  0.00     0.030 A 
HETATM   34  N   UNL     1      43.911 -17.070   4.959  1.00  0.00    -0.365 N 
HETATM   35  C   UNL     1      43.923 -20.533   3.602  1.00  0.00     0.002 A 
HETATM   36  C   UNL     1      43.360 -20.223   2.367  1.00  0.00     0.001 A 
HETATM   37  H   UNL     1      44.275 -17.026   5.902  1.00  0.00     0.165 HD
HETATM   38  C   UNL     1      43.416 -16.007   4.248  1.00  0.00     0.096 A 
ENDBRANCH  28  29
ENDBRANCH   1  28
TORSDOF 7
ENDMDL
MODEL 9
REMARK VINA RESULT:      -8.8      2.530      7.987
REMARK  7 active torsions:
REMARK  status: ('A' for Active; 'I' for Inactive)
REMARK    1  A    between atoms: C_9  and  C_10 
REMARK       I    between atoms: C_10  and  N_11 
REMARK    2  A    between atoms: N_11  and  C_12 
REMARK    3  A    between atoms: C_12  and  C_13 
REMARK    4  A    between atoms: C_12  and  C_22 
REMARK       I    between atoms: C_13  and  N_14 
REMARK    5  A    between atoms: N_14  and  C_15 
REMARK    6  A    between atoms: C_15  and  C_16 
REMARK    7  A    between atoms: C_22  and  C_23 
ROOT
HETATM    1  C   UNL     1      41.025 -14.924   0.991  1.00  0.00     0.180 C 
ENDROOT
BRANCH   1   2
HETATM    2  N   UNL     1      41.114 -13.576   1.593  1.00  0.00    -0.346 N 
HETATM    3  C   UNL     1      42.258 -13.081   2.146  1.00  0.00     0.249 C 
HETATM    4  O   UNL     1      43.283 -13.752   2.281  1.00  0.00    -0.271 OA
HETATM    5  H   UNL     1      40.310 -12.988   1.376  1.00  0.00     0.163 HD
BRANCH   3   6
HETATM    6  C   UNL     1      42.204 -11.655   2.739  1.00  0.00     0.281 C 
HETATM    7  N   UNL     1      41.047 -11.527   3.718  1.00  0.00    -0.058 N 
HETATM    8  C   UNL     1      41.248 -12.293   4.983  1.00  0.00     0.272 C 
HETATM    9  H   UNL     1      40.867 -10.543   3.936  1.00  0.00     0.278 HD
HETATM   10  H   UNL     1      40.212 -11.917   3.257  1.00  0.00     0.278 HD
HETATM   11  C   UNL     1      42.606 -12.092   5.587  1.00  0.00    -0.026 A 
HETATM   12  C   UNL     1      43.679 -11.595   4.826  1.00  0.00    -0.048 A 
HETATM   13  C   UNL     1      42.824 -12.460   6.924  1.00  0.00     0.009 A 
HETATM   14  C   UNL     1      44.940 -11.445   5.423  1.00  0.00     0.008 A 
HETATM   15  C   UNL     1      43.486 -11.142   3.400  1.00  0.00     0.082 C 
HETATM   16  C   UNL     1      45.139 -11.805   6.754  1.00  0.00     0.001 A 
HETATM   17  C   UNL     1      44.083 -12.312   7.504  1.00  0.00     0.001 A 
ENDBRANCH   3   6
ENDBRANCH   1   2
BRANCH   1  18
HETATM   18  C   UNL     1      40.265 -14.706  -0.336  1.00  0.00     0.241 C 
HETATM   19  N   UNL     1      40.657 -13.645  -1.101  1.00  0.00    -0.353 N 
HETATM   20  H   UNL     1      41.548 -13.188  -0.930  1.00  0.00     0.162 HD
HETATM   21  O   UNL     1      39.316 -15.442  -0.632  1.00  0.00    -0.271 OA
BRANCH  19  22
HETATM   22  C   UNL     1      39.998 -13.281  -2.338  1.00  0.00     0.187 C 
BRANCH  22  23
HETATM   23  C   UNL     1      38.924 -12.296  -2.063  1.00  0.00     0.070 A 
HETATM   24  O   UNL     1      37.841 -12.312  -2.893  1.00  0.00    -0.325 OA
HETATM   25  C   UNL     1      37.007 -11.325  -2.476  1.00  0.00     0.142 A 
HETATM   26  C   UNL     1      37.544 -10.663  -1.399  1.00  0.00     0.027 A 
HETATM   27  C   UNL     1      38.785 -11.289  -1.129  1.00  0.00     0.036 A 
ENDBRANCH  22  23
ENDBRANCH  19  22
ENDBRANCH   1  18
BRANCH   1  28
HETATM   28  C   UNL     1      40.311 -15.889   1.944  1.00  0.00     0.075 C 
BRANCH  28  29
HETATM   29  C   UNL     1      41.060 -16.211   3.202  1.00  0.00    -0.028 A 
HETATM   30  C   UNL     1      42.217 -17.052   3.310  1.00  0.00    -0.002 A 
HETATM   31  C   UNL     1      42.567 -17.111   4.659  1.00  0.00     0.042 A 
HETATM   32  C   UNL     1      42.992 -17.782   2.386  1.00  0.00     0.014 A 
HETATM   33  C   UNL     1      43.651 -17.863   5.130  1.00  0.00     0.030 A 
HETATM   34  N   UNL     1      41.664 -16.339   5.348  1.00  0.00    -0.365 N 
HETATM   35  C   UNL     1      44.399 -18.580   4.193  1.00  0.00     0.002 A 
HETATM   36  C   UNL     1      44.076 -18.543   2.840  1.00  0.00     0.001 A 
HETATM   37  H   UNL     1      41.671 -16.212   6.351  1.00  0.00     0.165 HD
HETATM   38  C   UNL     1      40.745 -15.803   4.484  1.00  0.00     0.096 A 
ENDBRANCH  28  29
ENDBRANCH   1  28
TORSDOF 7
ENDMDL
MODEL 10
REMARK VINA RESULT:      -8.8      1.956      3.048
REMARK  7 active torsions:
REMARK  status: ('A' for Active; 'I' for Inactive)
REMARK    1  A    between atoms: C_9  and  C_10 
REMARK       I    between atoms: C_10  and  N_11 
REMARK    2  A    between atoms: N_11  and  C_12 
REMARK    3  A    between atoms: C_12  and  C_13 
REMARK    4  A    between atoms: C_12  and  C_22 
REMARK       I    between atoms: C_13  and  N_14 
REMARK    5  A    between atoms: N_14  and  C_15 
REMARK    6  A    between atoms: C_15  and  C_16 
REMARK    7  A    between atoms: C_22  and  C_23 
ROOT
HETATM    1  C   UNL     1      42.974 -13.463   3.318  1.00  0.00     0.180 C 
ENDROOT
BRANCH   1   2
HETATM    2  N   UNL     1      41.764 -12.913   2.669  1.00  0.00    -0.346 N 
HETATM    3  C   UNL     1      41.696 -11.643   2.174  1.00  0.00     0.249 C 
HETATM    4  O   UNL     1      42.601 -10.819   2.317  1.00  0.00    -0.271 OA
HETATM    5  H   UNL     1      41.070 -13.626   2.449  1.00  0.00     0.163 HD
BRANCH   3   6
HETATM    6  C   UNL     1      40.366 -11.203   1.522  1.00  0.00     0.281 C 
HETATM    7  N   UNL     1      40.613 -10.110   0.494  1.00  0.00    -0.058 N 
HETATM    8  C   UNL     1      41.319 -10.590  -0.730  1.00  0.00     0.272 C 
HETATM    9  H   UNL     1      39.732  -9.660   0.228  1.00  0.00     0.278 HD
HETATM   10  H   UNL     1      41.219  -9.404   0.936  1.00  0.00     0.278 HD
HETATM   11  C   UNL     1      40.742 -11.858  -1.288  1.00  0.00    -0.026 A 
HETATM   12  C   UNL     1      39.930 -12.698  -0.505  1.00  0.00    -0.048 A 
HETATM   13  C   UNL     1      41.066 -12.241  -2.599  1.00  0.00     0.009 A 
HETATM   14  C   UNL     1      39.431 -13.887  -1.056  1.00  0.00     0.008 A 
HETATM   15  C   UNL     1      39.516 -12.309   0.892  1.00  0.00     0.082 C 
HETATM   16  C   UNL     1      39.752 -14.250  -2.363  1.00  0.00     0.001 A 
HETATM   17  C   UNL     1      40.568 -13.429  -3.133  1.00  0.00     0.001 A 
ENDBRANCH   3   6
ENDBRANCH   1   2
BRANCH   1  18
HETATM   18  C   UNL     1      43.312 -14.728   2.497  1.00  0.00     0.241 C 
HETATM   19  N   UNL     1      42.893 -15.922   3.011  1.00  0.00    -0.353 N 
HETATM   20  H   UNL     1      42.193 -15.950   3.746  1.00  0.00     0.162 HD
HETATM   21  O   UNL     1      43.978 -14.632   1.460  1.00  0.00    -0.271 OA
BRANCH  19  22
HETATM   22  C   UNL     1      43.188 -17.194   2.385  1.00  0.00     0.187 C 
BRANCH  22  23
HETATM   23  C   UNL     1      43.540 -18.194   3.422  1.00  0.00     0.070 A 
HETATM   24  O   UNL     1      43.499 -17.780   4.722  1.00  0.00    -0.325 OA
HETATM   25  C   UNL     1      43.875 -18.836   5.488  1.00  0.00     0.142 A 
HETATM   26  C   UNL     1      44.175 -19.920   4.699  1.00  0.00     0.027 A 
HETATM   27  C   UNL     1      43.959 -19.508   3.361  1.00  0.00     0.036 A 
ENDBRANCH  22  23
ENDBRANCH  19  22
ENDBRANCH   1  18
BRANCH   1  28
HETATM   28  C   UNL     1      42.700 -13.759   4.796  1.00  0.00     0.075 C 
BRANCH  28  29
HETATM   29  C   UNL     1      42.547 -12.549   5.669  1.00  0.00    -0.028 A 
HETATM   30  C   UNL     1      43.603 -11.845   6.335  1.00  0.00    -0.002 A 
HETATM   31  C   UNL     1      43.020 -10.812   7.069  1.00  0.00     0.042 A 
HETATM   32  C   UNL     1      45.004 -11.997   6.395  1.00  0.00     0.014 A 
HETATM   33  C   UNL     1      43.764  -9.926   7.859  1.00  0.00     0.030 A 
HETATM   34  N   UNL     1      41.664 -10.880   6.860  1.00  0.00    -0.365 N 
HETATM   35  C   UNL     1      45.148 -10.104   7.904  1.00  0.00     0.002 A 
HETATM   36  C   UNL     1      45.763 -11.124   7.184  1.00  0.00     0.001 A 
HETATM   37  H   UNL     1      40.989 -10.257   7.284  1.00  0.00     0.165 HD
HETATM   38  C   UNL     1      41.366 -11.930   6.030  1.00  0.00     0.096 A 
ENDBRANCH  28  29
ENDBRANCH   1  28
TORSDOF 7
ENDMDL
