MODEL 1
REMARK VINA RESULT:      -9.5      0.000      0.000
REMARK  8 active torsions:
REMARK  status: ('A' for Active; 'I' for Inactive)
REMARK    1  A    between atoms: C_4  and  C_5 
REMARK    2  A    between atoms: C_9  and  C_10 
REMARK       I    between atoms: C_10  and  N_11 
REMARK    3  A    between atoms: N_11  and  C_12 
REMARK    4  A    between atoms: C_12  and  C_13 
REMARK    5  A    between atoms: C_13  and  C_14 
REMARK    6  A    between atoms: C_14  and  C_15 
REMARK    7  A    between atoms: C_15  and  O_16 
REMARK    8  A    between atoms: O_16  and  C_17 
ROOT
HETATM    1  C   UNL     1      44.230 -10.630   9.108  1.00  0.00     0.270 C 
HETATM    2  N   UNL     1      43.513 -10.832   7.955  1.00  0.00    -0.345 N 
HETATM    3  O   UNL     1      45.424 -10.890   9.209  1.00  0.00    -0.266 OA
HETATM    4  H   UNL     1      42.581 -10.455   7.877  1.00  0.00     0.163 HD
ENDROOT
BRANCH   2   5
HETATM    5  C   UNL     1      44.118 -11.374   6.768  1.00  0.00     0.217 C 
BRANCH   5   6
HETATM    6  C   UNL     1      43.697 -12.822   6.575  1.00  0.00    -0.085 C 
BRANCH   6   7
HETATM    7  C   UNL     1      43.335 -14.063   6.408  1.00  0.00    -0.078 C 
BRANCH   7   8
HETATM    8  C   UNL     1      42.914 -15.511   6.214  1.00  0.00     0.269 C 
BRANCH   8   9
HETATM    9  O   UNL     1      43.986 -16.242   5.633  1.00  0.00    -0.337 OA
BRANCH   9  10
HETATM   10  C   UNL     1      43.730 -16.915   4.455  1.00  0.00     0.099 A 
HETATM   11  C   UNL     1      43.800 -18.308   4.228  1.00  0.00     0.100 A 
HETATM   12  C   UNL     1      43.487 -18.766   2.924  1.00  0.00    -0.005 A 
HETATM   13  N   UNL     1      44.144 -19.204   5.189  1.00  0.00    -0.257 NA
HETATM   14  C   UNL     1      43.546 -20.141   2.653  1.00  0.00     0.015 A 
HETATM   15  C   UNL     1      43.124 -17.870   1.907  1.00  0.00     0.014 A 
HETATM   16  C   UNL     1      43.902 -21.037   3.650  1.00  0.00     0.020 A 
HETATM   17  C   UNL     1      44.190 -20.522   4.894  1.00  0.00     0.117 A 
HETATM   18  C   UNL     1      43.059 -16.506   2.156  1.00  0.00     0.004 A 
HETATM   19  C   UNL     1      43.360 -16.033   3.426  1.00  0.00     0.039 A 
ENDBRANCH   9  10
ENDBRANCH   8   9
ENDBRANCH   7   8
ENDBRANCH   6   7
ENDBRANCH   5   6
ENDBRANCH   2   5
BRANCH   1  20
HETATM   20  C   UNL     1      43.473 -10.100  10.208  1.00  0.00     0.120 A 
HETATM   21  N   UNL     1      42.108 -10.041  10.177  1.00  0.00    -0.272 N 
HETATM   22  N   UNL     1      41.554  -9.506  11.276  1.00  0.00    -0.174 NA
HETATM   23  H   UNL     1      41.503 -10.356   9.424  1.00  0.00     0.189 HD
HETATM   24  C   UNL     1      42.597  -9.160  12.046  1.00  0.00     0.089 A 
HETATM   25  C   UNL     1      43.818  -9.537  11.420  1.00  0.00     0.071 A 
BRANCH  24  26
HETATM   26  C   UNL     1      42.416  -8.486  13.336  1.00  0.00    -0.006 A 
HETATM   27  C   UNL     1      41.416  -8.910  14.223  1.00  0.00     0.014 A 
HETATM   28  C   UNL     1      41.238  -8.274  15.454  1.00  0.00     0.001 A 
HETATM   29  C   UNL     1      42.054  -7.203  15.810  1.00  0.00     0.000 A 
HETATM   30  C   UNL     1      43.047  -6.766  14.936  1.00  0.00     0.001 A 
HETATM   31  C   UNL     1      43.227  -7.404  13.706  1.00  0.00     0.014 A 
ENDBRANCH  24  26
ENDBRANCH   1  20
TORSDOF 8
ENDMDL
MODEL 2
REMARK VINA RESULT:      -9.0      1.534      2.738
REMARK  8 active torsions:
REMARK  status: ('A' for Active; 'I' for Inactive)
REMARK    1  A    between atoms: C_4  and  C_5 
REMARK    2  A    between atoms: C_9  and  C_10 
REMARK       I    between atoms: C_10  and  N_11 
REMARK    3  A    between atoms: N_11  and  C_12 
REMARK    4  A    between atoms: C_12  and  C_13 
REMARK    5  A    between atoms: C_13  and  C_14 
REMARK    6  A    between atoms: C_14  and  C_15 
REMARK    7  A    between atoms: C_15  and  O_16 
REMARK    8  A    between atoms: O_16  and  C_17 
ROOT
HETATM    1  C   UNL     1      44.277 -10.923   8.653  1.00  0.00     0.270 C 
HETATM    2  N   UNL     1      43.494 -11.496   7.682  1.00  0.00    -0.345 N 
HETATM    3  O   UNL     1      45.503 -10.953   8.629  1.00  0.00    -0.266 OA
HETATM    4  H   UNL     1      42.505 -11.304   7.665  1.00  0.00     0.163 HD
ENDROOT
BRANCH   2   5
HETATM    5  C   UNL     1      44.062 -12.184   6.555  1.00  0.00     0.217 C 
BRANCH   5   6
HETATM    6  C   UNL     1      43.888 -13.686   6.710  1.00  0.00    -0.085 C 
BRANCH   6   7
HETATM    7  C   UNL     1      43.738 -14.974   6.844  1.00  0.00    -0.078 C 
BRANCH   7   8
HETATM    8  C   UNL     1      43.564 -16.476   7.000  1.00  0.00     0.269 C 
BRANCH   8   9
HETATM    9  O   UNL     1      42.430 -16.901   6.255  1.00  0.00    -0.337 OA
BRANCH   9  10
HETATM   10  C   UNL     1      42.567 -16.986   4.884  1.00  0.00     0.099 A 
HETATM   11  C   UNL     1      41.867 -16.248   3.903  1.00  0.00     0.100 A 
HETATM   12  C   UNL     1      42.185 -16.513   2.548  1.00  0.00    -0.005 A 
HETATM   13  N   UNL     1      40.926 -15.315   4.201  1.00  0.00    -0.257 NA
HETATM   14  C   UNL     1      41.514 -15.805   1.540  1.00  0.00     0.015 A 
HETATM   15  C   UNL     1      43.154 -17.468   2.201  1.00  0.00     0.014 A 
HETATM   16  C   UNL     1      40.556 -14.858   1.869  1.00  0.00     0.020 A 
HETATM   17  C   UNL     1      40.299 -14.651   3.205  1.00  0.00     0.117 A 
HETATM   18  C   UNL     1      43.830 -18.177   3.185  1.00  0.00     0.004 A 
HETATM   19  C   UNL     1      43.537 -17.935   4.520  1.00  0.00     0.039 A 
ENDBRANCH   9  10
ENDBRANCH   8   9
ENDBRANCH   7   8
ENDBRANCH   6   7
ENDBRANCH   5   6
ENDBRANCH   2   5
BRANCH   1  20
HETATM   20  C   UNL     1      43.553 -10.291   9.721  1.00  0.00     0.120 A 
HETATM   21  N   UNL     1      42.243  -9.930   9.584  1.00  0.00    -0.272 N 
HETATM   22  N   UNL     1      41.717  -9.338  10.668  1.00  0.00    -0.174 NA
HETATM   23  H   UNL     1      41.657 -10.067   8.765  1.00  0.00     0.189 HD
HETATM   24  C   UNL     1      42.735  -9.268  11.541  1.00  0.00     0.089 A 
HETATM   25  C   UNL     1      43.898  -9.876  10.991  1.00  0.00     0.071 A 
BRANCH  24  26
HETATM   26  C   UNL     1      42.584  -8.632  12.853  1.00  0.00    -0.006 A 
HETATM   27  C   UNL     1      43.377  -7.529  13.202  1.00  0.00     0.014 A 
HETATM   28  C   UNL     1      43.239  -6.916  14.450  1.00  0.00     0.001 A 
HETATM   29  C   UNL     1      42.310  -7.404  15.367  1.00  0.00     0.000 A 
HETATM   30  C   UNL     1      41.521  -8.503  15.038  1.00  0.00     0.001 A 
HETATM   31  C   UNL     1      41.656  -9.114  13.788  1.00  0.00     0.014 A 
ENDBRANCH  24  26
ENDBRANCH   1  20
TORSDOF 8
ENDMDL
MODEL 3
REMARK VINA RESULT:      -8.8      6.239      9.598
REMARK  8 active torsions:
REMARK  status: ('A' for Active; 'I' for Inactive)
REMARK    1  A    between atoms: C_4  and  C_5 
REMARK    2  A    between atoms: C_9  and  C_10 
REMARK       I    between atoms: C_10  and  N_11 
REMARK    3  A    between atoms: N_11  and  C_12 
REMARK    4  A    between atoms: C_12  and  C_13 
REMARK    5  A    between atoms: C_13  and  C_14 
REMARK    6  A    between atoms: C_14  and  C_15 
REMARK    7  A    between atoms: C_15  and  O_16 
REMARK    8  A    between atoms: O_16  and  C_17 
ROOT
HETATM    1  C   UNL     1      41.074 -13.423   4.030  1.00  0.00     0.270 C 
HETATM    2  N   UNL     1      40.069 -13.989   4.774  1.00  0.00    -0.345 N 
HETATM    3  O   UNL     1      42.121 -13.014   4.520  1.00  0.00    -0.266 OA
HETATM    4  H   UNL     1      39.305 -14.451   4.307  1.00  0.00     0.163 HD
ENDROOT
BRANCH   2   5
HETATM    5  C   UNL     1      40.172 -14.141   6.201  1.00  0.00     0.217 C 
BRANCH   5   6
HETATM    6  C   UNL     1      41.239 -15.167   6.547  1.00  0.00    -0.085 C 
BRANCH   6   7
HETATM    7  C   UNL     1      42.154 -16.046   6.845  1.00  0.00    -0.078 C 
BRANCH   7   8
HETATM    8  C   UNL     1      43.221 -17.072   7.192  1.00  0.00     0.269 C 
BRANCH   8   9
HETATM    9  O   UNL     1      44.271 -17.005   6.236  1.00  0.00    -0.337 OA
BRANCH   9  10
HETATM   10  C   UNL     1      43.946 -17.256   4.918  1.00  0.00     0.099 A 
HETATM   11  C   UNL     1      43.879 -18.513   4.275  1.00  0.00     0.100 A 
HETATM   12  C   UNL     1      43.519 -18.517   2.904  1.00  0.00    -0.005 A 
HETATM   13  N   UNL     1      44.137 -19.688   4.903  1.00  0.00    -0.257 NA
HETATM   14  C   UNL     1      43.441 -19.741   2.224  1.00  0.00     0.015 A 
HETATM   15  C   UNL     1      43.242 -17.322   2.221  1.00  0.00     0.014 A 
HETATM   16  C   UNL     1      43.710 -20.929   2.888  1.00  0.00     0.020 A 
HETATM   17  C   UNL     1      44.052 -20.850   4.218  1.00  0.00     0.117 A 
HETATM   18  C   UNL     1      43.312 -16.101   2.878  1.00  0.00     0.004 A 
HETATM   19  C   UNL     1      43.662 -16.071   4.221  1.00  0.00     0.039 A 
ENDBRANCH   9  10
ENDBRANCH   8   9
ENDBRANCH   7   8
ENDBRANCH   6   7
ENDBRANCH   5   6
ENDBRANCH   2   5
BRANCH   1  20
HETATM   20  C   UNL     1      40.806 -13.328   2.622  1.00  0.00     0.120 A 
HETATM   21  N   UNL     1      41.619 -12.620   1.783  1.00  0.00    -0.272 N 
HETATM   22  N   UNL     1      41.221 -12.617   0.501  1.00  0.00    -0.174 NA
HETATM   23  H   UNL     1      42.464 -12.117   2.037  1.00  0.00     0.189 HD
HETATM   24  C   UNL     1      40.076 -13.318   0.501  1.00  0.00     0.089 A 
HETATM   25  C   UNL     1      39.794 -13.799   1.810  1.00  0.00     0.071 A 
BRANCH  24  26
HETATM   26  C   UNL     1      39.286 -13.507  -0.719  1.00  0.00    -0.006 A 
HETATM   27  C   UNL     1      39.527 -14.606  -1.556  1.00  0.00     0.014 A 
HETATM   28  C   UNL     1      38.777 -14.795  -2.720  1.00  0.00     0.001 A 
HETATM   29  C   UNL     1      37.782 -13.882  -3.064  1.00  0.00     0.000 A 
HETATM   30  C   UNL     1      37.536 -12.782  -2.246  1.00  0.00     0.001 A 
HETATM   31  C   UNL     1      38.284 -12.595  -1.079  1.00  0.00     0.014 A 
ENDBRANCH  24  26
ENDBRANCH   1  20
TORSDOF 8
ENDMDL
MODEL 4
REMARK VINA RESULT:      -8.8      1.736      2.185
REMARK  8 active torsions:
REMARK  status: ('A' for Active; 'I' for Inactive)
REMARK    1  A    between atoms: C_4  and  C_5 
REMARK    2  A    between atoms: C_9  and  C_10 
REMARK       I    between atoms: C_10  and  N_11 
REMARK    3  A    between atoms: N_11  and  C_12 
REMARK    4  A    between atoms: C_12  and  C_13 
REMARK    5  A    between atoms: C_13  and  C_14 
REMARK    6  A    between atoms: C_14  and  C_15 
REMARK    7  A    between atoms: C_15  and  O_16 
REMARK    8  A    between atoms: O_16  and  C_17 
ROOT
HETATM    1  C   UNL     1      45.188 -10.002   8.816  1.00  0.00     0.270 C 
HETATM    2  N   UNL     1      44.798 -11.007   7.966  1.00  0.00    -0.345 N 
HETATM    3  O   UNL     1      46.166  -9.291   8.609  1.00  0.00    -0.266 OA
HETATM    4  H   UNL     1      43.904 -11.452   8.100  1.00  0.00     0.163 HD
ENDROOT
BRANCH   2   5
HETATM    5  C   UNL     1      45.520 -11.304   6.758  1.00  0.00     0.217 C 
BRANCH   5   6
HETATM    6  C   UNL     1      44.552 -11.636   5.634  1.00  0.00    -0.085 C 
BRANCH   6   7
HETATM    7  C   UNL     1      43.722 -11.921   4.670  1.00  0.00    -0.078 C 
BRANCH   7   8
HETATM    8  C   UNL     1      42.754 -12.252   3.545  1.00  0.00     0.269 C 
BRANCH   8   9
HETATM    9  O   UNL     1      42.006 -13.410   3.890  1.00  0.00    -0.337 OA
BRANCH   9  10
HETATM   10  C   UNL     1      42.512 -14.633   3.496  1.00  0.00     0.099 A 
HETATM   11  C   UNL     1      42.838 -15.734   4.320  1.00  0.00     0.100 A 
HETATM   12  C   UNL     1      43.345 -16.892   3.679  1.00  0.00    -0.005 A 
HETATM   13  N   UNL     1      42.687 -15.727   5.669  1.00  0.00    -0.257 NA
HETATM   14  C   UNL     1      43.684 -18.007   4.458  1.00  0.00     0.015 A 
HETATM   15  C   UNL     1      43.513 -16.937   2.286  1.00  0.00     0.014 A 
HETATM   16  C   UNL     1      43.522 -17.976   5.835  1.00  0.00     0.020 A 
HETATM   17  C   UNL     1      43.023 -16.820   6.390  1.00  0.00     0.117 A 
HETATM   18  C   UNL     1      43.181 -15.843   1.499  1.00  0.00     0.004 A 
HETATM   19  C   UNL     1      42.681 -14.697   2.103  1.00  0.00     0.039 A 
ENDBRANCH   9  10
ENDBRANCH   8   9
ENDBRANCH   7   8
ENDBRANCH   6   7
ENDBRANCH   5   6
ENDBRANCH   2   5
BRANCH   1  20
HETATM   20  C   UNL     1      44.372  -9.848   9.988  1.00  0.00     0.120 A 
HETATM   21  N   UNL     1      43.307 -10.669  10.233  1.00  0.00    -0.272 N 
HETATM   22  N   UNL     1      42.639 -10.384  11.362  1.00  0.00    -0.174 NA
HETATM   23  H   UNL     1      42.992 -11.444   9.657  1.00  0.00     0.189 HD
HETATM   24  C   UNL     1      43.264  -9.306  11.861  1.00  0.00     0.089 A 
HETATM   25  C   UNL     1      44.370  -8.953  11.039  1.00  0.00     0.071 A 
BRANCH  24  26
HETATM   26  C   UNL     1      42.802  -8.642  13.084  1.00  0.00    -0.006 A 
HETATM   27  C   UNL     1      41.746  -9.185  13.830  1.00  0.00     0.014 A 
HETATM   28  C   UNL     1      41.301  -8.559  14.997  1.00  0.00     0.001 A 
HETATM   29  C   UNL     1      41.903  -7.379  15.428  1.00  0.00     0.000 A 
HETATM   30  C   UNL     1      42.948  -6.823  14.694  1.00  0.00     0.001 A 
HETATM   31  C   UNL     1      43.396  -7.451  13.528  1.00  0.00     0.014 A 
ENDBRANCH  24  26
ENDBRANCH   1  20
TORSDOF 8
ENDMDL
MODEL 5
REMARK VINA RESULT:      -8.7      5.403      9.324
REMARK  8 active torsions:
REMARK  status: ('A' for Active; 'I' for Inactive)
REMARK    1  A    between atoms: C_4  and  C_5 
REMARK    2  A    between atoms: C_9  and  C_10 
REMARK       I    between atoms: C_10  and  N_11 
REMARK    3  A    between atoms: N_11  and  C_12 
REMARK    4  A    between atoms: C_12  and  C_13 
REMARK    5  A    between atoms: C_13  and  C_14 
REMARK    6  A    between atoms: C_14  and  C_15 
REMARK    7  A    between atoms: C_15  and  O_16 
REMARK    8  A    between atoms: O_16  and  C_17 
ROOT
HETATM    1  C   UNL     1      43.163 -11.733   3.865  1.00  0.00     0.270 C 
HETATM    2  N   UNL     1      42.464 -12.327   4.886  1.00  0.00    -0.345 N 
HETATM    3  O   UNL     1      44.281 -11.251   4.010  1.00  0.00    -0.266 OA
HETATM    4  H   UNL     1      41.625 -12.845   4.678  1.00  0.00     0.163 HD
ENDROOT
BRANCH   2   5
HETATM    5  C   UNL     1      42.999 -12.425   6.217  1.00  0.00     0.217 C 
BRANCH   5   6
HETATM    6  C   UNL     1      43.464 -13.846   6.496  1.00  0.00    -0.085 C 
BRANCH   6   7
HETATM    7  C   UNL     1      43.864 -15.063   6.734  1.00  0.00    -0.078 C 
BRANCH   7   8
HETATM    8  C   UNL     1      44.330 -16.483   7.012  1.00  0.00     0.269 C 
BRANCH   8   9
HETATM    9  O   UNL     1      43.364 -17.404   6.521  1.00  0.00    -0.337 OA
BRANCH   9  10
HETATM   10  C   UNL     1      43.248 -17.532   5.152  1.00  0.00     0.099 A 
HETATM   11  C   UNL     1      42.288 -16.925   4.310  1.00  0.00     0.100 A 
HETATM   12  C   UNL     1      42.374 -17.209   2.924  1.00  0.00    -0.005 A 
HETATM   13  N   UNL     1      41.312 -16.099   4.765  1.00  0.00    -0.257 NA
HETATM   14  C   UNL     1      41.441 -16.631   2.052  1.00  0.00     0.015 A 
HETATM   15  C   UNL     1      43.372 -18.056   2.416  1.00  0.00     0.014 A 
HETATM   16  C   UNL     1      40.452 -15.791   2.541  1.00  0.00     0.020 A 
HETATM   17  C   UNL     1      40.429 -15.558   3.897  1.00  0.00     0.117 A 
HETATM   18  C   UNL     1      44.305 -18.637   3.264  1.00  0.00     0.004 A 
HETATM   19  C   UNL     1      44.242 -18.373   4.626  1.00  0.00     0.039 A 
ENDBRANCH   9  10
ENDBRANCH   8   9
ENDBRANCH   7   8
ENDBRANCH   6   7
ENDBRANCH   5   6
ENDBRANCH   2   5
BRANCH   1  20
HETATM   20  C   UNL     1      42.479 -11.699   2.601  1.00  0.00     0.120 A 
HETATM   21  N   UNL     1      42.062 -10.524   2.043  1.00  0.00    -0.272 N 
HETATM   22  N   UNL     1      41.426 -10.666   0.870  1.00  0.00    -0.174 NA
HETATM   23  H   UNL     1      42.188  -9.591   2.425  1.00  0.00     0.189 HD
HETATM   24  C   UNL     1      41.386 -11.992   0.666  1.00  0.00     0.089 A 
HETATM   25  C   UNL     1      42.055 -12.673   1.720  1.00  0.00     0.071 A 
BRANCH  24  26
HETATM   26  C   UNL     1      40.719 -12.574  -0.503  1.00  0.00    -0.006 A 
HETATM   27  C   UNL     1      40.956 -12.057  -1.785  1.00  0.00     0.014 A 
HETATM   28  C   UNL     1      40.326 -12.607  -2.905  1.00  0.00     0.001 A 
HETATM   29  C   UNL     1      39.445 -13.677  -2.753  1.00  0.00     0.000 A 
HETATM   30  C   UNL     1      39.194 -14.196  -1.486  1.00  0.00     0.001 A 
HETATM   31  C   UNL     1      39.828 -13.648  -0.366  1.00  0.00     0.014 A 
ENDBRANCH  24  26
ENDBRANCH   1  20
TORSDOF 8
ENDMDL
MODEL 6
REMARK VINA RESULT:      -8.4      5.758      9.421
REMARK  8 active torsions:
REMARK  status: ('A' for Active; 'I' for Inactive)
REMARK    1  A    between atoms: C_4  and  C_5 
REMARK    2  A    between atoms: C_9  and  C_10 
REMARK       I    between atoms: C_10  and  N_11 
REMARK    3  A    between atoms: N_11  and  C_12 
REMARK    4  A    between atoms: C_12  and  C_13 
REMARK    5  A    between atoms: C_13  and  C_14 
REMARK    6  A    between atoms: C_14  and  C_15 
REMARK    7  A    between atoms: C_15  and  O_16 
REMARK    8  A    between atoms: O_16  and  C_17 
ROOT
HETATM    1  C   UNL     1      43.517 -13.618   6.057  1.00  0.00     0.270 C 
HETATM    2  N   UNL     1      43.442 -12.920   4.877  1.00  0.00    -0.345 N 
HETATM    3  O   UNL     1      43.541 -13.077   7.157  1.00  0.00    -0.266 OA
HETATM    4  H   UNL     1      43.264 -13.414   4.018  1.00  0.00     0.163 HD
ENDROOT
BRANCH   2   5
HETATM    5  C   UNL     1      43.388 -11.483   4.847  1.00  0.00     0.217 C 
BRANCH   5   6
HETATM    6  C   UNL     1      42.555 -11.010   3.666  1.00  0.00    -0.085 C 
BRANCH   6   7
HETATM    7  C   UNL     1      41.841 -10.606   2.654  1.00  0.00    -0.078 C 
BRANCH   7   8
HETATM    8  C   UNL     1      41.008 -10.133   1.473  1.00  0.00     0.269 C 
BRANCH   8   9
HETATM    9  O   UNL     1      39.798 -10.877   1.419  1.00  0.00    -0.337 OA
BRANCH   9  10
HETATM   10  C   UNL     1      39.856 -12.145   0.876  1.00  0.00     0.099 A 
HETATM   11  C   UNL     1      40.030 -13.367   1.564  1.00  0.00     0.100 A 
HETATM   12  C   UNL     1      40.057 -14.549   0.782  1.00  0.00    -0.005 A 
HETATM   13  N   UNL     1      40.168 -13.452   2.912  1.00  0.00    -0.257 NA
HETATM   14  C   UNL     1      40.229 -15.785   1.423  1.00  0.00     0.015 A 
HETATM   15  C   UNL     1      39.915 -14.501  -0.613  1.00  0.00     0.014 A 
HETATM   16  C   UNL     1      40.369 -15.846   2.801  1.00  0.00     0.020 A 
HETATM   17  C   UNL     1      40.332 -14.659   3.497  1.00  0.00     0.117 A 
HETATM   18  C   UNL     1      39.742 -13.287  -1.265  1.00  0.00     0.004 A 
HETATM   19  C   UNL     1      39.711 -12.115  -0.521  1.00  0.00     0.039 A 
ENDBRANCH   9  10
ENDBRANCH   8   9
ENDBRANCH   7   8
ENDBRANCH   6   7
ENDBRANCH   5   6
ENDBRANCH   2   5
BRANCH   1  20
HETATM   20  C   UNL     1      43.583 -15.047   5.912  1.00  0.00     0.120 A 
HETATM   21  N   UNL     1      43.788 -15.868   6.985  1.00  0.00    -0.272 N 
HETATM   22  N   UNL     1      43.839 -17.173   6.679  1.00  0.00    -0.174 NA
HETATM   23  H   UNL     1      43.899 -15.584   7.954  1.00  0.00     0.189 HD
HETATM   24  C   UNL     1      43.703 -17.212   5.344  1.00  0.00     0.089 A 
HETATM   25  C   UNL     1      43.519 -15.899   4.828  1.00  0.00     0.071 A 
BRANCH  24  26
HETATM   26  C   UNL     1      43.757 -18.474   4.598  1.00  0.00    -0.006 A 
HETATM   27  C   UNL     1      43.578 -18.484   3.207  1.00  0.00     0.014 A 
HETATM   28  C   UNL     1      43.630 -19.682   2.490  1.00  0.00     0.001 A 
HETATM   29  C   UNL     1      43.853 -20.885   3.156  1.00  0.00     0.000 A 
HETATM   30  C   UNL     1      44.025 -20.892   4.538  1.00  0.00     0.001 A 
HETATM   31  C   UNL     1      43.978 -19.693   5.256  1.00  0.00     0.014 A 
ENDBRANCH  24  26
ENDBRANCH   1  20
TORSDOF 8
ENDMDL
MODEL 7
REMARK VINA RESULT:      -8.4      2.691      4.220
REMARK  8 active torsions:
REMARK  status: ('A' for Active; 'I' for Inactive)
REMARK    1  A    between atoms: C_4  and  C_5 
REMARK    2  A    between atoms: C_9  and  C_10 
REMARK       I    between atoms: C_10  and  N_11 
REMARK    3  A    between atoms: N_11  and  C_12 
REMARK    4  A    between atoms: C_12  and  C_13 
REMARK    5  A    between atoms: C_13  and  C_14 
REMARK    6  A    between atoms: C_14  and  C_15 
REMARK    7  A    between atoms: C_15  and  O_16 
REMARK    8  A    between atoms: O_16  and  C_17 
ROOT
HETATM    1  C   UNL     1      43.703 -11.207   4.692  1.00  0.00     0.270 C 
HETATM    2  N   UNL     1      42.417 -11.042   4.243  1.00  0.00    -0.345 N 
HETATM    3  O   UNL     1      44.642 -11.484   3.953  1.00  0.00    -0.266 OA
HETATM    4  H   UNL     1      41.720 -10.660   4.863  1.00  0.00     0.163 HD
ENDROOT
BRANCH   2   5
HETATM    5  C   UNL     1      42.072 -11.186   2.855  1.00  0.00     0.217 C 
BRANCH   5   6
HETATM    6  C   UNL     1      41.390 -12.523   2.616  1.00  0.00    -0.085 C 
BRANCH   6   7
HETATM    7  C   UNL     1      40.805 -13.669   2.410  1.00  0.00    -0.078 C 
BRANCH   7   8
HETATM    8  C   UNL     1      40.122 -15.006   2.171  1.00  0.00     0.269 C 
BRANCH   8   9
HETATM    9  O   UNL     1      40.205 -15.799   3.348  1.00  0.00    -0.337 OA
BRANCH   9  10
HETATM   10  C   UNL     1      41.398 -16.449   3.592  1.00  0.00     0.099 A 
HETATM   11  C   UNL     1      42.079 -16.560   4.825  1.00  0.00     0.100 A 
HETATM   12  C   UNL     1      43.297 -17.284   4.826  1.00  0.00    -0.005 A 
HETATM   13  N   UNL     1      41.623 -16.015   5.982  1.00  0.00    -0.257 NA
HETATM   14  C   UNL     1      44.008 -17.418   6.028  1.00  0.00     0.015 A 
HETATM   15  C   UNL     1      43.799 -17.865   3.651  1.00  0.00     0.014 A 
HETATM   16  C   UNL     1      43.522 -16.852   7.196  1.00  0.00     0.020 A 
HETATM   17  C   UNL     1      42.333 -16.164   7.122  1.00  0.00     0.117 A 
HETATM   18  C   UNL     1      43.108 -17.744   2.452  1.00  0.00     0.004 A 
HETATM   19  C   UNL     1      41.912 -17.040   2.426  1.00  0.00     0.039 A 
ENDBRANCH   9  10
ENDBRANCH   8   9
ENDBRANCH   7   8
ENDBRANCH   6   7
ENDBRANCH   5   6
ENDBRANCH   2   5
BRANCH   1  20
HETATM   20  C   UNL     1      43.875 -11.048   6.111  1.00  0.00     0.120 A 
HETATM   21  N   UNL     1      44.617 -11.929   6.846  1.00  0.00    -0.272 N 
HETATM   22  N   UNL     1      44.667 -11.648   8.157  1.00  0.00    -0.174 NA
HETATM   23  H   UNL     1      45.114 -12.744   6.498  1.00  0.00     0.189 HD
HETATM   24  C   UNL     1      43.892 -10.561   8.299  1.00  0.00     0.089 A 
HETATM   25  C   UNL     1      43.395 -10.141   7.033  1.00  0.00     0.071 A 
BRANCH  24  26
HETATM   26  C   UNL     1      43.640  -9.957   9.611  1.00  0.00    -0.006 A 
HETATM   27  C   UNL     1      43.489  -8.568   9.736  1.00  0.00     0.014 A 
HETATM   28  C   UNL     1      43.247  -7.985  10.982  1.00  0.00     0.001 A 
HETATM   29  C   UNL     1      43.160  -8.784  12.120  1.00  0.00     0.000 A 
HETATM   30  C   UNL     1      43.316 -10.164  12.014  1.00  0.00     0.001 A 
HETATM   31  C   UNL     1      43.554 -10.748  10.766  1.00  0.00     0.014 A 
ENDBRANCH  24  26
ENDBRANCH   1  20
TORSDOF 8
ENDMDL
MODEL 8
REMARK VINA RESULT:      -8.4      2.535     11.669
REMARK  8 active torsions:
REMARK  status: ('A' for Active; 'I' for Inactive)
REMARK    1  A    between atoms: C_4  and  C_5 
REMARK    2  A    between atoms: C_9  and  C_10 
REMARK       I    between atoms: C_10  and  N_11 
REMARK    3  A    between atoms: N_11  and  C_12 
REMARK    4  A    between atoms: C_12  and  C_13 
REMARK    5  A    between atoms: C_13  and  C_14 
REMARK    6  A    between atoms: C_14  and  C_15 
REMARK    7  A    between atoms: C_15  and  O_16 
REMARK    8  A    between atoms: O_16  and  C_17 
ROOT
HETATM    1  C   UNL     1      42.705 -13.742   5.157  1.00  0.00     0.270 C 
HETATM    2  N   UNL     1      43.138 -12.588   4.554  1.00  0.00    -0.345 N 
HETATM    3  O   UNL     1      42.133 -13.758   6.242  1.00  0.00    -0.266 OA
HETATM    4  H   UNL     1      43.455 -12.616   3.598  1.00  0.00     0.163 HD
ENDROOT
BRANCH   2   5
HETATM    5  C   UNL     1      42.953 -11.297   5.161  1.00  0.00     0.217 C 
BRANCH   5   6
HETATM    6  C   UNL     1      44.109 -10.983   6.097  1.00  0.00    -0.085 C 
BRANCH   6   7
HETATM    7  C   UNL     1      45.100 -10.713   6.899  1.00  0.00    -0.078 C 
BRANCH   7   8
HETATM    8  C   UNL     1      46.256 -10.397   7.835  1.00  0.00     0.269 C 
BRANCH   8   9
HETATM    9  O   UNL     1      46.011  -9.159   8.490  1.00  0.00    -0.337 OA
BRANCH   9  10
HETATM   10  C   UNL     1      44.984  -9.121   9.411  1.00  0.00     0.099 A 
HETATM   11  C   UNL     1      43.890  -8.227   9.441  1.00  0.00     0.100 A 
HETATM   12  C   UNL     1      42.955  -8.387  10.494  1.00  0.00    -0.005 A 
HETATM   13  N   UNL     1      43.703  -7.245   8.522  1.00  0.00    -0.257 NA
HETATM   14  C   UNL     1      41.854  -7.520  10.565  1.00  0.00     0.015 A 
HETATM   15  C   UNL     1      43.113  -9.393  11.460  1.00  0.00     0.014 A 
HETATM   16  C   UNL     1      41.686  -6.524   9.615  1.00  0.00     0.020 A 
HETATM   17  C   UNL     1      42.631  -6.428   8.620  1.00  0.00     0.117 A 
HETATM   18  C   UNL     1      44.195 -10.261  11.406  1.00  0.00     0.004 A 
HETATM   19  C   UNL     1      45.125 -10.125  10.383  1.00  0.00     0.039 A 
ENDBRANCH   9  10
ENDBRANCH   8   9
ENDBRANCH   7   8
ENDBRANCH   6   7
ENDBRANCH   5   6
ENDBRANCH   2   5
BRANCH   1  20
HETATM   20  C   UNL     1      42.985 -14.949   4.428  1.00  0.00     0.120 A 
HETATM   21  N   UNL     1      43.077 -14.958   3.065  1.00  0.00    -0.272 N 
HETATM   22  N   UNL     1      43.328 -16.166   2.538  1.00  0.00    -0.174 NA
HETATM   23  H   UNL     1      42.976 -14.161   2.444  1.00  0.00     0.189 HD
HETATM   24  C   UNL     1      43.363 -16.995   3.593  1.00  0.00     0.089 A 
HETATM   25  C   UNL     1      43.173 -16.265   4.799  1.00  0.00     0.071 A 
BRANCH  24  26
HETATM   26  C   UNL     1      43.566 -18.439   3.435  1.00  0.00    -0.006 A 
HETATM   27  C   UNL     1      43.283 -19.065   2.213  1.00  0.00     0.014 A 
HETATM   28  C   UNL     1      43.476 -20.440   2.055  1.00  0.00     0.001 A 
HETATM   29  C   UNL     1      43.947 -21.205   3.119  1.00  0.00     0.000 A 
HETATM   30  C   UNL     1      44.225 -20.599   4.341  1.00  0.00     0.001 A 
HETATM   31  C   UNL     1      44.036 -19.222   4.499  1.00  0.00     0.014 A 
ENDBRANCH  24  26
ENDBRANCH   1  20
TORSDOF 8
ENDMDL
MODEL 9
REMARK VINA RESULT:      -8.3      1.539      2.355
REMARK  8 active torsions:
REMARK  status: ('A' for Active; 'I' for Inactive)
REMARK    1  A    between atoms: C_4  and  C_5 
REMARK    2  A    between atoms: C_9  and  C_10 
REMARK       I    between atoms: C_10  and  N_11 
REMARK    3  A    between atoms: N_11  and  C_12 
REMARK    4  A    between atoms: C_12  and  C_13 
REMARK    5  A    between atoms: C_13  and  C_14 
REMARK    6  A    between atoms: C_14  and  C_15 
REMARK    7  A    between atoms: C_15  and  O_16 
REMARK    8  A    between atoms: O_16  and  C_17 
ROOT
HETATM    1  C   UNL     1      44.381 -10.735   8.171  1.00  0.00     0.270 C 
HETATM    2  N   UNL     1      43.708 -10.798   6.977  1.00  0.00    -0.345 N 
HETATM    3  O   UNL     1      45.495 -11.220   8.340  1.00  0.00    -0.266 OA
HETATM    4  H   UNL     1      42.873 -10.249   6.848  1.00  0.00     0.163 HD
ENDROOT
BRANCH   2   5
HETATM    5  C   UNL     1      44.267 -11.450   5.823  1.00  0.00     0.217 C 
BRANCH   5   6
HETATM    6  C   UNL     1      43.217 -12.315   5.145  1.00  0.00    -0.085 C 
BRANCH   6   7
HETATM    7  C   UNL     1      42.316 -13.056   4.562  1.00  0.00    -0.078 C 
BRANCH   7   8
HETATM    8  C   UNL     1      41.266 -13.920   3.883  1.00  0.00     0.269 C 
BRANCH   8   9
HETATM    9  O   UNL     1      40.842 -14.941   4.777  1.00  0.00    -0.337 OA
BRANCH   9  10
HETATM   10  C   UNL     1      41.792 -15.850   5.198  1.00  0.00     0.099 A 
HETATM   11  C   UNL     1      42.502 -16.781   4.406  1.00  0.00     0.100 A 
HETATM   12  C   UNL     1      43.436 -17.614   5.070  1.00  0.00    -0.005 A 
HETATM   13  N   UNL     1      42.330 -16.904   3.064  1.00  0.00    -0.257 NA
HETATM   14  C   UNL     1      44.161 -18.555   4.324  1.00  0.00     0.015 A 
HETATM   15  C   UNL     1      43.643 -17.514   6.455  1.00  0.00     0.014 A 
HETATM   16  C   UNL     1      43.967 -18.662   2.955  1.00  0.00     0.020 A 
HETATM   17  C   UNL     1      43.046 -17.820   2.376  1.00  0.00     0.117 A 
HETATM   18  C   UNL     1      42.935 -16.588   7.210  1.00  0.00     0.004 A 
HETATM   19  C   UNL     1      42.015 -15.760   6.582  1.00  0.00     0.039 A 
ENDBRANCH   9  10
ENDBRANCH   8   9
ENDBRANCH   7   8
ENDBRANCH   6   7
ENDBRANCH   5   6
ENDBRANCH   2   5
BRANCH   1  20
HETATM   20  C   UNL     1      43.676 -10.066   9.230  1.00  0.00     0.120 A 
HETATM   21  N   UNL     1      42.565  -9.310   8.986  1.00  0.00    -0.272 N 
HETATM   22  N   UNL     1      42.033  -8.741  10.078  1.00  0.00    -0.174 NA
HETATM   23  H   UNL     1      42.126  -9.149   8.084  1.00  0.00     0.189 HD
HETATM   24  C   UNL     1      42.851  -9.104  11.079  1.00  0.00     0.089 A 
HETATM   25  C   UNL     1      43.882  -9.954  10.590  1.00  0.00     0.071 A 
BRANCH  24  26
HETATM   26  C   UNL     1      42.643  -8.639  12.454  1.00  0.00    -0.006 A 
HETATM   27  C   UNL     1      41.727  -9.291  13.292  1.00  0.00     0.014 A 
HETATM   28  C   UNL     1      41.524  -8.855  14.605  1.00  0.00     0.001 A 
HETATM   29  C   UNL     1      42.230  -7.757  15.091  1.00  0.00     0.000 A 
HETATM   30  C   UNL     1      43.138  -7.094  14.269  1.00  0.00     0.001 A 
HETATM   31  C   UNL     1      43.344  -7.533  12.957  1.00  0.00     0.014 A 
ENDBRANCH  24  26
ENDBRANCH   1  20
TORSDOF 8
ENDMDL
MODEL 10
REMARK VINA RESULT:      -8.2      5.274     10.448
REMARK  8 active torsions:
REMARK  status: ('A' for Active; 'I' for Inactive)
REMARK    1  A    between atoms: C_4  and  C_5 
REMARK    2  A    between atoms: C_9  and  C_10 
REMARK       I    between atoms: C_10  and  N_11 
REMARK    3  A    between atoms: N_11  and  C_12 
REMARK    4  A    between atoms: C_12  and  C_13 
REMARK    5  A    between atoms: C_13  and  C_14 
REMARK    6  A    between atoms: C_14  and  C_15 
REMARK    7  A    between atoms: C_15  and  O_16 
REMARK    8  A    between atoms: O_16  and  C_17 
ROOT
HETATM    1  C   UNL     1      40.631 -14.235   1.218  1.00  0.00     0.270 C 
HETATM    2  N   UNL     1      39.976 -13.668   2.283  1.00  0.00    -0.345 N 
HETATM    3  O   UNL     1      40.423 -13.914   0.053  1.00  0.00    -0.266 OA
HETATM    4  H   UNL     1      40.298 -13.852   3.219  1.00  0.00     0.163 HD
ENDROOT
BRANCH   2   5
HETATM    5  C   UNL     1      38.981 -12.645   2.105  1.00  0.00     0.217 C 
BRANCH   5   6
HETATM    6  C   UNL     1      39.036 -11.650   3.253  1.00  0.00    -0.085 C 
BRANCH   6   7
HETATM    7  C   UNL     1      39.083 -10.796   4.236  1.00  0.00    -0.078 C 
BRANCH   7   8
HETATM    8  C   UNL     1      39.139  -9.801   5.384  1.00  0.00     0.269 C 
BRANCH   8   9
HETATM    9  O   UNL     1      39.801 -10.393   6.494  1.00  0.00    -0.337 OA
BRANCH   9  10
HETATM   10  C   UNL     1      40.938 -11.132   6.233  1.00  0.00     0.099 A 
HETATM   11  C   UNL     1      41.051 -12.538   6.160  1.00  0.00     0.100 A 
HETATM   12  C   UNL     1      42.334 -13.069   5.875  1.00  0.00    -0.005 A 
HETATM   13  N   UNL     1      40.003 -13.382   6.344  1.00  0.00    -0.257 NA
HETATM   14  C   UNL     1      42.492 -14.460   5.795  1.00  0.00     0.015 A 
HETATM   15  C   UNL     1      43.440 -12.229   5.676  1.00  0.00     0.014 A 
HETATM   16  C   UNL     1      41.407 -15.301   5.988  1.00  0.00     0.020 A 
HETATM   17  C   UNL     1      40.191 -14.717   6.259  1.00  0.00     0.117 A 
HETATM   18  C   UNL     1      43.302 -10.849   5.750  1.00  0.00     0.004 A 
HETATM   19  C   UNL     1      42.055 -10.305   6.027  1.00  0.00     0.039 A 
ENDBRANCH   9  10
ENDBRANCH   8   9
ENDBRANCH   7   8
ENDBRANCH   6   7
ENDBRANCH   5   6
ENDBRANCH   2   5
BRANCH   1  20
HETATM   20  C   UNL     1      41.581 -15.257   1.566  1.00  0.00     0.120 A 
HETATM   21  N   UNL     1      42.828 -15.296   1.009  1.00  0.00    -0.272 N 
HETATM   22  N   UNL     1      43.587 -16.321   1.428  1.00  0.00    -0.174 NA
HETATM   23  H   UNL     1      43.213 -14.642   0.334  1.00  0.00     0.189 HD
HETATM   24  C   UNL     1      42.794 -17.009   2.264  1.00  0.00     0.089 A 
HETATM   25  C   UNL     1      41.534 -16.360   2.394  1.00  0.00     0.071 A 
BRANCH  24  26
HETATM   26  C   UNL     1      43.240 -18.249   2.907  1.00  0.00    -0.006 A 
HETATM   27  C   UNL     1      43.689 -18.237   4.235  1.00  0.00     0.014 A 
HETATM   28  C   UNL     1      44.114 -19.415   4.856  1.00  0.00     0.001 A 
HETATM   29  C   UNL     1      44.100 -20.618   4.152  1.00  0.00     0.000 A 
HETATM   30  C   UNL     1      43.664 -20.644   2.830  1.00  0.00     0.001 A 
HETATM   31  C   UNL     1      43.235 -19.466   2.210  1.00  0.00     0.014 A 
ENDBRANCH  24  26
ENDBRANCH   1  20
TORSDOF 8
ENDMDL
