MODEL 1
REMARK VINA RESULT:      -7.6      0.000      0.000
REMARK  11 active torsions:
REMARK  status: ('A' for Active; 'I' for Inactive)
REMARK    1  A    between atoms: C_2  and  C_3 
REMARK    2  A    between atoms: C_3  and  N_4 
REMARK    3  A    between atoms: N_4  and  C_6 
REMARK    4  A    between atoms: N_4  and  C_30 
REMARK    5  A    between atoms: C_6  and  C_7 
REMARK    6  A    between atoms: N_8  and  C_9 
REMARK    7  A    between atoms: C_13  and  N_14 
REMARK    8  A    between atoms: C_17  and  C_18 
REMARK       I    between atoms: C_18  and  N_19 
REMARK    9  A    between atoms: N_19  and  N_20 
REMARK   10  A    between atoms: C_21  and  C_22 
REMARK   11  A    between atoms: C_30  and  C_31 
ROOT
HETATM    1  C   UNL     1      43.178 -10.359   7.717  1.00  0.00     0.096 A 
HETATM    2  N   UNL     1      43.751  -9.875   8.895  1.00  0.00    -0.215 N 
HETATM    3  N   UNL     1      44.944 -10.507   9.082  1.00  0.00     0.012 NA
HETATM    4  N   UNL     1      45.111 -11.425   8.146  1.00  0.00    -0.152 NA
HETATM    5  C   UNL     1      44.039 -11.369   7.309  1.00  0.00     0.170 A 
ENDROOT
BRANCH   5   6
HETATM    6  C   UNL     1      43.861 -12.241   6.157  1.00  0.00     0.293 C 
HETATM    7  N   UNL     1      43.323 -13.474   6.461  1.00  0.00    -0.242 N 
HETATM    8  H   UNL     1      43.076 -13.703   7.421  1.00  0.00     0.192 HD
HETATM    9  O   UNL     1      44.184 -11.841   5.040  1.00  0.00    -0.264 OA
BRANCH   7  10
HETATM   10  N   UNL     1      43.251 -14.430   5.493  1.00  0.00    -0.184 NA
HETATM   11  C   UNL     1      43.623 -15.620   5.847  1.00  0.00     0.150 C 
BRANCH  11  12
HETATM   12  C   UNL     1      43.647 -16.742   4.888  1.00  0.00    -0.017 A 
HETATM   13  C   UNL     1      44.156 -17.992   5.259  1.00  0.00     0.014 A 
HETATM   14  C   UNL     1      44.146 -19.047   4.345  1.00  0.00     0.020 A 
HETATM   15  C   UNL     1      43.630 -18.847   3.065  1.00  0.00     0.011 A 
HETATM   16 BR   UNL     1      43.611 -20.278   1.830  1.00  0.00    -0.051 Br
HETATM   17  C   UNL     1      43.126 -17.602   2.688  1.00  0.00     0.020 A 
HETATM   18  C   UNL     1      43.132 -16.545   3.602  1.00  0.00     0.014 A 
ENDBRANCH  11  12
ENDBRANCH   7  10
ENDBRANCH   5   6
BRANCH   1  19
HETATM   19  C   UNL     1      41.974  -9.816   7.034  1.00  0.00     0.296 C 
BRANCH  19  20
HETATM   20  N   UNL     1      40.788 -10.765   6.932  1.00  0.00    -0.066 N 
HETATM   21  H   UNL     1      41.027 -11.564   7.555  1.00  0.00     0.280 HD
BRANCH  20  22
HETATM   22  C   UNL     1      40.606 -11.306   5.523  1.00  0.00     0.235 C 
BRANCH  22  23
HETATM   23  C   UNL     1      39.960 -12.688   5.447  1.00  0.00     0.023 C 
HETATM   24  C   UNL     1      40.067 -13.353   4.085  1.00  0.00     0.007 C 
ENDBRANCH  22  23
ENDBRANCH  20  22
BRANCH  20  25
HETATM   25  C   UNL     1      39.509 -10.127   7.450  1.00  0.00     0.235 C 
BRANCH  25  26
HETATM   26  C   UNL     1      39.713  -9.232   8.673  1.00  0.00     0.023 C 
HETATM   27  C   UNL     1      39.069  -9.758   9.946  1.00  0.00     0.007 C 
ENDBRANCH  25  26
ENDBRANCH  20  25
ENDBRANCH  19  20
ENDBRANCH   1  19
BRANCH   2  28
HETATM   28  C   UNL     1      43.250  -8.940   9.831  1.00  0.00     0.225 A 
HETATM   29  N   UNL     1      43.374  -7.631   9.608  1.00  0.00    -0.081 NA
HETATM   30  O   UNL     1      42.751  -7.043  10.712  1.00  0.00    -0.103 OA
HETATM   31  N   UNL     1      42.243  -8.006  11.573  1.00  0.00    -0.083 NA
HETATM   32  C   UNL     1      42.549  -9.181  11.026  1.00  0.00     0.201 A 
BRANCH  32  33
HETATM   33  N   UNL     1      42.230 -10.371  11.559  1.00  0.00    -0.379 N 
HETATM   34  H   UNL     1      41.711 -11.053  11.012  1.00  0.00     0.158 HD
HETATM   35  H   UNL     1      42.646 -10.739  12.412  1.00  0.00     0.158 HD
ENDBRANCH  32  33
ENDBRANCH   2  28
TORSDOF 11
ENDMDL
MODEL 2
REMARK VINA RESULT:      -7.4      4.442      9.403
REMARK  11 active torsions:
REMARK  status: ('A' for Active; 'I' for Inactive)
REMARK    1  A    between atoms: C_2  and  C_3 
REMARK    2  A    between atoms: C_3  and  N_4 
REMARK    3  A    between atoms: N_4  and  C_6 
REMARK    4  A    between atoms: N_4  and  C_30 
REMARK    5  A    between atoms: C_6  and  C_7 
REMARK    6  A    between atoms: N_8  and  C_9 
REMARK    7  A    between atoms: C_13  and  N_14 
REMARK    8  A    between atoms: C_17  and  C_18 
REMARK       I    between atoms: C_18  and  N_19 
REMARK    9  A    between atoms: N_19  and  N_20 
REMARK   10  A    between atoms: C_21  and  C_22 
REMARK   11  A    between atoms: C_30  and  C_31 
ROOT
HETATM    1  C   UNL     1      42.738 -16.928   4.426  1.00  0.00     0.096 A 
HETATM    2  N   UNL     1      43.625 -18.006   4.442  1.00  0.00    -0.215 N 
HETATM    3  N   UNL     1      44.538 -17.796   5.432  1.00  0.00     0.012 NA
HETATM    4  N   UNL     1      44.335 -16.608   5.976  1.00  0.00    -0.152 NA
HETATM    5  C   UNL     1      43.253 -16.049   5.369  1.00  0.00     0.170 A 
ENDROOT
BRANCH   5   6
HETATM    6  C   UNL     1      42.730 -14.730   5.695  1.00  0.00     0.293 C 
HETATM    7  N   UNL     1      43.700 -13.801   6.012  1.00  0.00    -0.242 N 
HETATM    8  H   UNL     1      44.683 -14.060   5.993  1.00  0.00     0.192 HD
HETATM    9  O   UNL     1      41.516 -14.537   5.666  1.00  0.00    -0.264 OA
BRANCH   7  10
HETATM   10  N   UNL     1      43.326 -12.578   6.481  1.00  0.00    -0.184 NA
HETATM   11  C   UNL     1      44.275 -11.856   6.989  1.00  0.00     0.150 C 
BRANCH  11  12
HETATM   12  C   UNL     1      44.007 -10.530   7.582  1.00  0.00    -0.017 A 
HETATM   13  C   UNL     1      42.710 -10.006   7.608  1.00  0.00     0.014 A 
HETATM   14  C   UNL     1      42.473  -8.762   8.197  1.00  0.00     0.020 A 
HETATM   15  C   UNL     1      43.534  -8.049   8.754  1.00  0.00     0.011 A 
HETATM   16 BR   UNL     1      43.212  -6.368   9.557  1.00  0.00    -0.051 Br
HETATM   17  C   UNL     1      44.830  -8.565   8.727  1.00  0.00     0.020 A 
HETATM   18  C   UNL     1      45.069  -9.811   8.141  1.00  0.00     0.014 A 
ENDBRANCH  11  12
ENDBRANCH   7  10
ENDBRANCH   5   6
BRANCH   1  19
HETATM   19  C   UNL     1      41.480 -16.832   3.639  1.00  0.00     0.296 C 
BRANCH  19  20
HETATM   20  N   UNL     1      41.394 -15.659   2.672  1.00  0.00    -0.066 N 
HETATM   21  H   UNL     1      41.501 -14.811   3.267  1.00  0.00     0.280 HD
BRANCH  20  22
HETATM   22  C   UNL     1      40.041 -15.582   1.983  1.00  0.00     0.235 C 
BRANCH  22  23
HETATM   23  C   UNL     1      40.090 -15.123   0.528  1.00  0.00     0.023 C 
HETATM   24  C   UNL     1      39.889 -13.629   0.338  1.00  0.00     0.007 C 
ENDBRANCH  22  23
ENDBRANCH  20  22
BRANCH  20  25
HETATM   25  C   UNL     1      42.530 -15.676   1.662  1.00  0.00     0.235 C 
BRANCH  25  26
HETATM   26  C   UNL     1      43.550 -14.554   1.856  1.00  0.00     0.023 C 
HETATM   27  C   UNL     1      42.975 -13.286   2.466  1.00  0.00     0.007 C 
ENDBRANCH  25  26
ENDBRANCH  20  25
ENDBRANCH  19  20
ENDBRANCH   1  19
BRANCH   2  28
HETATM   28  C   UNL     1      43.693 -19.138   3.596  1.00  0.00     0.225 A 
HETATM   29  N   UNL     1      43.522 -19.006   2.280  1.00  0.00    -0.081 NA
HETATM   30  O   UNL     1      43.683 -20.305   1.790  1.00  0.00    -0.103 OA
HETATM   31  N   UNL     1      43.969 -21.196   2.815  1.00  0.00    -0.083 NA
HETATM   32  C   UNL     1      43.979 -20.473   3.933  1.00  0.00     0.201 A 
BRANCH  32  33
HETATM   33  N   UNL     1      44.220 -20.971   5.156  1.00  0.00    -0.379 N 
HETATM   34  H   UNL     1      44.499 -21.943   5.266  1.00  0.00     0.158 HD
HETATM   35  H   UNL     1      44.346 -20.396   5.987  1.00  0.00     0.158 HD
ENDBRANCH  32  33
ENDBRANCH   2  28
TORSDOF 11
ENDMDL
MODEL 3
REMARK VINA RESULT:      -7.3      2.083      4.414
REMARK  11 active torsions:
REMARK  status: ('A' for Active; 'I' for Inactive)
REMARK    1  A    between atoms: C_2  and  C_3 
REMARK    2  A    between atoms: C_3  and  N_4 
REMARK    3  A    between atoms: N_4  and  C_6 
REMARK    4  A    between atoms: N_4  and  C_30 
REMARK    5  A    between atoms: C_6  and  C_7 
REMARK    6  A    between atoms: N_8  and  C_9 
REMARK    7  A    between atoms: C_13  and  N_14 
REMARK    8  A    between atoms: C_17  and  C_18 
REMARK       I    between atoms: C_18  and  N_19 
REMARK    9  A    between atoms: N_19  and  N_20 
REMARK   10  A    between atoms: C_21  and  C_22 
REMARK   11  A    between atoms: C_30  and  C_31 
ROOT
HETATM    1  C   UNL     1      40.939  -9.114   8.562  1.00  0.00     0.096 A 
HETATM    2  N   UNL     1      40.027  -8.483   9.409  1.00  0.00    -0.215 N 
HETATM    3  N   UNL     1      38.773  -8.903   9.079  1.00  0.00     0.012 NA
HETATM    4  N   UNL     1      38.834  -9.685   8.015  1.00  0.00    -0.152 NA
HETATM    5  C   UNL     1      40.143  -9.817   7.667  1.00  0.00     0.170 A 
ENDROOT
BRANCH   5   6
HETATM    6  C   UNL     1      40.607 -10.599   6.531  1.00  0.00     0.293 C 
HETATM    7  N   UNL     1      40.270 -11.935   6.590  1.00  0.00    -0.242 N 
HETATM    8  H   UNL     1      39.731 -12.294   7.375  1.00  0.00     0.192 HD
HETATM    9  O   UNL     1      41.238 -10.045   5.633  1.00  0.00    -0.264 OA
BRANCH   7  10
HETATM   10  N   UNL     1      40.778 -12.796   5.663  1.00  0.00    -0.184 NA
HETATM   11  C   UNL     1      40.926 -14.022   6.055  1.00  0.00     0.150 C 
BRANCH  11  12
HETATM   12  C   UNL     1      41.514 -15.051   5.174  1.00  0.00    -0.017 A 
HETATM   13  C   UNL     1      42.754 -15.627   5.472  1.00  0.00     0.014 A 
HETATM   14  C   UNL     1      43.281 -16.616   4.640  1.00  0.00     0.020 A 
HETATM   15  C   UNL     1      42.566 -17.024   3.514  1.00  0.00     0.011 A 
HETATM   16 BR   UNL     1      43.277 -18.368   2.391  1.00  0.00    -0.051 Br
HETATM   17  C   UNL     1      41.331 -16.450   3.210  1.00  0.00     0.020 A 
HETATM   18  C   UNL     1      40.801 -15.461   4.042  1.00  0.00     0.014 A 
ENDBRANCH  11  12
ENDBRANCH   7  10
ENDBRANCH   5   6
BRANCH   1  19
HETATM   19  C   UNL     1      42.421  -9.096   8.690  1.00  0.00     0.296 C 
BRANCH  19  20
HETATM   20  N   UNL     1      43.030 -10.257   9.465  1.00  0.00    -0.066 N 
HETATM   21  H   UNL     1      42.439 -11.080   9.227  1.00  0.00     0.280 HD
BRANCH  20  22
HETATM   22  C   UNL     1      42.955 -10.043  10.968  1.00  0.00     0.235 C 
BRANCH  22  23
HETATM   23  C   UNL     1      43.765  -8.855  11.486  1.00  0.00     0.023 C 
HETATM   24  C   UNL     1      43.239  -8.257  12.780  1.00  0.00     0.007 C 
ENDBRANCH  22  23
ENDBRANCH  20  22
BRANCH  20  25
HETATM   25  C   UNL     1      44.453 -10.549   9.017  1.00  0.00     0.235 C 
BRANCH  25  26
HETATM   26  C   UNL     1      44.573 -10.929   7.541  1.00  0.00     0.023 C 
HETATM   27  C   UNL     1      44.045 -12.316   7.209  1.00  0.00     0.007 C 
ENDBRANCH  25  26
ENDBRANCH  20  25
ENDBRANCH  19  20
ENDBRANCH   1  19
BRANCH   2  28
HETATM   28  C   UNL     1      40.246  -7.523  10.426  1.00  0.00     0.225 A 
HETATM   29  N   UNL     1      41.020  -6.463  10.194  1.00  0.00    -0.081 NA
HETATM   30  O   UNL     1      40.975  -5.748  11.395  1.00  0.00    -0.103 OA
HETATM   31  N   UNL     1      40.159  -6.378  12.323  1.00  0.00    -0.083 NA
HETATM   32  C   UNL     1      39.704  -7.475  11.723  1.00  0.00     0.201 A 
BRANCH  32  33
HETATM   33  N   UNL     1      38.876  -8.364  12.293  1.00  0.00    -0.379 N 
HETATM   34  H   UNL     1      38.797  -9.305  11.915  1.00  0.00     0.158 HD
HETATM   35  H   UNL     1      38.460  -8.241  13.215  1.00  0.00     0.158 HD
ENDBRANCH  32  33
ENDBRANCH   2  28
TORSDOF 11
ENDMDL
MODEL 4
REMARK VINA RESULT:      -7.1      4.238      8.672
REMARK  11 active torsions:
REMARK  status: ('A' for Active; 'I' for Inactive)
REMARK    1  A    between atoms: C_2  and  C_3 
REMARK    2  A    between atoms: C_3  and  N_4 
REMARK    3  A    between atoms: N_4  and  C_6 
REMARK    4  A    between atoms: N_4  and  C_30 
REMARK    5  A    between atoms: C_6  and  C_7 
REMARK    6  A    between atoms: N_8  and  C_9 
REMARK    7  A    between atoms: C_13  and  N_14 
REMARK    8  A    between atoms: C_17  and  C_18 
REMARK       I    between atoms: C_18  and  N_19 
REMARK    9  A    between atoms: N_19  and  N_20 
REMARK   10  A    between atoms: C_21  and  C_22 
REMARK   11  A    between atoms: C_30  and  C_31 
ROOT
HETATM    1  C   UNL     1      43.523 -11.845   5.852  1.00  0.00     0.096 A 
HETATM    2  N   UNL     1      43.885 -11.781   4.505  1.00  0.00    -0.215 N 
HETATM    3  N   UNL     1      45.166 -11.323   4.426  1.00  0.00     0.012 NA
HETATM    4  N   UNL     1      45.598 -11.006   5.634  1.00  0.00    -0.152 NA
HETATM    5  C   UNL     1      44.609 -11.298   6.522  1.00  0.00     0.170 A 
ENDROOT
BRANCH   5   6
HETATM    6  C   UNL     1      44.713 -11.072   7.956  1.00  0.00     0.293 C 
HETATM    7  N   UNL     1      43.507 -10.814   8.575  1.00  0.00    -0.242 N 
HETATM    8  H   UNL     1      42.645 -10.806   8.035  1.00  0.00     0.192 HD
HETATM    9  O   UNL     1      45.815 -11.126   8.499  1.00  0.00    -0.264 OA
BRANCH   7  10
HETATM   10  N   UNL     1      43.494 -10.438   9.885  1.00  0.00    -0.184 NA
HETATM   11  C   UNL     1      42.490  -9.704  10.250  1.00  0.00     0.150 C 
BRANCH  11  12
HETATM   12  C   UNL     1      42.373  -9.180  11.625  1.00  0.00    -0.017 A 
HETATM   13  C   UNL     1      43.279  -8.229  12.109  1.00  0.00     0.014 A 
HETATM   14  C   UNL     1      43.136  -7.728  13.405  1.00  0.00     0.020 A 
HETATM   15  C   UNL     1      42.091  -8.180  14.209  1.00  0.00     0.011 A 
HETATM   16 BR   UNL     1      41.894  -7.496  15.960  1.00  0.00    -0.051 Br
HETATM   17  C   UNL     1      41.188  -9.131  13.733  1.00  0.00     0.020 A 
HETATM   18  C   UNL     1      41.328  -9.633  12.436  1.00  0.00     0.014 A 
ENDBRANCH  11  12
ENDBRANCH   7  10
ENDBRANCH   5   6
BRANCH   1  19
HETATM   19  C   UNL     1      42.290 -12.464   6.406  1.00  0.00     0.296 C 
BRANCH  19  20
HETATM   20  N   UNL     1      42.419 -13.919   6.837  1.00  0.00    -0.066 N 
HETATM   21  H   UNL     1      42.503 -13.887   7.874  1.00  0.00     0.280 HD
BRANCH  20  22
HETATM   22  C   UNL     1      43.675 -14.571   6.283  1.00  0.00     0.235 C 
BRANCH  22  23
HETATM   23  C   UNL     1      43.903 -16.011   6.740  1.00  0.00     0.023 C 
HETATM   24  C   UNL     1      44.321 -16.960   5.630  1.00  0.00     0.007 C 
ENDBRANCH  22  23
ENDBRANCH  20  22
BRANCH  20  25
HETATM   25  C   UNL     1      41.177 -14.722   6.487  1.00  0.00     0.235 C 
BRANCH  25  26
HETATM   26  C   UNL     1      40.837 -14.721   4.996  1.00  0.00     0.023 C 
HETATM   27  C   UNL     1      40.796 -16.103   4.363  1.00  0.00     0.007 C 
ENDBRANCH  25  26
ENDBRANCH  20  25
ENDBRANCH  19  20
ENDBRANCH   1  19
BRANCH   2  28
HETATM   28  C   UNL     1      43.123 -12.063   3.346  1.00  0.00     0.225 A 
HETATM   29  N   UNL     1      43.185 -13.268   2.777  1.00  0.00    -0.081 NA
HETATM   30  O   UNL     1      42.298 -13.175   1.701  1.00  0.00    -0.103 OA
HETATM   31  N   UNL     1      41.700 -11.924   1.650  1.00  0.00    -0.083 NA
HETATM   32  C   UNL     1      42.208 -11.236   2.671  1.00  0.00     0.201 A 
BRANCH  32  33
HETATM   33  N   UNL     1      41.882  -9.968   2.969  1.00  0.00    -0.379 N 
HETATM   34  H   UNL     1      41.086  -9.525   2.517  1.00  0.00     0.158 HD
HETATM   35  H   UNL     1      42.247  -9.464   3.775  1.00  0.00     0.158 HD
ENDBRANCH  32  33
ENDBRANCH   2  28
TORSDOF 11
ENDMDL
MODEL 5
REMARK VINA RESULT:      -7.1      2.056      4.126
REMARK  11 active torsions:
REMARK  status: ('A' for Active; 'I' for Inactive)
REMARK    1  A    between atoms: C_2  and  C_3 
REMARK    2  A    between atoms: C_3  and  N_4 
REMARK    3  A    between atoms: N_4  and  C_6 
REMARK    4  A    between atoms: N_4  and  C_30 
REMARK    5  A    between atoms: C_6  and  C_7 
REMARK    6  A    between atoms: N_8  and  C_9 
REMARK    7  A    between atoms: C_13  and  N_14 
REMARK    8  A    between atoms: C_17  and  C_18 
REMARK       I    between atoms: C_18  and  N_19 
REMARK    9  A    between atoms: N_19  and  N_20 
REMARK   10  A    between atoms: C_21  and  C_22 
REMARK   11  A    between atoms: C_30  and  C_31 
ROOT
HETATM    1  C   UNL     1      40.822 -10.229   7.056  1.00  0.00     0.096 A 
HETATM    2  N   UNL     1      40.187  -9.387   7.970  1.00  0.00    -0.215 N 
HETATM    3  N   UNL     1      38.942  -9.883   8.217  1.00  0.00     0.012 NA
HETATM    4  N   UNL     1      38.722 -10.932   7.443  1.00  0.00    -0.152 NA
HETATM    5  C   UNL     1      39.847 -11.155   6.711  1.00  0.00     0.170 A 
ENDROOT
BRANCH   5   6
HETATM    6  C   UNL     1      39.980 -12.224   5.732  1.00  0.00     0.293 C 
HETATM    7  N   UNL     1      40.431 -13.417   6.257  1.00  0.00    -0.242 N 
HETATM    8  H   UNL     1      40.626 -13.498   7.252  1.00  0.00     0.192 HD
HETATM    9  O   UNL     1      39.696 -12.005   4.556  1.00  0.00    -0.264 OA
BRANCH   7  10
HETATM   10  N   UNL     1      40.740 -14.444   5.416  1.00  0.00    -0.184 NA
HETATM   11  C   UNL     1      41.857 -15.055   5.662  1.00  0.00     0.150 C 
BRANCH  11  12
HETATM   12  C   UNL     1      42.344 -16.152   4.802  1.00  0.00    -0.017 A 
HETATM   13  C   UNL     1      43.304 -17.057   5.270  1.00  0.00     0.014 A 
HETATM   14  C   UNL     1      43.733 -18.102   4.450  1.00  0.00     0.020 A 
HETATM   15  C   UNL     1      43.203 -18.237   3.167  1.00  0.00     0.011 A 
HETATM   16 BR   UNL     1      43.780 -19.656   2.060  1.00  0.00    -0.051 Br
HETATM   17  C   UNL     1      42.249 -17.335   2.694  1.00  0.00     0.020 A 
HETATM   18  C   UNL     1      41.816 -16.289   3.514  1.00  0.00     0.014 A 
ENDBRANCH  11  12
ENDBRANCH   7  10
ENDBRANCH   5   6
BRANCH   1  19
HETATM   19  C   UNL     1      42.253 -10.175   6.652  1.00  0.00     0.296 C 
BRANCH  19  20
HETATM   20  N   UNL     1      43.132 -11.298   7.186  1.00  0.00    -0.066 N 
HETATM   21  H   UNL     1      42.471 -11.974   7.623  1.00  0.00     0.280 HD
BRANCH  20  22
HETATM   22  C   UNL     1      44.088 -10.812   8.265  1.00  0.00     0.235 C 
BRANCH  22  23
HETATM   23  C   UNL     1      45.555 -10.766   7.844  1.00  0.00     0.023 C 
HETATM   24  C   UNL     1      46.203  -9.399   7.990  1.00  0.00     0.007 C 
ENDBRANCH  22  23
ENDBRANCH  20  22
BRANCH  20  25
HETATM   25  C   UNL     1      43.874 -12.013   6.069  1.00  0.00     0.235 C 
BRANCH  25  26
HETATM   26  C   UNL     1      43.646 -11.405   4.685  1.00  0.00     0.023 C 
HETATM   27  C   UNL     1      43.326 -12.422   3.601  1.00  0.00     0.007 C 
ENDBRANCH  25  26
ENDBRANCH  20  25
ENDBRANCH  19  20
ENDBRANCH   1  19
BRANCH   2  28
HETATM   28  C   UNL     1      40.636  -8.181   8.558  1.00  0.00     0.225 A 
HETATM   29  N   UNL     1      41.026  -8.158   9.833  1.00  0.00    -0.081 NA
HETATM   30  O   UNL     1      41.416  -6.832  10.039  1.00  0.00    -0.103 OA
HETATM   31  N   UNL     1      41.275  -6.081   8.881  1.00  0.00    -0.083 NA
HETATM   32  C   UNL     1      40.795  -6.917   7.962  1.00  0.00     0.201 A 
BRANCH  32  33
HETATM   33  N   UNL     1      40.517  -6.573   6.695  1.00  0.00    -0.379 N 
HETATM   34  H   UNL     1      40.118  -7.256   6.055  1.00  0.00     0.158 HD
HETATM   35  H   UNL     1      40.481  -5.610   6.364  1.00  0.00     0.158 HD
ENDBRANCH  32  33
ENDBRANCH   2  28
TORSDOF 11
ENDMDL
MODEL 6
REMARK VINA RESULT:      -7.0      4.597      8.520
REMARK  11 active torsions:
REMARK  status: ('A' for Active; 'I' for Inactive)
REMARK    1  A    between atoms: C_2  and  C_3 
REMARK    2  A    between atoms: C_3  and  N_4 
REMARK    3  A    between atoms: N_4  and  C_6 
REMARK    4  A    between atoms: N_4  and  C_30 
REMARK    5  A    between atoms: C_6  and  C_7 
REMARK    6  A    between atoms: N_8  and  C_9 
REMARK    7  A    between atoms: C_13  and  N_14 
REMARK    8  A    between atoms: C_17  and  C_18 
REMARK       I    between atoms: C_18  and  N_19 
REMARK    9  A    between atoms: N_19  and  N_20 
REMARK   10  A    between atoms: C_21  and  C_22 
REMARK   11  A    between atoms: C_30  and  C_31 
ROOT
HETATM    1  C   UNL     1      43.405 -10.708   6.838  1.00  0.00     0.096 A 
HETATM    2  N   UNL     1      43.737 -11.638   5.851  1.00  0.00    -0.215 N 
HETATM    3  N   UNL     1      44.738 -12.430   6.328  1.00  0.00     0.012 NA
HETATM    4  N   UNL     1      45.120 -11.994   7.516  1.00  0.00    -0.152 NA
HETATM    5  C   UNL     1      44.334 -10.933   7.845  1.00  0.00     0.170 A 
ENDROOT
BRANCH   5   6
HETATM    6  C   UNL     1      44.464 -10.178   9.082  1.00  0.00     0.293 C 
HETATM    7  N   UNL     1      43.898 -10.792  10.180  1.00  0.00    -0.242 N 
HETATM    8  H   UNL     1      43.450 -11.700  10.085  1.00  0.00     0.192 HD
HETATM    9  O   UNL     1      45.045  -9.094   9.071  1.00  0.00    -0.264 OA
BRANCH   7  10
HETATM   10  N   UNL     1      43.822 -10.115  11.360  1.00  0.00    -0.184 NA
HETATM   11  C   UNL     1      42.639  -9.711  11.702  1.00  0.00     0.150 C 
BRANCH  11  12
HETATM   12  C   UNL     1      42.415  -8.920  12.929  1.00  0.00    -0.017 A 
HETATM   13  C   UNL     1      41.402  -9.267  13.830  1.00  0.00     0.014 A 
HETATM   14  C   UNL     1      41.223  -8.521  14.998  1.00  0.00     0.020 A 
HETATM   15  C   UNL     1      42.056  -7.434  15.257  1.00  0.00     0.011 A 
HETATM   16 BR   UNL     1      41.818  -6.429  16.840  1.00  0.00    -0.051 Br
HETATM   17  C   UNL     1      43.065  -7.081  14.359  1.00  0.00     0.020 A 
HETATM   18  C   UNL     1      43.247  -7.827  13.192  1.00  0.00     0.014 A 
ENDBRANCH  11  12
ENDBRANCH   7  10
ENDBRANCH   5   6
BRANCH   1  19
HETATM   19  C   UNL     1      42.244  -9.778   6.820  1.00  0.00     0.296 C 
BRANCH  19  20
HETATM   20  N   UNL     1      40.991 -10.272   7.531  1.00  0.00    -0.066 N 
HETATM   21  H   UNL     1      41.281 -11.151   8.008  1.00  0.00     0.280 HD
BRANCH  20  22
HETATM   22  C   UNL     1      39.876 -10.613   6.555  1.00  0.00     0.235 C 
BRANCH  22  23
HETATM   23  C   UNL     1      39.822 -12.080   6.133  1.00  0.00     0.023 C 
HETATM   24  C   UNL     1      39.363 -12.302   4.702  1.00  0.00     0.007 C 
ENDBRANCH  22  23
ENDBRANCH  20  22
BRANCH  20  25
HETATM   25  C   UNL     1      40.520  -9.290   8.590  1.00  0.00     0.235 C 
BRANCH  25  26
HETATM   26  C   UNL     1      39.175  -9.653   9.219  1.00  0.00     0.023 C 
HETATM   27  C   UNL     1      39.252 -10.013  10.694  1.00  0.00     0.007 C 
ENDBRANCH  25  26
ENDBRANCH  20  25
ENDBRANCH  19  20
ENDBRANCH   1  19
BRANCH   2  28
HETATM   28  C   UNL     1      43.231 -11.789   4.538  1.00  0.00     0.225 A 
HETATM   29  N   UNL     1      43.157 -10.737   3.721  1.00  0.00    -0.081 NA
HETATM   30  O   UNL     1      42.646 -11.272   2.535  1.00  0.00    -0.103 OA
HETATM   31  N   UNL     1      42.439 -12.639   2.649  1.00  0.00    -0.083 NA
HETATM   32  C   UNL     1      42.804 -12.960   3.888  1.00  0.00     0.201 A 
BRANCH  32  33
HETATM   33  N   UNL     1      42.754 -14.201   4.396  1.00  0.00    -0.379 N 
HETATM   34  H   UNL     1      42.196 -14.919   3.939  1.00  0.00     0.158 HD
HETATM   35  H   UNL     1      43.399 -14.551   5.102  1.00  0.00     0.158 HD
ENDBRANCH  32  33
ENDBRANCH   2  28
TORSDOF 11
ENDMDL
MODEL 7
REMARK VINA RESULT:      -6.9      1.392      2.428
REMARK  11 active torsions:
REMARK  status: ('A' for Active; 'I' for Inactive)
REMARK    1  A    between atoms: C_2  and  C_3 
REMARK    2  A    between atoms: C_3  and  N_4 
REMARK    3  A    between atoms: N_4  and  C_6 
REMARK    4  A    between atoms: N_4  and  C_30 
REMARK    5  A    between atoms: C_6  and  C_7 
REMARK    6  A    between atoms: N_8  and  C_9 
REMARK    7  A    between atoms: C_13  and  N_14 
REMARK    8  A    between atoms: C_17  and  C_18 
REMARK       I    between atoms: C_18  and  N_19 
REMARK    9  A    between atoms: N_19  and  N_20 
REMARK   10  A    between atoms: C_21  and  C_22 
REMARK   11  A    between atoms: C_30  and  C_31 
ROOT
HETATM    1  C   UNL     1      43.304 -10.105   8.641  1.00  0.00     0.096 A 
HETATM    2  N   UNL     1      43.816  -9.595   9.836  1.00  0.00    -0.215 N 
HETATM    3  N   UNL     1      45.106 -10.014   9.964  1.00  0.00     0.012 NA
HETATM    4  N   UNL     1      45.405 -10.834   8.971  1.00  0.00    -0.152 NA
HETATM    5  C   UNL     1      44.318 -10.921   8.158  1.00  0.00     0.170 A 
ENDROOT
BRANCH   5   6
HETATM    6  C   UNL     1      44.264 -11.744   6.959  1.00  0.00     0.293 C 
HETATM    7  N   UNL     1      43.314 -12.744   7.002  1.00  0.00    -0.242 N 
HETATM    8  H   UNL     1      42.716 -12.848   7.820  1.00  0.00     0.192 HD
HETATM    9  O   UNL     1      45.030 -11.507   6.027  1.00  0.00    -0.264 OA
BRANCH   7  10
HETATM   10  N   UNL     1      43.271 -13.671   6.005  1.00  0.00    -0.184 NA
HETATM   11  C   UNL     1      43.474 -14.899   6.369  1.00  0.00     0.150 C 
BRANCH  11  12
HETATM   12  C   UNL     1      43.508 -16.002   5.388  1.00  0.00    -0.017 A 
HETATM   13  C   UNL     1      44.158 -17.205   5.686  1.00  0.00     0.014 A 
HETATM   14  C   UNL     1      44.158 -18.245   4.754  1.00  0.00     0.020 A 
HETATM   15  C   UNL     1      43.510 -18.077   3.531  1.00  0.00     0.011 A 
HETATM   16 BR   UNL     1      43.504 -19.488   2.273  1.00  0.00    -0.051 Br
HETATM   17  C   UNL     1      42.864 -16.877   3.228  1.00  0.00     0.020 A 
HETATM   18  C   UNL     1      42.861 -15.836   4.159  1.00  0.00     0.014 A 
ENDBRANCH  11  12
ENDBRANCH   7  10
ENDBRANCH   5   6
BRANCH   1  19
HETATM   19  C   UNL     1      42.005  -9.745   8.013  1.00  0.00     0.296 C 
BRANCH  19  20
HETATM   20  N   UNL     1      42.052  -8.601   7.009  1.00  0.00    -0.066 N 
HETATM   21  H   UNL     1      43.060  -8.355   6.927  1.00  0.00     0.280 HD
BRANCH  20  22
HETATM   22  C   UNL     1      41.307  -7.373   7.506  1.00  0.00     0.235 C 
BRANCH  22  23
HETATM   23  C   UNL     1      40.171  -7.666   8.484  1.00  0.00     0.023 C 
HETATM   24  C   UNL     1      38.862  -6.974   8.146  1.00  0.00     0.007 C 
ENDBRANCH  22  23
ENDBRANCH  20  22
BRANCH  20  25
HETATM   25  C   UNL     1      41.557  -9.033   5.638  1.00  0.00     0.235 C 
BRANCH  25  26
HETATM   26  C   UNL     1      40.707 -10.304   5.658  1.00  0.00     0.023 C 
HETATM   27  C   UNL     1      39.213 -10.060   5.524  1.00  0.00     0.007 C 
ENDBRANCH  25  26
ENDBRANCH  20  25
ENDBRANCH  19  20
ENDBRANCH   1  19
BRANCH   2  28
HETATM   28  C   UNL     1      43.184  -8.818  10.836  1.00  0.00     0.225 A 
HETATM   29  N   UNL     1      43.123  -7.491  10.718  1.00  0.00    -0.081 NA
HETATM   30  O   UNL     1      42.419  -7.086  11.856  1.00  0.00    -0.103 OA
HETATM   31  N   UNL     1      42.049  -8.177  12.631  1.00  0.00    -0.083 NA
HETATM   32  C   UNL     1      42.520  -9.249  11.998  1.00  0.00     0.201 A 
BRANCH  32  33
HETATM   33  N   UNL     1      42.370 -10.511  12.429  1.00  0.00    -0.379 N 
HETATM   34  H   UNL     1      43.187 -11.087  12.620  1.00  0.00     0.158 HD
HETATM   35  H   UNL     1      41.494 -10.888  12.785  1.00  0.00     0.158 HD
ENDBRANCH  32  33
ENDBRANCH   2  28
TORSDOF 11
ENDMDL
MODEL 8
REMARK VINA RESULT:      -6.9      4.857      8.865
REMARK  11 active torsions:
REMARK  status: ('A' for Active; 'I' for Inactive)
REMARK    1  A    between atoms: C_2  and  C_3 
REMARK    2  A    between atoms: C_3  and  N_4 
REMARK    3  A    between atoms: N_4  and  C_6 
REMARK    4  A    between atoms: N_4  and  C_30 
REMARK    5  A    between atoms: C_6  and  C_7 
REMARK    6  A    between atoms: N_8  and  C_9 
REMARK    7  A    between atoms: C_13  and  N_14 
REMARK    8  A    between atoms: C_17  and  C_18 
REMARK       I    between atoms: C_18  and  N_19 
REMARK    9  A    between atoms: N_19  and  N_20 
REMARK   10  A    between atoms: C_21  and  C_22 
REMARK   11  A    between atoms: C_30  and  C_31 
ROOT
HETATM    1  C   UNL     1      43.151 -10.731   7.044  1.00  0.00     0.096 A 
HETATM    2  N   UNL     1      43.460 -11.511   5.929  1.00  0.00    -0.215 N 
HETATM    3  N   UNL     1      44.560 -12.261   6.221  1.00  0.00     0.012 NA
HETATM    4  N   UNL     1      45.016 -11.929   7.417  1.00  0.00    -0.152 NA
HETATM    5  C   UNL     1      44.185 -10.985   7.935  1.00  0.00     0.170 A 
ENDROOT
BRANCH   5   6
HETATM    6  C   UNL     1      44.372 -10.365   9.238  1.00  0.00     0.293 C 
HETATM    7  N   UNL     1      43.591 -10.906  10.238  1.00  0.00    -0.242 N 
HETATM    8  H   UNL     1      42.963 -11.681  10.035  1.00  0.00     0.192 HD
HETATM    9  O   UNL     1      45.177  -9.443   9.360  1.00  0.00    -0.264 OA
BRANCH   7  10
HETATM   10  N   UNL     1      43.565 -10.311  11.464  1.00  0.00    -0.184 NA
HETATM   11  C   UNL     1      42.545  -9.547  11.697  1.00  0.00     0.150 C 
BRANCH  11  12
HETATM   12  C   UNL     1      42.412  -8.798  12.963  1.00  0.00    -0.017 A 
HETATM   13  C   UNL     1      43.243  -7.706  13.239  1.00  0.00     0.014 A 
HETATM   14  C   UNL     1      43.084  -6.995  14.431  1.00  0.00     0.020 A 
HETATM   15  C   UNL     1      42.098  -7.379  15.339  1.00  0.00     0.011 A 
HETATM   16 BR   UNL     1      41.880  -6.413  16.948  1.00  0.00    -0.051 Br
HETATM   17  C   UNL     1      41.271  -8.470  15.070  1.00  0.00     0.020 A 
HETATM   18  C   UNL     1      41.426  -9.182  13.877  1.00  0.00     0.014 A 
ENDBRANCH  11  12
ENDBRANCH   7  10
ENDBRANCH   5   6
BRANCH   1  19
HETATM   19  C   UNL     1      41.925  -9.910   7.235  1.00  0.00     0.296 C 
BRANCH  19  20
HETATM   20  N   UNL     1      41.819  -8.669   6.359  1.00  0.00    -0.066 N 
HETATM   21  H   UNL     1      42.524  -8.809   5.606  1.00  0.00     0.280 HD
BRANCH  20  22
HETATM   22  C   UNL     1      42.185  -7.402   7.116  1.00  0.00     0.235 C 
BRANCH  22  23
HETATM   23  C   UNL     1      42.097  -7.518   8.636  1.00  0.00     0.023 C 
HETATM   24  C   UNL     1      43.074  -6.630   9.388  1.00  0.00     0.007 C 
ENDBRANCH  22  23
ENDBRANCH  20  22
BRANCH  20  25
HETATM   25  C   UNL     1      40.449  -8.551   5.711  1.00  0.00     0.235 C 
BRANCH  25  26
HETATM   26  C   UNL     1      39.584  -9.803   5.859  1.00  0.00     0.023 C 
HETATM   27  C   UNL     1      39.134 -10.410   4.540  1.00  0.00     0.007 C 
ENDBRANCH  25  26
ENDBRANCH  20  25
ENDBRANCH  19  20
ENDBRANCH   1  19
BRANCH   2  28
HETATM   28  C   UNL     1      42.846 -11.558   4.654  1.00  0.00     0.225 A 
HETATM   29  N   UNL     1      42.822 -10.473   3.879  1.00  0.00    -0.081 NA
HETATM   30  O   UNL     1      42.172 -10.905   2.720  1.00  0.00    -0.103 OA
HETATM   31  N   UNL     1      41.833 -12.248   2.806  1.00  0.00    -0.083 NA
HETATM   32  C   UNL     1      42.253 -12.653   4.002  1.00  0.00     0.201 A 
BRANCH  32  33
HETATM   33  N   UNL     1      42.112 -13.902   4.473  1.00  0.00    -0.379 N 
HETATM   34  H   UNL     1      41.515 -14.567   3.986  1.00  0.00     0.158 HD
HETATM   35  H   UNL     1      42.721 -14.315   5.177  1.00  0.00     0.158 HD
ENDBRANCH  32  33
ENDBRANCH   2  28
TORSDOF 11
ENDMDL
MODEL 9
REMARK VINA RESULT:      -6.8     18.357     20.657
REMARK  11 active torsions:
REMARK  status: ('A' for Active; 'I' for Inactive)
REMARK    1  A    between atoms: C_2  and  C_3 
REMARK    2  A    between atoms: C_3  and  N_4 
REMARK    3  A    between atoms: N_4  and  C_6 
REMARK    4  A    between atoms: N_4  and  C_30 
REMARK    5  A    between atoms: C_6  and  C_7 
REMARK    6  A    between atoms: N_8  and  C_9 
REMARK    7  A    between atoms: C_13  and  N_14 
REMARK    8  A    between atoms: C_17  and  C_18 
REMARK       I    between atoms: C_18  and  N_19 
REMARK    9  A    between atoms: N_19  and  N_20 
REMARK   10  A    between atoms: C_21  and  C_22 
REMARK   11  A    between atoms: C_30  and  C_31 
ROOT
HETATM    1  C   UNL     1      46.438 -29.977   0.993  1.00  0.00     0.096 A 
HETATM    2  N   UNL     1      45.422 -29.235   1.598  1.00  0.00    -0.215 N 
HETATM    3  N   UNL     1      45.996 -28.238   2.328  1.00  0.00     0.012 NA
HETATM    4  N   UNL     1      47.311 -28.366   2.295  1.00  0.00    -0.152 NA
HETATM    5  C   UNL     1      47.608 -29.430   1.501  1.00  0.00     0.170 A 
ENDROOT
BRANCH   5   6
HETATM    6  C   UNL     1      48.963 -29.891   1.233  1.00  0.00     0.293 C 
HETATM    7  N   UNL     1      49.473 -29.468   0.023  1.00  0.00    -0.242 N 
HETATM    8  H   UNL     1      48.917 -28.875  -0.589  1.00  0.00     0.192 HD
HETATM    9  O   UNL     1      49.538 -30.592   2.063  1.00  0.00    -0.264 OA
BRANCH   7  10
HETATM   10  N   UNL     1      50.670 -29.959  -0.407  1.00  0.00    -0.184 NA
HETATM   11  C   UNL     1      50.608 -31.013  -1.159  1.00  0.00     0.150 C 
BRANCH  11  12
HETATM   12  C   UNL     1      51.828 -31.683  -1.654  1.00  0.00    -0.017 A 
HETATM   13  C   UNL     1      52.161 -31.651  -3.012  1.00  0.00     0.014 A 
HETATM   14  C   UNL     1      53.332 -32.269  -3.456  1.00  0.00     0.020 A 
HETATM   15  C   UNL     1      54.162 -32.916  -2.541  1.00  0.00     0.011 A 
HETATM   16 BR   UNL     1      55.750 -33.747  -3.142  1.00  0.00    -0.051 Br
HETATM   17  C   UNL     1      53.831 -32.954  -1.186  1.00  0.00     0.020 A 
HETATM   18  C   UNL     1      52.661 -32.335  -0.739  1.00  0.00     0.014 A 
ENDBRANCH  11  12
ENDBRANCH   7  10
ENDBRANCH   5   6
BRANCH   1  19
HETATM   19  C   UNL     1      46.264 -31.034  -0.039  1.00  0.00     0.296 C 
BRANCH  19  20
HETATM   20  N   UNL     1      45.675 -30.572  -1.365  1.00  0.00    -0.066 N 
HETATM   21  H   UNL     1      44.681 -30.343  -1.153  1.00  0.00     0.280 HD
BRANCH  20  22
HETATM   22  C   UNL     1      45.690 -31.673  -2.413  1.00  0.00     0.235 C 
BRANCH  22  23
HETATM   23  C   UNL     1      46.502 -31.352  -3.666  1.00  0.00     0.023 C 
HETATM   24  C   UNL     1      45.681 -31.286  -4.942  1.00  0.00     0.007 C 
ENDBRANCH  22  23
ENDBRANCH  20  22
BRANCH  20  25
HETATM   25  C   UNL     1      46.355 -29.312  -1.875  1.00  0.00     0.235 C 
BRANCH  25  26
HETATM   26  C   UNL     1      45.397 -28.147  -2.122  1.00  0.00     0.023 C 
HETATM   27  C   UNL     1      45.128 -27.859  -3.590  1.00  0.00     0.007 C 
ENDBRANCH  25  26
ENDBRANCH  20  25
ENDBRANCH  19  20
ENDBRANCH   1  19
BRANCH   2  28
HETATM   28  C   UNL     1      44.020 -29.425   1.572  1.00  0.00     0.225 A 
HETATM   29  N   UNL     1      43.307 -29.033   0.516  1.00  0.00    -0.081 NA
HETATM   30  O   UNL     1      41.999 -29.403   0.839  1.00  0.00    -0.103 OA
HETATM   31  N   UNL     1      41.946 -30.031   2.076  1.00  0.00    -0.083 NA
HETATM   32  C   UNL     1      43.198 -30.048   2.529  1.00  0.00     0.201 A 
BRANCH  32  33
HETATM   33  N   UNL     1      43.572 -30.573   3.705  1.00  0.00    -0.379 N 
HETATM   34  H   UNL     1      43.952 -31.516   3.747  1.00  0.00     0.158 HD
HETATM   35  H   UNL     1      43.701 -30.027   4.555  1.00  0.00     0.158 HD
ENDBRANCH  32  33
ENDBRANCH   2  28
TORSDOF 11
ENDMDL
MODEL 10
REMARK VINA RESULT:      -6.8      5.240      8.398
REMARK  11 active torsions:
REMARK  status: ('A' for Active; 'I' for Inactive)
REMARK    1  A    between atoms: C_2  and  C_3 
REMARK    2  A    between atoms: C_3  and  N_4 
REMARK    3  A    between atoms: N_4  and  C_6 
REMARK    4  A    between atoms: N_4  and  C_30 
REMARK    5  A    between atoms: C_6  and  C_7 
REMARK    6  A    between atoms: N_8  and  C_9 
REMARK    7  A    between atoms: C_13  and  N_14 
REMARK    8  A    between atoms: C_17  and  C_18 
REMARK       I    between atoms: C_18  and  N_19 
REMARK    9  A    between atoms: N_19  and  N_20 
REMARK   10  A    between atoms: C_21  and  C_22 
REMARK   11  A    between atoms: C_30  and  C_31 
ROOT
HETATM    1  C   UNL     1      40.747 -13.718   4.250  1.00  0.00     0.096 A 
HETATM    2  N   UNL     1      40.679 -13.910   5.631  1.00  0.00    -0.215 N 
HETATM    3  N   UNL     1      39.711 -13.091   6.131  1.00  0.00     0.012 NA
HETATM    4  N   UNL     1      39.234 -12.328   5.163  1.00  0.00    -0.152 NA
HETATM    5  C   UNL     1      39.861 -12.677   4.007  1.00  0.00     0.170 A 
ENDROOT
BRANCH   5   6
HETATM    6  C   UNL     1      39.605 -12.045   2.721  1.00  0.00     0.293 C 
HETATM    7  N   UNL     1      40.671 -11.322   2.226  1.00  0.00    -0.242 N 
HETATM    8  H   UNL     1      41.544 -11.276   2.746  1.00  0.00     0.192 HD
HETATM    9  O   UNL     1      38.510 -12.191   2.183  1.00  0.00    -0.264 OA
BRANCH   7  10
HETATM   10  N   UNL     1      40.502 -10.562   1.108  1.00  0.00    -0.184 NA
HETATM   11  C   UNL     1      41.181 -10.934   0.068  1.00  0.00     0.150 C 
BRANCH  11  12
HETATM   12  C   UNL     1      41.137 -10.174  -1.197  1.00  0.00    -0.017 A 
HETATM   13  C   UNL     1      40.489 -10.693  -2.324  1.00  0.00     0.014 A 
HETATM   14  C   UNL     1      40.436  -9.947  -3.503  1.00  0.00     0.020 A 
HETATM   15  C   UNL     1      41.033  -8.688  -3.551  1.00  0.00     0.011 A 
HETATM   16 BR   UNL     1      40.957  -7.677  -5.146  1.00  0.00    -0.051 Br
HETATM   17  C   UNL     1      41.685  -8.168  -2.432  1.00  0.00     0.020 A 
HETATM   18  C   UNL     1      41.736  -8.911  -1.250  1.00  0.00     0.014 A 
ENDBRANCH  11  12
ENDBRANCH   7  10
ENDBRANCH   5   6
BRANCH   1  19
HETATM   19  C   UNL     1      41.526 -14.536   3.283  1.00  0.00     0.296 C 
BRANCH  19  20
HETATM   20  N   UNL     1      40.855 -15.820   2.813  1.00  0.00    -0.066 N 
HETATM   21  H   UNL     1      40.239 -16.107   3.602  1.00  0.00     0.280 HD
BRANCH  20  22
HETATM   22  C   UNL     1      41.859 -16.935   2.571  1.00  0.00     0.235 C 
BRANCH  22  23
HETATM   23  C   UNL     1      42.925 -17.082   3.655  1.00  0.00     0.023 C 
HETATM   24  C   UNL     1      43.855 -18.267   3.459  1.00  0.00     0.007 C 
ENDBRANCH  22  23
ENDBRANCH  20  22
BRANCH  20  25
HETATM   25  C   UNL     1      39.981 -15.585   1.592  1.00  0.00     0.235 C 
BRANCH  25  26
HETATM   26  C   UNL     1      40.673 -14.802   0.475  1.00  0.00     0.023 C 
HETATM   27  C   UNL     1      39.736 -14.306  -0.614  1.00  0.00     0.007 C 
ENDBRANCH  25  26
ENDBRANCH  20  25
ENDBRANCH  19  20
ENDBRANCH   1  19
BRANCH   2  28
HETATM   28  C   UNL     1      41.460 -14.738   6.473  1.00  0.00     0.225 A 
HETATM   29  N   UNL     1      41.109 -16.008   6.682  1.00  0.00    -0.081 NA
HETATM   30  O   UNL     1      42.111 -16.498   7.523  1.00  0.00    -0.103 OA
HETATM   31  N   UNL     1      43.062 -15.523   7.791  1.00  0.00    -0.083 NA
HETATM   32  C   UNL     1      42.661 -14.434   7.138  1.00  0.00     0.201 A 
BRANCH  32  33
HETATM   33  N   UNL     1      43.315 -13.262   7.144  1.00  0.00    -0.379 N 
HETATM   34  H   UNL     1      44.172 -13.153   6.608  1.00  0.00     0.158 HD
HETATM   35  H   UNL     1      42.912 -12.390   7.482  1.00  0.00     0.158 HD
ENDBRANCH  32  33
ENDBRANCH   2  28
TORSDOF 11
ENDMDL
