MODEL 1
REMARK VINA RESULT:      -9.4      0.000      0.000
REMARK  6 active torsions:
REMARK  status: ('A' for Active; 'I' for Inactive)
REMARK    1  A    between atoms: C_2  and  N_3 
REMARK       I    between atoms: N_3  and  C_4 
REMARK    2  A    between atoms: C_4  and  C_5 
REMARK    3  A    between atoms: C_13  and  N_14 
REMARK       I    between atoms: N_14  and  C_15 
REMARK    4  A    between atoms: C_15  and  C_16 
REMARK    5  A    between atoms: C_24  and  C_25 
REMARK       I    between atoms: C_25  and  N_26 
REMARK    6  A    between atoms: N_26  and  C_27 
ROOT
HETATM    1  C   UNL     1      42.974 -13.667   6.330  1.00  0.00     0.046 A 
HETATM    2  C   UNL     1      42.946 -12.286   6.548  1.00  0.00     0.037 A 
HETATM    3  C   UNL     1      42.234 -11.464   5.663  1.00  0.00     0.059 A 
HETATM    4  C   UNL     1      41.551 -12.000   4.572  1.00  0.00     0.037 A 
HETATM    5  C   UNL     1      41.581 -13.384   4.375  1.00  0.00     0.046 A 
HETATM    6  C   UNL     1      42.287 -14.230   5.248  1.00  0.00     0.036 A 
ENDROOT
BRANCH   6   7
HETATM    7  C   UNL     1      42.238 -15.703   4.960  1.00  0.00     0.256 C 
HETATM    8  N   UNL     1      43.367 -16.295   4.427  1.00  0.00    -0.317 N 
HETATM    9  H   UNL     1      44.187 -15.732   4.219  1.00  0.00     0.169 HD
HETATM   10  O   UNL     1      41.202 -16.311   5.222  1.00  0.00    -0.267 OA
BRANCH   8  11
HETATM   11  C   UNL     1      43.558 -17.632   4.128  1.00  0.00     0.119 A 
HETATM   12  C   UNL     1      43.299 -18.028   2.704  1.00  0.00     0.277 A 
HETATM   13  O   UNL     1      42.937 -17.191   1.880  1.00  0.00    -0.266 OA
HETATM   14  N   UNL     1      43.487 -19.342   2.380  1.00  0.00    -0.274 N 
HETATM   15  C   UNL     1      43.898 -20.311   3.248  1.00  0.00     0.327 A 
HETATM   16  H   UNL     1      43.320 -19.617   1.426  1.00  0.00     0.173 HD
HETATM   17  O   UNL     1      44.061 -21.475   2.902  1.00  0.00    -0.247 OA
HETATM   18  N   UNL     1      44.118 -19.897   4.532  1.00  0.00    -0.316 N 
HETATM   19  C   UNL     1      43.953 -18.605   4.960  1.00  0.00     0.128 A 
HETATM   20  H   UNL     1      44.423 -20.613   5.183  1.00  0.00     0.170 HD
ENDBRANCH   8  11
ENDBRANCH   6   7
BRANCH   2  21
HETATM   21  N   UNL     1      43.590 -11.644   7.628  1.00  0.00    -0.327 N 
HETATM   22  C   UNL     1      44.841 -11.047   7.640  1.00  0.00     0.226 C 
HETATM   23  O   UNL     1      45.609 -10.994   6.685  1.00  0.00    -0.273 OA
HETATM   24  H   UNL     1      43.079 -11.645   8.504  1.00  0.00     0.169 HD
BRANCH  22  25
HETATM   25  C   UNL     1      45.209 -10.473   9.019  1.00  0.00     0.078 C 
HETATM   26  C   UNL     1      45.777  -9.047   8.922  1.00  0.00     0.014 C 
HETATM   27  C   UNL     1      44.708  -7.979   8.686  1.00  0.00     0.001 C 
HETATM   28  C   UNL     1      43.571  -8.077   9.695  1.00  0.00     0.000 C 
HETATM   29  C   UNL     1      42.972  -9.478   9.726  1.00  0.00     0.001 C 
HETATM   30  C   UNL     1      44.038 -10.533  10.010  1.00  0.00     0.014 C 
ENDBRANCH  22  25
ENDBRANCH   2  21
BRANCH   4  31
HETATM   31  N   UNL     1      40.807 -11.232   3.650  1.00  0.00    -0.327 N 
HETATM   32  C   UNL     1      41.248 -10.682   2.455  1.00  0.00     0.226 C 
HETATM   33  O   UNL     1      42.364 -10.837   1.970  1.00  0.00    -0.273 OA
HETATM   34  H   UNL     1      39.830 -11.093   3.880  1.00  0.00     0.169 HD
BRANCH  32  35
HETATM   35  C   UNL     1      40.163  -9.845   1.760  1.00  0.00     0.078 C 
HETATM   36  C   UNL     1      40.281  -9.918   0.230  1.00  0.00     0.014 C 
HETATM   37  C   UNL     1      39.790 -11.250  -0.332  1.00  0.00     0.001 C 
HETATM   38  C   UNL     1      38.360 -11.546   0.105  1.00  0.00     0.000 C 
HETATM   39  C   UNL     1      38.222 -11.520   1.623  1.00  0.00     0.001 C 
HETATM   40  C   UNL     1      38.746 -10.216   2.225  1.00  0.00     0.014 C 
ENDBRANCH  32  35
ENDBRANCH   4  31
TORSDOF 6
ENDMDL
MODEL 2
REMARK VINA RESULT:      -9.2      1.530      6.820
REMARK  6 active torsions:
REMARK  status: ('A' for Active; 'I' for Inactive)
REMARK    1  A    between atoms: C_2  and  N_3 
REMARK       I    between atoms: N_3  and  C_4 
REMARK    2  A    between atoms: C_4  and  C_5 
REMARK    3  A    between atoms: C_13  and  N_14 
REMARK       I    between atoms: N_14  and  C_15 
REMARK    4  A    between atoms: C_15  and  C_16 
REMARK    5  A    between atoms: C_24  and  C_25 
REMARK       I    between atoms: C_25  and  N_26 
REMARK    6  A    between atoms: N_26  and  C_27 
ROOT
HETATM    1  C   UNL     1      42.059 -12.822   2.588  1.00  0.00     0.046 A 
HETATM    2  C   UNL     1      42.211 -11.444   2.768  1.00  0.00     0.037 A 
HETATM    3  C   UNL     1      42.526 -10.946   4.041  1.00  0.00     0.059 A 
HETATM    4  C   UNL     1      42.695 -11.803   5.128  1.00  0.00     0.037 A 
HETATM    5  C   UNL     1      42.552 -13.179   4.928  1.00  0.00     0.046 A 
HETATM    6  C   UNL     1      42.236 -13.703   3.662  1.00  0.00     0.036 A 
ENDROOT
BRANCH   6   7
HETATM    7  C   UNL     1      42.125 -15.197   3.549  1.00  0.00     0.256 C 
HETATM    8  N   UNL     1      43.276 -15.912   3.277  1.00  0.00    -0.317 N 
HETATM    9  H   UNL     1      44.157 -15.424   3.137  1.00  0.00     0.169 HD
HETATM   10  O   UNL     1      41.020 -15.710   3.713  1.00  0.00    -0.267 OA
BRANCH   8  11
HETATM   11  C   UNL     1      43.412 -17.284   3.175  1.00  0.00     0.119 A 
HETATM   12  C   UNL     1      44.080 -17.964   4.335  1.00  0.00     0.277 A 
HETATM   13  O   UNL     1      44.475 -17.310   5.298  1.00  0.00    -0.266 OA
HETATM   14  N   UNL     1      44.220 -19.321   4.262  1.00  0.00    -0.274 N 
HETATM   15  C   UNL     1      43.793 -20.098   3.225  1.00  0.00     0.327 A 
HETATM   16  H   UNL     1      44.665 -19.787   5.036  1.00  0.00     0.173 HD
HETATM   17  O   UNL     1      43.935 -21.315   3.216  1.00  0.00    -0.247 OA
HETATM   18  N   UNL     1      43.193 -19.429   2.196  1.00  0.00    -0.316 N 
HETATM   19  C   UNL     1      43.008 -18.071   2.168  1.00  0.00     0.128 A 
HETATM   20  H   UNL     1      42.872 -20.001   1.421  1.00  0.00     0.170 HD
ENDBRANCH   8  11
ENDBRANCH   6   7
BRANCH   2  21
HETATM   21  N   UNL     1      42.075 -10.492   1.734  1.00  0.00    -0.327 N 
HETATM   22  C   UNL     1      40.932  -9.807   1.352  1.00  0.00     0.226 C 
HETATM   23  O   UNL     1      39.826  -9.934   1.866  1.00  0.00    -0.273 OA
HETATM   24  H   UNL     1      42.914 -10.313   1.193  1.00  0.00     0.169 HD
BRANCH  22  25
HETATM   25  C   UNL     1      41.177  -8.868   0.159  1.00  0.00     0.078 C 
HETATM   26  C   UNL     1      42.057  -9.518  -0.922  1.00  0.00     0.014 C 
HETATM   27  C   UNL     1      41.311 -10.535  -1.787  1.00  0.00     0.001 C 
HETATM   28  C   UNL     1      40.024  -9.958  -2.365  1.00  0.00     0.000 C 
HETATM   29  C   UNL     1      39.131  -9.383  -1.272  1.00  0.00     0.001 C 
HETATM   30  C   UNL     1      39.869  -8.333  -0.444  1.00  0.00     0.014 C 
ENDBRANCH  22  25
ENDBRANCH   2  21
BRANCH   4  31
HETATM   31  N   UNL     1      43.023 -11.371   6.431  1.00  0.00    -0.327 N 
HETATM   32  C   UNL     1      44.276 -11.348   7.026  1.00  0.00     0.226 C 
HETATM   33  O   UNL     1      45.330 -11.646   6.473  1.00  0.00    -0.273 OA
HETATM   34  H   UNL     1      42.253 -11.012   6.984  1.00  0.00     0.169 HD
BRANCH  32  35
HETATM   35  C   UNL     1      44.223 -10.881   8.489  1.00  0.00     0.078 C 
HETATM   36  C   UNL     1      45.572 -10.309   8.952  1.00  0.00     0.014 C 
HETATM   37  C   UNL     1      45.842  -8.917   8.387  1.00  0.00     0.001 C 
HETATM   38  C   UNL     1      44.711  -7.950   8.721  1.00  0.00     0.000 C 
HETATM   39  C   UNL     1      43.365  -8.475   8.235  1.00  0.00     0.001 C 
HETATM   40  C   UNL     1      43.080  -9.887   8.748  1.00  0.00     0.014 C 
ENDBRANCH  32  35
ENDBRANCH   4  31
TORSDOF 6
ENDMDL
MODEL 3
REMARK VINA RESULT:      -9.2      1.593      2.182
REMARK  6 active torsions:
REMARK  status: ('A' for Active; 'I' for Inactive)
REMARK    1  A    between atoms: C_2  and  N_3 
REMARK       I    between atoms: N_3  and  C_4 
REMARK    2  A    between atoms: C_4  and  C_5 
REMARK    3  A    between atoms: C_13  and  N_14 
REMARK       I    between atoms: N_14  and  C_15 
REMARK    4  A    between atoms: C_15  and  C_16 
REMARK    5  A    between atoms: C_24  and  C_25 
REMARK       I    between atoms: C_25  and  N_26 
REMARK    6  A    between atoms: N_26  and  C_27 
ROOT
HETATM    1  C   UNL     1      43.280 -12.988   4.672  1.00  0.00     0.046 A 
HETATM    2  C   UNL     1      43.006 -11.689   5.111  1.00  0.00     0.037 A 
HETATM    3  C   UNL     1      42.546 -10.735   4.192  1.00  0.00     0.059 A 
HETATM    4  C   UNL     1      42.354 -11.060   2.850  1.00  0.00     0.037 A 
HETATM    5  C   UNL     1      42.621 -12.367   2.431  1.00  0.00     0.046 A 
HETATM    6  C   UNL     1      43.083 -13.342   3.332  1.00  0.00     0.036 A 
ENDROOT
BRANCH   6   7
HETATM    7  C   UNL     1      43.320 -14.721   2.785  1.00  0.00     0.256 C 
HETATM    8  N   UNL     1      43.173 -15.792   3.646  1.00  0.00    -0.317 N 
HETATM    9  H   UNL     1      42.935 -15.632   4.621  1.00  0.00     0.169 HD
HETATM   10  O   UNL     1      43.623 -14.829   1.599  1.00  0.00    -0.267 OA
BRANCH   8  11
HETATM   11  C   UNL     1      43.298 -17.136   3.348  1.00  0.00     0.119 A 
HETATM   12  C   UNL     1      44.135 -17.942   4.299  1.00  0.00     0.277 A 
HETATM   13  O   UNL     1      44.666 -17.407   5.269  1.00  0.00    -0.266 OA
HETATM   14  N   UNL     1      44.268 -19.275   4.031  1.00  0.00    -0.274 N 
HETATM   15  C   UNL     1      43.695 -19.924   2.978  1.00  0.00     0.327 A 
HETATM   16  H   UNL     1      44.826 -19.826   4.665  1.00  0.00     0.173 HD
HETATM   17  O   UNL     1      43.839 -21.127   2.791  1.00  0.00    -0.247 OA
HETATM   18  N   UNL     1      42.944 -19.144   2.143  1.00  0.00    -0.316 N 
HETATM   19  C   UNL     1      42.752 -17.798   2.319  1.00  0.00     0.128 A 
HETATM   20  H   UNL     1      42.514 -19.620   1.357  1.00  0.00     0.170 HD
ENDBRANCH   8  11
ENDBRANCH   6   7
BRANCH   2  21
HETATM   21  N   UNL     1      43.154 -11.259   6.448  1.00  0.00    -0.327 N 
HETATM   22  C   UNL     1      44.308 -11.246   7.215  1.00  0.00     0.226 C 
HETATM   23  O   UNL     1      45.411 -11.628   6.840  1.00  0.00    -0.273 OA
HETATM   24  H   UNL     1      42.303 -10.947   6.902  1.00  0.00     0.169 HD
BRANCH  22  25
HETATM   25  C   UNL     1      44.063 -10.727   8.643  1.00  0.00     0.078 C 
HETATM   26  C   UNL     1      45.316 -10.069   9.245  1.00  0.00     0.014 C 
HETATM   27  C   UNL     1      45.587  -8.664   8.707  1.00  0.00     0.001 C 
HETATM   28  C   UNL     1      44.360  -7.766   8.812  1.00  0.00     0.000 C 
HETATM   29  C   UNL     1      43.145  -8.402   8.146  1.00  0.00     0.001 C 
HETATM   30  C   UNL     1      42.853  -9.784   8.723  1.00  0.00     0.014 C 
ENDBRANCH  22  25
ENDBRANCH   2  21
BRANCH   4  31
HETATM   31  N   UNL     1      41.883 -10.154   1.876  1.00  0.00    -0.327 N 
HETATM   32  C   UNL     1      40.574  -9.965   1.457  1.00  0.00     0.226 C 
HETATM   33  O   UNL     1      39.589 -10.525   1.926  1.00  0.00    -0.273 OA
HETATM   34  H   UNL     1      42.585  -9.554   1.456  1.00  0.00     0.169 HD
BRANCH  32  35
HETATM   35  C   UNL     1      40.466  -8.938   0.318  1.00  0.00     0.078 C 
HETATM   36  C   UNL     1      41.657  -9.031  -0.647  1.00  0.00     0.014 C 
HETATM   37  C   UNL     1      41.572 -10.246  -1.567  1.00  0.00     0.001 C 
HETATM   38  C   UNL     1      40.259 -10.269  -2.340  1.00  0.00     0.000 C 
HETATM   39  C   UNL     1      39.057 -10.219  -1.404  1.00  0.00     0.001 C 
HETATM   40  C   UNL     1      39.131  -9.037  -0.437  1.00  0.00     0.014 C 
ENDBRANCH  32  35
ENDBRANCH   4  31
TORSDOF 6
ENDMDL
MODEL 4
REMARK VINA RESULT:      -8.9      0.410      6.487
REMARK  6 active torsions:
REMARK  status: ('A' for Active; 'I' for Inactive)
REMARK    1  A    between atoms: C_2  and  N_3 
REMARK       I    between atoms: N_3  and  C_4 
REMARK    2  A    between atoms: C_4  and  C_5 
REMARK    3  A    between atoms: C_13  and  N_14 
REMARK       I    between atoms: N_14  and  C_15 
REMARK    4  A    between atoms: C_15  and  C_16 
REMARK    5  A    between atoms: C_24  and  C_25 
REMARK       I    between atoms: C_25  and  N_26 
REMARK    6  A    between atoms: N_26  and  C_27 
ROOT
HETATM    1  C   UNL     1      41.163 -13.338   4.246  1.00  0.00     0.046 A 
HETATM    2  C   UNL     1      41.134 -11.948   4.396  1.00  0.00     0.037 A 
HETATM    3  C   UNL     1      41.844 -11.354   5.449  1.00  0.00     0.059 A 
HETATM    4  C   UNL     1      42.581 -12.125   6.346  1.00  0.00     0.037 A 
HETATM    5  C   UNL     1      42.610 -13.513   6.175  1.00  0.00     0.046 A 
HETATM    6  C   UNL     1      41.907 -14.133   5.127  1.00  0.00     0.036 A 
ENDROOT
BRANCH   6   7
HETATM    7  C   UNL     1      42.020 -15.627   5.018  1.00  0.00     0.256 C 
HETATM    8  N   UNL     1      43.031 -16.143   4.231  1.00  0.00    -0.317 N 
HETATM    9  H   UNL     1      43.654 -15.517   3.728  1.00  0.00     0.169 HD
HETATM   10  O   UNL     1      41.215 -16.315   5.642  1.00  0.00    -0.267 OA
BRANCH   8  11
HETATM   11  C   UNL     1      43.344 -17.474   4.025  1.00  0.00     0.119 A 
HETATM   12  C   UNL     1      42.974 -18.034   2.683  1.00  0.00     0.277 A 
HETATM   13  O   UNL     1      42.423 -17.326   1.842  1.00  0.00    -0.266 OA
HETATM   14  N   UNL     1      43.279 -19.345   2.451  1.00  0.00    -0.274 N 
HETATM   15  C   UNL     1      43.898 -20.174   3.341  1.00  0.00     0.327 A 
HETATM   16  H   UNL     1      43.037 -19.730   1.552  1.00  0.00     0.173 HD
HETATM   17  O   UNL     1      44.158 -21.342   3.077  1.00  0.00    -0.247 OA
HETATM   18  N   UNL     1      44.212 -19.615   4.547  1.00  0.00    -0.316 N 
HETATM   19  C   UNL     1      43.945 -18.312   4.881  1.00  0.00     0.128 A 
HETATM   20  H   UNL     1      44.673 -20.225   5.214  1.00  0.00     0.170 HD
ENDBRANCH   8  11
ENDBRANCH   6   7
BRANCH   2  21
HETATM   21  N   UNL     1      40.430 -11.076   3.536  1.00  0.00    -0.327 N 
HETATM   22  C   UNL     1      40.826 -10.600   2.297  1.00  0.00     0.226 C 
HETATM   23  O   UNL     1      41.888 -10.864   1.743  1.00  0.00    -0.273 OA
HETATM   24  H   UNL     1      39.539 -10.743   3.888  1.00  0.00     0.169 HD
BRANCH  22  25
HETATM   25  C   UNL     1      39.794  -9.644   1.673  1.00  0.00     0.078 C 
HETATM   26  C   UNL     1      39.852  -9.647   0.137  1.00  0.00     0.014 C 
HETATM   27  C   UNL     1      39.199 -10.876  -0.497  1.00  0.00     0.001 C 
HETATM   28  C   UNL     1      37.786 -11.104   0.024  1.00  0.00     0.000 C 
HETATM   29  C   UNL     1      37.757 -11.171   1.547  1.00  0.00     0.001 C 
HETATM   30  C   UNL     1      38.367  -9.918   2.171  1.00  0.00     0.014 C 
ENDBRANCH  22  25
ENDBRANCH   2  21
BRANCH   4  31
HETATM   31  N   UNL     1      43.327 -11.593   7.420  1.00  0.00    -0.327 N 
HETATM   32  C   UNL     1      44.613 -11.075   7.384  1.00  0.00     0.226 C 
HETATM   33  O   UNL     1      45.295 -10.936   6.373  1.00  0.00    -0.273 OA
HETATM   34  H   UNL     1      42.851 -11.563   8.315  1.00  0.00     0.169 HD
BRANCH  32  35
HETATM   35  C   UNL     1      45.118 -10.659   8.775  1.00  0.00     0.078 C 
HETATM   36  C   UNL     1      45.821  -9.294   8.740  1.00  0.00     0.014 C 
HETATM   37  C   UNL     1      44.839  -8.132   8.611  1.00  0.00     0.001 C 
HETATM   38  C   UNL     1      43.792  -8.162   9.719  1.00  0.00     0.000 C 
HETATM   39  C   UNL     1      43.049  -9.493   9.750  1.00  0.00     0.001 C 
HETATM   40  C   UNL     1      44.005 -10.683   9.835  1.00  0.00     0.014 C 
ENDBRANCH  32  35
ENDBRANCH   4  31
TORSDOF 6
ENDMDL
MODEL 5
REMARK VINA RESULT:      -8.8      3.495      9.821
REMARK  6 active torsions:
REMARK  status: ('A' for Active; 'I' for Inactive)
REMARK    1  A    between atoms: C_2  and  N_3 
REMARK       I    between atoms: N_3  and  C_4 
REMARK    2  A    between atoms: C_4  and  C_5 
REMARK    3  A    between atoms: C_13  and  N_14 
REMARK       I    between atoms: N_14  and  C_15 
REMARK    4  A    between atoms: C_15  and  C_16 
REMARK    5  A    between atoms: C_24  and  C_25 
REMARK       I    between atoms: C_25  and  N_26 
REMARK    6  A    between atoms: N_26  and  C_27 
ROOT
HETATM    1  C   UNL     1      39.036 -11.031   3.597  1.00  0.00     0.046 A 
HETATM    2  C   UNL     1      39.290 -12.001   2.623  1.00  0.00     0.037 A 
HETATM    3  C   UNL     1      39.863 -13.224   3.001  1.00  0.00     0.059 A 
HETATM    4  C   UNL     1      40.181 -13.490   4.332  1.00  0.00     0.037 A 
HETATM    5  C   UNL     1      39.910 -12.513   5.296  1.00  0.00     0.046 A 
HETATM    6  C   UNL     1      39.335 -11.279   4.943  1.00  0.00     0.036 A 
ENDROOT
BRANCH   6   7
HETATM    7  C   UNL     1      39.065 -10.307   6.055  1.00  0.00     0.256 C 
HETATM    8  N   UNL     1      39.846 -10.393   7.192  1.00  0.00    -0.317 N 
HETATM    9  H   UNL     1      40.559 -11.114   7.267  1.00  0.00     0.169 HD
HETATM   10  O   UNL     1      38.172  -9.478   5.895  1.00  0.00    -0.267 OA
BRANCH   8  11
HETATM   11  C   UNL     1      39.801  -9.580   8.309  1.00  0.00     0.119 A 
HETATM   12  C   UNL     1      38.940 -10.066   9.439  1.00  0.00     0.277 A 
HETATM   13  O   UNL     1      38.323 -11.124   9.342  1.00  0.00    -0.266 OA
HETATM   14  N   UNL     1      38.884  -9.284  10.558  1.00  0.00    -0.274 N 
HETATM   15  C   UNL     1      39.555  -8.107  10.726  1.00  0.00     0.327 A 
HETATM   16  H   UNL     1      38.312  -9.603  11.323  1.00  0.00     0.173 HD
HETATM   17  O   UNL     1      39.477  -7.450  11.757  1.00  0.00    -0.247 OA
HETATM   18  N   UNL     1      40.323  -7.711   9.667  1.00  0.00    -0.316 N 
HETATM   19  C   UNL     1      40.442  -8.419   8.499  1.00  0.00     0.128 A 
HETATM   20  H   UNL     1      40.824  -6.837   9.785  1.00  0.00     0.170 HD
ENDBRANCH   8  11
ENDBRANCH   6   7
BRANCH   2  21
HETATM   21  N   UNL     1      38.995 -11.839   1.251  1.00  0.00    -0.327 N 
HETATM   22  C   UNL     1      39.870 -11.522   0.224  1.00  0.00     0.226 C 
HETATM   23  O   UNL     1      41.071 -11.316   0.356  1.00  0.00    -0.273 OA
HETATM   24  H   UNL     1      38.018 -11.946   1.000  1.00  0.00     0.169 HD
BRANCH  22  25
HETATM   25  C   UNL     1      39.164 -11.408  -1.139  1.00  0.00     0.078 C 
HETATM   26  C   UNL     1      40.163 -11.331  -2.306  1.00  0.00     0.014 C 
HETATM   27  C   UNL     1      40.788 -12.680  -2.665  1.00  0.00     0.001 C 
HETATM   28  C   UNL     1      39.733 -13.758  -2.881  1.00  0.00     0.000 C 
HETATM   29  C   UNL     1      38.796 -13.870  -1.685  1.00  0.00     0.001 C 
HETATM   30  C   UNL     1      38.139 -12.530  -1.363  1.00  0.00     0.014 C 
ENDBRANCH  22  25
ENDBRANCH   2  21
BRANCH   4  31
HETATM   31  N   UNL     1      40.748 -14.701   4.784  1.00  0.00    -0.327 N 
HETATM   32  C   UNL     1      41.999 -15.216   4.478  1.00  0.00     0.226 C 
HETATM   33  O   UNL     1      42.854 -14.652   3.802  1.00  0.00    -0.273 OA
HETATM   34  H   UNL     1      40.181 -15.240   5.428  1.00  0.00     0.169 HD
BRANCH  32  35
HETATM   35  C   UNL     1      42.231 -16.602   5.101  1.00  0.00     0.078 C 
HETATM   36  C   UNL     1      43.702 -17.034   4.993  1.00  0.00     0.014 C 
HETATM   37  C   UNL     1      44.602 -16.300   5.984  1.00  0.00     0.001 C 
HETATM   38  C   UNL     1      44.104 -16.461   7.415  1.00  0.00     0.000 C 
HETATM   39  C   UNL     1      42.658 -16.000   7.560  1.00  0.00     0.001 C 
HETATM   40  C   UNL     1      41.734 -16.684   6.552  1.00  0.00     0.014 C 
ENDBRANCH  32  35
ENDBRANCH   4  31
TORSDOF 6
ENDMDL
MODEL 6
REMARK VINA RESULT:      -8.8      2.353      8.184
REMARK  6 active torsions:
REMARK  status: ('A' for Active; 'I' for Inactive)
REMARK    1  A    between atoms: C_2  and  N_3 
REMARK       I    between atoms: N_3  and  C_4 
REMARK    2  A    between atoms: C_4  and  C_5 
REMARK    3  A    between atoms: C_13  and  N_14 
REMARK       I    between atoms: N_14  and  C_15 
REMARK    4  A    between atoms: C_15  and  C_16 
REMARK    5  A    between atoms: C_24  and  C_25 
REMARK       I    between atoms: C_25  and  N_26 
REMARK    6  A    between atoms: N_26  and  C_27 
ROOT
HETATM    1  C   UNL     1      42.630 -14.188   4.473  1.00  0.00     0.046 A 
HETATM    2  C   UNL     1      42.732 -14.990   3.332  1.00  0.00     0.037 A 
HETATM    3  C   UNL     1      41.990 -14.660   2.189  1.00  0.00     0.059 A 
HETATM    4  C   UNL     1      41.157 -13.542   2.169  1.00  0.00     0.037 A 
HETATM    5  C   UNL     1      41.075 -12.743   3.314  1.00  0.00     0.046 A 
HETATM    6  C   UNL     1      41.809 -13.053   4.473  1.00  0.00     0.036 A 
ENDROOT
BRANCH   6   7
HETATM    7  C   UNL     1      41.667 -12.120   5.641  1.00  0.00     0.256 C 
HETATM    8  N   UNL     1      42.753 -11.333   5.975  1.00  0.00    -0.317 N 
HETATM    9  H   UNL     1      43.621 -11.415   5.451  1.00  0.00     0.169 HD
HETATM   10  O   UNL     1      40.591 -12.094   6.235  1.00  0.00    -0.267 OA
BRANCH   8  11
HETATM   11  C   UNL     1      42.829 -10.382   6.975  1.00  0.00     0.119 A 
HETATM   12  C   UNL     1      43.741 -10.709   8.122  1.00  0.00     0.277 A 
HETATM   13  O   UNL     1      44.362 -11.770   8.142  1.00  0.00    -0.266 OA
HETATM   14  N   UNL     1      43.840  -9.782   9.121  1.00  0.00    -0.274 N 
HETATM   15  C   UNL     1      43.184  -8.587   9.147  1.00  0.00     0.327 A 
HETATM   16  H   UNL     1      44.451  -9.991   9.894  1.00  0.00     0.173 HD
HETATM   17  O   UNL     1      43.318  -7.785  10.065  1.00  0.00    -0.247 OA
HETATM   18  N   UNL     1      42.367  -8.339   8.080  1.00  0.00    -0.316 N 
HETATM   19  C   UNL     1      42.193  -9.204   7.031  1.00  0.00     0.128 A 
HETATM   20  H   UNL     1      41.876  -7.451   8.093  1.00  0.00     0.170 HD
ENDBRANCH   8  11
ENDBRANCH   6   7
BRANCH   2  21
HETATM   21  N   UNL     1      43.555 -16.135   3.243  1.00  0.00    -0.327 N 
HETATM   22  C   UNL     1      43.199 -17.409   2.830  1.00  0.00     0.226 C 
HETATM   23  O   UNL     1      42.076 -17.750   2.476  1.00  0.00    -0.273 OA
HETATM   24  H   UNL     1      44.515 -16.005   3.543  1.00  0.00     0.169 HD
BRANCH  22  25
HETATM   25  C   UNL     1      44.374 -18.400   2.894  1.00  0.00     0.078 C 
HETATM   26  C   UNL     1      44.875 -18.616   4.331  1.00  0.00     0.014 C 
HETATM   27  C   UNL     1      43.972 -19.527   5.163  1.00  0.00     0.001 C 
HETATM   28  C   UNL     1      43.680 -20.843   4.454  1.00  0.00     0.000 C 
HETATM   29  C   UNL     1      43.115 -20.610   3.057  1.00  0.00     0.001 C 
HETATM   30  C   UNL     1      44.047 -19.740   2.217  1.00  0.00     0.014 C 
ENDBRANCH  22  25
ENDBRANCH   2  21
BRANCH   4  31
HETATM   31  N   UNL     1      40.393 -13.146   1.050  1.00  0.00    -0.327 N 
HETATM   32  C   UNL     1      39.806 -13.961   0.093  1.00  0.00     0.226 C 
HETATM   33  O   UNL     1      39.806 -15.188   0.107  1.00  0.00    -0.273 OA
HETATM   34  H   UNL     1      40.234 -12.149   0.955  1.00  0.00     0.169 HD
BRANCH  32  35
HETATM   35  C   UNL     1      39.116 -13.156  -1.019  1.00  0.00     0.078 C 
HETATM   36  C   UNL     1      39.648 -11.717  -1.094  1.00  0.00     0.014 C 
HETATM   37  C   UNL     1      41.036 -11.638  -1.726  1.00  0.00     0.001 C 
HETATM   38  C   UNL     1      41.058 -12.285  -3.106  1.00  0.00     0.000 C 
HETATM   39  C   UNL     1      40.572 -13.729  -3.054  1.00  0.00     0.001 C 
HETATM   40  C   UNL     1      39.202 -13.851  -2.388  1.00  0.00     0.014 C 
ENDBRANCH  32  35
ENDBRANCH   4  31
TORSDOF 6
ENDMDL
MODEL 7
REMARK VINA RESULT:      -8.5      3.240      8.260
REMARK  6 active torsions:
REMARK  status: ('A' for Active; 'I' for Inactive)
REMARK    1  A    between atoms: C_2  and  N_3 
REMARK       I    between atoms: N_3  and  C_4 
REMARK    2  A    between atoms: C_4  and  C_5 
REMARK    3  A    between atoms: C_13  and  N_14 
REMARK       I    between atoms: N_14  and  C_15 
REMARK    4  A    between atoms: C_15  and  C_16 
REMARK    5  A    between atoms: C_24  and  C_25 
REMARK       I    between atoms: C_25  and  N_26 
REMARK    6  A    between atoms: N_26  and  C_27 
ROOT
HETATM    1  C   UNL     1      41.943 -14.637   3.763  1.00  0.00     0.046 A 
HETATM    2  C   UNL     1      42.526 -15.378   2.730  1.00  0.00     0.037 A 
HETATM    3  C   UNL     1      42.210 -15.071   1.399  1.00  0.00     0.059 A 
HETATM    4  C   UNL     1      41.328 -14.037   1.088  1.00  0.00     0.037 A 
HETATM    5  C   UNL     1      40.763 -13.298   2.132  1.00  0.00     0.046 A 
HETATM    6  C   UNL     1      41.063 -13.586   3.475  1.00  0.00     0.036 A 
ENDROOT
BRANCH   6   7
HETATM    7  C   UNL     1      40.420 -12.721   4.521  1.00  0.00     0.256 C 
HETATM    8  N   UNL     1      40.763 -11.383   4.552  1.00  0.00    -0.317 N 
HETATM    9  H   UNL     1      41.450 -11.018   3.897  1.00  0.00     0.169 HD
HETATM   10  O   UNL     1      39.614 -13.242   5.288  1.00  0.00    -0.267 OA
BRANCH   8  11
HETATM   11  C   UNL     1      40.265 -10.404   5.393  1.00  0.00     0.119 A 
HETATM   12  C   UNL     1      39.036  -9.691   4.911  1.00  0.00     0.277 A 
HETATM   13  O   UNL     1      38.531  -9.980   3.828  1.00  0.00    -0.266 OA
HETATM   14  N   UNL     1      38.519  -8.724   5.726  1.00  0.00    -0.274 N 
HETATM   15  C   UNL     1      39.029  -8.368   6.940  1.00  0.00     0.327 A 
HETATM   16  H   UNL     1      37.692  -8.241   5.413  1.00  0.00     0.173 HD
HETATM   17  O   UNL     1      38.519  -7.500   7.638  1.00  0.00    -0.247 OA
HETATM   18  N   UNL     1      40.149  -9.048   7.331  1.00  0.00    -0.316 N 
HETATM   19  C   UNL     1      40.748 -10.030   6.585  1.00  0.00     0.128 A 
HETATM   20  H   UNL     1      40.534  -8.789   8.233  1.00  0.00     0.170 HD
ENDBRANCH   8  11
ENDBRANCH   6   7
BRANCH   2  21
HETATM   21  N   UNL     1      43.441 -16.435   2.935  1.00  0.00    -0.327 N 
HETATM   22  C   UNL     1      43.254 -17.784   2.678  1.00  0.00     0.226 C 
HETATM   23  O   UNL     1      42.229 -18.283   2.228  1.00  0.00    -0.273 OA
HETATM   24  H   UNL     1      44.330 -16.168   3.343  1.00  0.00     0.169 HD
BRANCH  22  25
HETATM   25  C   UNL     1      44.479 -18.633   3.058  1.00  0.00     0.078 C 
HETATM   26  C   UNL     1      44.804 -18.546   4.559  1.00  0.00     0.014 C 
HETATM   27  C   UNL     1      43.868 -19.380   5.435  1.00  0.00     0.001 C 
HETATM   28  C   UNL     1      43.767 -20.821   4.952  1.00  0.00     0.000 C 
HETATM   29  C   UNL     1      43.374 -20.890   3.481  1.00  0.00     0.001 C 
HETATM   30  C   UNL     1      44.342 -20.095   2.608  1.00  0.00     0.014 C 
ENDBRANCH  22  25
ENDBRANCH   2  21
BRANCH   4  31
HETATM   31  N   UNL     1      40.975 -13.667  -0.228  1.00  0.00    -0.327 N 
HETATM   32  C   UNL     1      40.878 -12.386  -0.751  1.00  0.00     0.226 C 
HETATM   33  O   UNL     1      41.155 -11.351  -0.152  1.00  0.00    -0.273 OA
HETATM   34  H   UNL     1      40.799 -14.433  -0.869  1.00  0.00     0.169 HD
BRANCH  32  35
HETATM   35  C   UNL     1      40.391 -12.382  -2.208  1.00  0.00     0.078 C 
HETATM   36  C   UNL     1      40.104 -13.804  -2.715  1.00  0.00     0.014 C 
HETATM   37  C   UNL     1      38.805 -14.375  -2.151  1.00  0.00     0.001 C 
HETATM   38  C   UNL     1      37.622 -13.458  -2.439  1.00  0.00     0.000 C 
HETATM   39  C   UNL     1      37.863 -12.050  -1.910  1.00  0.00     0.001 C 
HETATM   40  C   UNL     1      39.179 -11.462  -2.420  1.00  0.00     0.014 C 
ENDBRANCH  32  35
ENDBRANCH   4  31
TORSDOF 6
ENDMDL
MODEL 8
REMARK VINA RESULT:      -8.5      1.617      2.080
REMARK  6 active torsions:
REMARK  status: ('A' for Active; 'I' for Inactive)
REMARK    1  A    between atoms: C_2  and  N_3 
REMARK       I    between atoms: N_3  and  C_4 
REMARK    2  A    between atoms: C_4  and  C_5 
REMARK    3  A    between atoms: C_13  and  N_14 
REMARK       I    between atoms: N_14  and  C_15 
REMARK    4  A    between atoms: C_15  and  C_16 
REMARK    5  A    between atoms: C_24  and  C_25 
REMARK       I    between atoms: C_25  and  N_26 
REMARK    6  A    between atoms: N_26  and  C_27 
ROOT
HETATM    1  C   UNL     1      43.267 -12.693   5.693  1.00  0.00     0.046 A 
HETATM    2  C   UNL     1      43.287 -11.294   5.698  1.00  0.00     0.037 A 
HETATM    3  C   UNL     1      42.548 -10.592   4.735  1.00  0.00     0.059 A 
HETATM    4  C   UNL     1      41.791 -11.264   3.776  1.00  0.00     0.037 A 
HETATM    5  C   UNL     1      41.773 -12.662   3.793  1.00  0.00     0.046 A 
HETATM    6  C   UNL     1      42.505 -13.390   4.748  1.00  0.00     0.036 A 
ENDROOT
BRANCH   6   7
HETATM    7  C   UNL     1      42.401 -14.887   4.693  1.00  0.00     0.256 C 
HETATM    8  N   UNL     1      43.553 -15.622   4.899  1.00  0.00    -0.317 N 
HETATM    9  H   UNL     1      44.438 -15.148   5.056  1.00  0.00     0.169 HD
HETATM   10  O   UNL     1      41.298 -15.384   4.478  1.00  0.00    -0.267 OA
BRANCH   8  11
HETATM   11  C   UNL     1      43.679 -16.999   4.936  1.00  0.00     0.119 A 
HETATM   12  C   UNL     1      43.435 -17.643   6.270  1.00  0.00     0.277 A 
HETATM   13  O   UNL     1      43.146 -16.959   7.249  1.00  0.00    -0.266 OA
HETATM   14  N   UNL     1      43.546 -19.003   6.332  1.00  0.00    -0.274 N 
HETATM   15  C   UNL     1      43.852 -19.813   5.278  1.00  0.00     0.327 A 
HETATM   16  H   UNL     1      43.381 -19.446   7.222  1.00  0.00     0.173 HD
HETATM   17  O   UNL     1      43.929 -21.031   5.387  1.00  0.00    -0.247 OA
HETATM   18  N   UNL     1      44.066 -19.176   4.088  1.00  0.00    -0.316 N 
HETATM   19  C   UNL     1      43.984 -17.818   3.920  1.00  0.00     0.128 A 
HETATM   20  H   UNL     1      44.294 -19.772   3.299  1.00  0.00     0.170 HD
ENDBRANCH   8  11
ENDBRANCH   6   7
BRANCH   2  21
HETATM   21  N   UNL     1      44.009 -10.518   6.631  1.00  0.00    -0.327 N 
HETATM   22  C   UNL     1      43.503  -9.673   7.607  1.00  0.00     0.226 C 
HETATM   23  O   UNL     1      42.313  -9.457   7.810  1.00  0.00    -0.273 OA
HETATM   24  H   UNL     1      45.018 -10.571   6.554  1.00  0.00     0.169 HD
BRANCH  22  25
HETATM   25  C   UNL     1      44.611  -8.977   8.417  1.00  0.00     0.078 C 
HETATM   26  C   UNL     1      44.101  -7.717   9.136  1.00  0.00     0.014 C 
HETATM   27  C   UNL     1      43.279  -8.019  10.389  1.00  0.00     0.001 C 
HETATM   28  C   UNL     1      44.008  -8.964  11.336  1.00  0.00     0.000 C 
HETATM   29  C   UNL     1      44.443 -10.240  10.625  1.00  0.00     0.001 C 
HETATM   30  C   UNL     1      45.304  -9.931   9.402  1.00  0.00     0.014 C 
ENDBRANCH  22  25
ENDBRANCH   2  21
BRANCH   4  31
HETATM   31  N   UNL     1      41.016 -10.621   2.787  1.00  0.00    -0.327 N 
HETATM   32  C   UNL     1      39.654 -10.361   2.815  1.00  0.00     0.226 C 
HETATM   33  O   UNL     1      38.904 -10.598   3.756  1.00  0.00    -0.273 OA
HETATM   34  H   UNL     1      41.525 -10.288   1.976  1.00  0.00     0.169 HD
BRANCH  32  35
HETATM   35  C   UNL     1      39.155  -9.709   1.516  1.00  0.00     0.078 C 
HETATM   36  C   UNL     1      39.810 -10.337   0.276  1.00  0.00     0.014 C 
HETATM   37  C   UNL     1      39.242 -11.716  -0.051  1.00  0.00     0.001 C 
HETATM   38  C   UNL     1      37.728 -11.671  -0.216  1.00  0.00     0.000 C 
HETATM   39  C   UNL     1      37.048 -11.089   1.018  1.00  0.00     0.001 C 
HETATM   40  C   UNL     1      37.622  -9.725   1.401  1.00  0.00     0.014 C 
ENDBRANCH  32  35
ENDBRANCH   4  31
TORSDOF 6
ENDMDL
MODEL 9
REMARK VINA RESULT:      -8.4      2.771      7.187
REMARK  6 active torsions:
REMARK  status: ('A' for Active; 'I' for Inactive)
REMARK    1  A    between atoms: C_2  and  N_3 
REMARK       I    between atoms: N_3  and  C_4 
REMARK    2  A    between atoms: C_4  and  C_5 
REMARK    3  A    between atoms: C_13  and  N_14 
REMARK       I    between atoms: N_14  and  C_15 
REMARK    4  A    between atoms: C_15  and  C_16 
REMARK    5  A    between atoms: C_24  and  C_25 
REMARK       I    between atoms: C_25  and  N_26 
REMARK    6  A    between atoms: N_26  and  C_27 
ROOT
HETATM    1  C   UNL     1      41.983  -9.717   4.540  1.00  0.00     0.046 A 
HETATM    2  C   UNL     1      42.444 -10.285   5.731  1.00  0.00     0.037 A 
HETATM    3  C   UNL     1      42.353 -11.673   5.912  1.00  0.00     0.059 A 
HETATM    4  C   UNL     1      41.815 -12.495   4.923  1.00  0.00     0.037 A 
HETATM    5  C   UNL     1      41.370 -11.911   3.733  1.00  0.00     0.046 A 
HETATM    6  C   UNL     1      41.450 -10.523   3.526  1.00  0.00     0.036 A 
ENDROOT
BRANCH   6   7
HETATM    7  C   UNL     1      40.964  -9.999   2.205  1.00  0.00     0.256 C 
HETATM    8  N   UNL     1      41.817 -10.089   1.122  1.00  0.00    -0.317 N 
HETATM    9  H   UNL     1      42.749 -10.477   1.238  1.00  0.00     0.169 HD
HETATM   10  O   UNL     1      39.831  -9.526   2.151  1.00  0.00    -0.267 OA
BRANCH   8  11
HETATM   11  C   UNL     1      41.562  -9.713  -0.185  1.00  0.00     0.119 A 
HETATM   12  C   UNL     1      41.091 -10.805  -1.100  1.00  0.00     0.277 A 
HETATM   13  O   UNL     1      40.956 -11.954  -0.683  1.00  0.00    -0.266 OA
HETATM   14  N   UNL     1      40.826 -10.459  -2.395  1.00  0.00    -0.274 N 
HETATM   15  C   UNL     1      40.948  -9.202  -2.910  1.00  0.00     0.327 A 
HETATM   16  H   UNL     1      40.506 -11.184  -3.017  1.00  0.00     0.173 HD
HETATM   17  O   UNL     1      40.685  -8.944  -4.079  1.00  0.00    -0.247 OA
HETATM   18  N   UNL     1      41.381  -8.246  -2.034  1.00  0.00    -0.316 N 
HETATM   19  C   UNL     1      41.679  -8.490  -0.719  1.00  0.00     0.128 A 
HETATM   20  H   UNL     1      41.474  -7.308  -2.411  1.00  0.00     0.170 HD
ENDBRANCH   8  11
ENDBRANCH   6   7
BRANCH   2  21
HETATM   21  N   UNL     1      43.017  -9.546   6.789  1.00  0.00    -0.327 N 
HETATM   22  C   UNL     1      42.437  -9.204   8.000  1.00  0.00     0.226 C 
HETATM   23  O   UNL     1      41.296  -9.491   8.345  1.00  0.00    -0.273 OA
HETATM   24  H   UNL     1      43.959  -9.207   6.624  1.00  0.00     0.169 HD
BRANCH  22  25
HETATM   25  C   UNL     1      43.374  -8.367   8.889  1.00  0.00     0.078 C 
HETATM   26  C   UNL     1      43.118  -8.601  10.387  1.00  0.00     0.014 C 
HETATM   27  C   UNL     1      43.692  -9.919  10.906  1.00  0.00     0.001 C 
HETATM   28  C   UNL     1      45.162 -10.085  10.542  1.00  0.00     0.000 C 
HETATM   29  C   UNL     1      45.388  -9.921   9.044  1.00  0.00     0.001 C 
HETATM   30  C   UNL     1      44.855  -8.581   8.543  1.00  0.00     0.014 C 
ENDBRANCH  22  25
ENDBRANCH   2  21
BRANCH   4  31
HETATM   31  N   UNL     1      41.703 -13.897   5.035  1.00  0.00    -0.327 N 
HETATM   32  C   UNL     1      42.354 -14.862   4.279  1.00  0.00     0.226 C 
HETATM   33  O   UNL     1      43.198 -14.639   3.417  1.00  0.00    -0.273 OA
HETATM   34  H   UNL     1      41.096 -14.234   5.774  1.00  0.00     0.169 HD
BRANCH  32  35
HETATM   35  C   UNL     1      41.916 -16.289   4.645  1.00  0.00     0.078 C 
HETATM   36  C   UNL     1      43.036 -17.310   4.393  1.00  0.00     0.014 C 
HETATM   37  C   UNL     1      44.138 -17.242   5.448  1.00  0.00     0.001 C 
HETATM   38  C   UNL     1      43.574 -17.408   6.854  1.00  0.00     0.000 C 
HETATM   39  C   UNL     1      42.488 -16.380   7.146  1.00  0.00     0.001 C 
HETATM   40  C   UNL     1      41.388 -16.390   6.085  1.00  0.00     0.014 C 
ENDBRANCH  32  35
ENDBRANCH   4  31
TORSDOF 6
ENDMDL
MODEL 10
REMARK VINA RESULT:      -8.3      3.670      9.916
REMARK  6 active torsions:
REMARK  status: ('A' for Active; 'I' for Inactive)
REMARK    1  A    between atoms: C_2  and  N_3 
REMARK       I    between atoms: N_3  and  C_4 
REMARK    2  A    between atoms: C_4  and  C_5 
REMARK    3  A    between atoms: C_13  and  N_14 
REMARK       I    between atoms: N_14  and  C_15 
REMARK    4  A    between atoms: C_15  and  C_16 
REMARK    5  A    between atoms: C_24  and  C_25 
REMARK       I    between atoms: C_25  and  N_26 
REMARK    6  A    between atoms: N_26  and  C_27 
ROOT
HETATM    1  C   UNL     1      39.179 -12.264   3.764  1.00  0.00     0.046 A 
HETATM    2  C   UNL     1      39.752 -13.208   2.906  1.00  0.00     0.037 A 
HETATM    3  C   UNL     1      40.809 -14.006   3.368  1.00  0.00     0.059 A 
HETATM    4  C   UNL     1      41.295 -13.877   4.668  1.00  0.00     0.037 A 
HETATM    5  C   UNL     1      40.703 -12.937   5.517  1.00  0.00     0.046 A 
HETATM    6  C   UNL     1      39.642 -12.125   5.079  1.00  0.00     0.036 A 
ENDROOT
BRANCH   6   7
HETATM    7  C   UNL     1      39.062 -11.161   6.074  1.00  0.00     0.256 C 
HETATM    8  N   UNL     1      39.835 -10.818   7.167  1.00  0.00    -0.317 N 
HETATM    9  H   UNL     1      40.754 -11.233   7.291  1.00  0.00     0.169 HD
HETATM   10  O   UNL     1      37.935 -10.718   5.863  1.00  0.00    -0.267 OA
BRANCH   8  11
HETATM   11  C   UNL     1      39.521  -9.924   8.174  1.00  0.00     0.119 A 
HETATM   12  C   UNL     1      39.872  -8.489   7.908  1.00  0.00     0.277 A 
HETATM   13  O   UNL     1      40.409  -8.163   6.852  1.00  0.00    -0.266 OA
HETATM   14  N   UNL     1      39.566  -7.584   8.885  1.00  0.00    -0.274 N 
HETATM   15  C   UNL     1      38.961  -7.885  10.070  1.00  0.00     0.327 A 
HETATM   16  H   UNL     1      39.794  -6.617   8.715  1.00  0.00     0.173 HD
HETATM   17  O   UNL     1      38.699  -7.030  10.908  1.00  0.00    -0.247 OA
HETATM   18  N   UNL     1      38.664  -9.205  10.262  1.00  0.00    -0.316 N 
HETATM   19  C   UNL     1      38.934 -10.191   9.349  1.00  0.00     0.128 A 
HETATM   20  H   UNL     1      38.215  -9.436  11.141  1.00  0.00     0.170 HD
ENDBRANCH   8  11
ENDBRANCH   6   7
BRANCH   2  21
HETATM   21  N   UNL     1      39.328 -13.428   1.577  1.00  0.00    -0.327 N 
HETATM   22  C   UNL     1      40.050 -13.237   0.410  1.00  0.00     0.226 C 
HETATM   23  O   UNL     1      41.204 -12.825   0.351  1.00  0.00    -0.273 OA
HETATM   24  H   UNL     1      38.369 -13.740   1.472  1.00  0.00     0.169 HD
BRANCH  22  25
HETATM   25  C   UNL     1      39.233 -13.564  -0.851  1.00  0.00     0.078 C 
HETATM   26  C   UNL     1      38.187 -12.480  -1.164  1.00  0.00     0.014 C 
HETATM   27  C   UNL     1      38.783 -11.220  -1.793  1.00  0.00     0.001 C 
HETATM   28  C   UNL     1      39.654 -11.543  -3.001  1.00  0.00     0.000 C 
HETATM   29  C   UNL     1      40.731 -12.565  -2.655  1.00  0.00     0.001 C 
HETATM   30  C   UNL     1      40.123 -13.838  -2.072  1.00  0.00     0.014 C 
ENDBRANCH  22  25
ENDBRANCH   2  21
BRANCH   4  31
HETATM   31  N   UNL     1      42.347 -14.654   5.200  1.00  0.00    -0.327 N 
HETATM   32  C   UNL     1      42.288 -15.546   6.261  1.00  0.00     0.226 C 
HETATM   33  O   UNL     1      41.271 -15.854   6.875  1.00  0.00    -0.273 OA
HETATM   34  H   UNL     1      43.241 -14.566   4.731  1.00  0.00     0.169 HD
BRANCH  32  35
HETATM   35  C   UNL     1      43.661 -16.148   6.598  1.00  0.00     0.078 C 
HETATM   36  C   UNL     1      43.532 -17.407   7.469  1.00  0.00     0.014 C 
HETATM   37  C   UNL     1      43.055 -18.621   6.674  1.00  0.00     0.001 C 
HETATM   38  C   UNL     1      43.957 -18.894   5.477  1.00  0.00     0.000 C 
HETATM   39  C   UNL     1      44.071 -17.672   4.573  1.00  0.00     0.001 C 
HETATM   40  C   UNL     1      44.505 -16.425   5.344  1.00  0.00     0.014 C 
ENDBRANCH  32  35
ENDBRANCH   4  31
TORSDOF 6
ENDMDL
