MODEL 1
REMARK VINA RESULT:      -9.2      0.000      0.000
REMARK  3 active torsions:
REMARK  status: ('A' for Active; 'I' for Inactive)
REMARK    1  A    between atoms: C_4  and  C_5 
REMARK    2  A    between atoms: C_9  and  C_10 
REMARK       I    between atoms: C_10  and  N_11 
REMARK    3  A    between atoms: N_11  and  N_12 
ROOT
HETATM    1  C   UNL     1      42.622 -13.056   2.452  1.00  0.00     0.289 C 
HETATM    2  N   UNL     1      41.689 -13.059   1.426  1.00  0.00    -0.241 N 
HETATM    3  O   UNL     1      43.146 -12.053   2.920  1.00  0.00    -0.264 OA
HETATM    4  H   UNL     1      41.411 -13.938   1.016  1.00  0.00     0.192 HD
ENDROOT
BRANCH   1   5
HETATM    5  C   UNL     1      42.900 -14.369   2.984  1.00  0.00     0.121 A 
HETATM    6  N   UNL     1      42.908 -14.609   4.330  1.00  0.00    -0.272 N 
HETATM    7  N   UNL     1      43.097 -15.897   4.657  1.00  0.00    -0.174 NA
HETATM    8  H   UNL     1      42.754 -13.928   5.070  1.00  0.00     0.189 HD
HETATM    9  C   UNL     1      43.269 -16.524   3.483  1.00  0.00     0.089 A 
HETATM   10  C   UNL     1      43.170 -15.596   2.410  1.00  0.00     0.071 A 
BRANCH   9  11
HETATM   11  C   UNL     1      43.484 -17.969   3.394  1.00  0.00    -0.006 A 
HETATM   12  C   UNL     1      44.046 -18.671   4.470  1.00  0.00     0.014 A 
HETATM   13  C   UNL     1      44.213 -20.056   4.409  1.00  0.00     0.001 A 
HETATM   14  C   UNL     1      43.828 -20.755   3.268  1.00  0.00     0.000 A 
HETATM   15  C   UNL     1      43.280 -20.070   2.184  1.00  0.00     0.001 A 
HETATM   16  C   UNL     1      43.109 -18.685   2.247  1.00  0.00     0.014 A 
ENDBRANCH   9  11
ENDBRANCH   1   5
BRANCH   2  17
HETATM   17  N   UNL     1      41.349 -11.917   0.771  1.00  0.00    -0.165 NA
HETATM   18  C   UNL     1      40.696 -12.020  -0.345  1.00  0.00     0.157 A 
HETATM   19  C   UNL     1      40.459 -10.797  -1.256  1.00  0.00     0.277 A 
HETATM   20  C   UNL     1      40.069 -13.157  -1.039  1.00  0.00     0.027 A 
HETATM   21  O   UNL     1      40.776  -9.652  -1.030  1.00  0.00    -0.266 OA
HETATM   22  N   UNL     1      39.841 -11.296  -2.381  1.00  0.00    -0.321 N 
HETATM   23  C   UNL     1      39.604 -12.659  -2.258  1.00  0.00     0.048 A 
HETATM   24  H   UNL     1      39.564 -10.708  -3.153  1.00  0.00     0.169 HD
HETATM   25  C   UNL     1      38.957 -13.460  -3.178  1.00  0.00     0.030 A 
HETATM   26  C   UNL     1      38.761 -14.802  -2.840  1.00  0.00     0.002 A 
HETATM   27  C   UNL     1      39.189 -15.302  -1.597  1.00  0.00     0.001 A 
HETATM   28  C   UNL     1      39.840 -14.473  -0.677  1.00  0.00     0.016 A 
ENDBRANCH   2  17
TORSDOF 3
ENDMDL
MODEL 2
REMARK VINA RESULT:      -9.1      5.023      7.512
REMARK  3 active torsions:
REMARK  status: ('A' for Active; 'I' for Inactive)
REMARK    1  A    between atoms: C_4  and  C_5 
REMARK    2  A    between atoms: C_9  and  C_10 
REMARK       I    between atoms: C_10  and  N_11 
REMARK    3  A    between atoms: N_11  and  N_12 
ROOT
HETATM    1  C   UNL     1      40.268 -12.661   6.124  1.00  0.00     0.289 C 
HETATM    2  N   UNL     1      41.302 -11.771   6.366  1.00  0.00    -0.241 N 
HETATM    3  O   UNL     1      39.076 -12.379   6.157  1.00  0.00    -0.264 OA
HETATM    4  H   UNL     1      42.245 -12.121   6.446  1.00  0.00     0.192 HD
ENDROOT
BRANCH   1   5
HETATM    5  C   UNL     1      40.718 -13.985   5.762  1.00  0.00     0.121 A 
HETATM    6  N   UNL     1      39.992 -15.099   6.078  1.00  0.00    -0.272 N 
HETATM    7  N   UNL     1      40.503 -16.242   5.594  1.00  0.00    -0.174 NA
HETATM    8  H   UNL     1      39.118 -15.128   6.597  1.00  0.00     0.189 HD
HETATM    9  C   UNL     1      41.636 -15.874   4.977  1.00  0.00     0.089 A 
HETATM   10  C   UNL     1      41.815 -14.466   5.074  1.00  0.00     0.071 A 
BRANCH   9  11
HETATM   11  C   UNL     1      42.497 -16.835   4.285  1.00  0.00    -0.006 A 
HETATM   12  C   UNL     1      43.535 -17.481   4.972  1.00  0.00     0.014 A 
HETATM   13  C   UNL     1      44.332 -18.431   4.330  1.00  0.00     0.001 A 
HETATM   14  C   UNL     1      44.106 -18.741   2.991  1.00  0.00     0.000 A 
HETATM   15  C   UNL     1      43.087 -18.098   2.291  1.00  0.00     0.001 A 
HETATM   16  C   UNL     1      42.286 -17.151   2.934  1.00  0.00     0.014 A 
ENDBRANCH   9  11
ENDBRANCH   1   5
BRANCH   2  17
HETATM   17  N   UNL     1      41.062 -10.495   6.773  1.00  0.00    -0.165 NA
HETATM   18  C   UNL     1      42.043  -9.818   7.282  1.00  0.00     0.157 A 
HETATM   19  C   UNL     1      41.811  -8.451   7.962  1.00  0.00     0.277 A 
HETATM   20  C   UNL     1      43.488 -10.076   7.397  1.00  0.00     0.027 A 
HETATM   21  O   UNL     1      40.765  -7.850   8.043  1.00  0.00    -0.266 OA
HETATM   22  N   UNL     1      43.038  -8.087   8.472  1.00  0.00    -0.321 N 
HETATM   23  C   UNL     1      44.014  -9.017   8.141  1.00  0.00     0.048 A 
HETATM   24  H   UNL     1      43.181  -7.222   8.972  1.00  0.00     0.169 HD
HETATM   25  C   UNL     1      45.357  -8.935   8.449  1.00  0.00     0.030 A 
HETATM   26  C   UNL     1      46.193  -9.947   7.970  1.00  0.00     0.002 A 
HETATM   27  C   UNL     1      45.678 -10.995   7.185  1.00  0.00     0.001 A 
HETATM   28  C   UNL     1      44.314 -11.059   6.881  1.00  0.00     0.016 A 
ENDBRANCH   2  17
TORSDOF 3
ENDMDL
MODEL 3
REMARK VINA RESULT:      -9.0      2.240      8.045
REMARK  3 active torsions:
REMARK  status: ('A' for Active; 'I' for Inactive)
REMARK    1  A    between atoms: C_4  and  C_5 
REMARK    2  A    between atoms: C_9  and  C_10 
REMARK       I    between atoms: C_10  and  N_11 
REMARK    3  A    between atoms: N_11  and  N_12 
ROOT
HETATM    1  C   UNL     1      40.976 -13.657   4.066  1.00  0.00     0.289 C 
HETATM    2  N   UNL     1      42.167 -14.305   4.356  1.00  0.00    -0.241 N 
HETATM    3  O   UNL     1      40.196 -13.216   4.901  1.00  0.00    -0.264 OA
HETATM    4  H   UNL     1      42.680 -14.750   3.610  1.00  0.00     0.192 HD
ENDROOT
BRANCH   1   5
HETATM    5  C   UNL     1      40.741 -13.486   2.651  1.00  0.00     0.121 A 
HETATM    6  N   UNL     1      41.707 -12.992   1.819  1.00  0.00    -0.272 N 
HETATM    7  N   UNL     1      41.359 -12.977   0.523  1.00  0.00    -0.174 NA
HETATM    8  H   UNL     1      42.638 -12.682   2.086  1.00  0.00     0.189 HD
HETATM    9  C   UNL     1      40.097 -13.432   0.504  1.00  0.00     0.089 A 
HETATM   10  C   UNL     1      39.666 -13.746   1.823  1.00  0.00     0.071 A 
BRANCH   9  11
HETATM   11  C   UNL     1      39.343 -13.596  -0.741  1.00  0.00    -0.006 A 
HETATM   12  C   UNL     1      39.519 -14.741  -1.530  1.00  0.00     0.014 A 
HETATM   13  C   UNL     1      38.772 -14.926  -2.696  1.00  0.00     0.001 A 
HETATM   14  C   UNL     1      37.846 -13.962  -3.090  1.00  0.00     0.000 A 
HETATM   15  C   UNL     1      37.670 -12.812  -2.323  1.00  0.00     0.001 A 
HETATM   16  C   UNL     1      38.414 -12.629  -1.154  1.00  0.00     0.014 A 
ENDBRANCH   9  11
ENDBRANCH   1   5
BRANCH   2  17
HETATM   17  N   UNL     1      42.523 -14.600   5.635  1.00  0.00    -0.165 NA
HETATM   18  C   UNL     1      42.935 -15.801   5.896  1.00  0.00     0.157 A 
HETATM   19  C   UNL     1      43.152 -16.281   7.347  1.00  0.00     0.277 A 
HETATM   20  C   UNL     1      43.267 -16.956   5.045  1.00  0.00     0.027 A 
HETATM   21  O   UNL     1      43.034 -15.621   8.355  1.00  0.00    -0.266 OA
HETATM   22  N   UNL     1      43.477 -17.615   7.244  1.00  0.00    -0.321 N 
HETATM   23  C   UNL     1      43.554 -18.010   5.916  1.00  0.00     0.048 A 
HETATM   24  H   UNL     1      43.677 -18.188   8.051  1.00  0.00     0.169 HD
HETATM   25  C   UNL     1      43.906 -19.264   5.456  1.00  0.00     0.030 A 
HETATM   26  C   UNL     1      43.987 -19.445   4.073  1.00  0.00     0.002 A 
HETATM   27  C   UNL     1      43.739 -18.378   3.190  1.00  0.00     0.001 A 
HETATM   28  C   UNL     1      43.387 -17.114   3.675  1.00  0.00     0.016 A 
ENDBRANCH   2  17
TORSDOF 3
ENDMDL
MODEL 4
REMARK VINA RESULT:      -8.6      5.505      8.604
REMARK  3 active torsions:
REMARK  status: ('A' for Active; 'I' for Inactive)
REMARK    1  A    between atoms: C_4  and  C_5 
REMARK    2  A    between atoms: C_9  and  C_10 
REMARK       I    between atoms: C_10  and  N_11 
REMARK    3  A    between atoms: N_11  and  N_12 
ROOT
HETATM    1  C   UNL     1      43.901 -11.801   5.158  1.00  0.00     0.289 C 
HETATM    2  N   UNL     1      42.875 -12.722   5.015  1.00  0.00    -0.241 N 
HETATM    3  O   UNL     1      44.540 -11.312   4.234  1.00  0.00    -0.264 OA
HETATM    4  H   UNL     1      42.495 -13.168   5.836  1.00  0.00     0.192 HD
ENDROOT
BRANCH   1   5
HETATM    5  C   UNL     1      44.135 -11.404   6.527  1.00  0.00     0.121 A 
HETATM    6  N   UNL     1      45.372 -11.509   7.101  1.00  0.00    -0.272 N 
HETATM    7  N   UNL     1      45.440 -11.018   8.348  1.00  0.00    -0.174 NA
HETATM    8  H   UNL     1      46.213 -11.880   6.668  1.00  0.00     0.189 HD
HETATM    9  C   UNL     1      44.190 -10.618   8.626  1.00  0.00     0.089 A 
HETATM   10  C   UNL     1      43.337 -10.859   7.514  1.00  0.00     0.071 A 
BRANCH   9  11
HETATM   11  C   UNL     1      43.835  -9.991   9.901  1.00  0.00    -0.006 A 
HETATM   12  C   UNL     1      43.703  -8.598   9.993  1.00  0.00     0.014 A 
HETATM   13  C   UNL     1      43.321  -7.995  11.194  1.00  0.00     0.001 A 
HETATM   14  C   UNL     1      43.075  -8.779  12.319  1.00  0.00     0.000 A 
HETATM   15  C   UNL     1      43.215 -10.164  12.247  1.00  0.00     0.001 A 
HETATM   16  C   UNL     1      43.593 -10.767  11.044  1.00  0.00     0.014 A 
ENDBRANCH   9  11
ENDBRANCH   1   5
BRANCH   2  17
HETATM   17  N   UNL     1      42.554 -13.247   3.802  1.00  0.00    -0.165 NA
HETATM   18  C   UNL     1      42.780 -14.507   3.599  1.00  0.00     0.157 A 
HETATM   19  C   UNL     1      42.649 -15.133   2.195  1.00  0.00     0.277 A 
HETATM   20  C   UNL     1      43.196 -15.608   4.485  1.00  0.00     0.027 A 
HETATM   21  O   UNL     1      42.281 -14.579   1.184  1.00  0.00    -0.266 OA
HETATM   22  N   UNL     1      43.064 -16.439   2.339  1.00  0.00    -0.321 N 
HETATM   23  C   UNL     1      43.373 -16.722   3.662  1.00  0.00     0.048 A 
HETATM   24  H   UNL     1      43.079 -17.091   1.569  1.00  0.00     0.169 HD
HETATM   25  C   UNL     1      43.771 -17.946   4.163  1.00  0.00     0.030 A 
HETATM   26  C   UNL     1      43.975 -18.044   5.542  1.00  0.00     0.002 A 
HETATM   27  C   UNL     1      43.759 -16.937   6.383  1.00  0.00     0.001 A 
HETATM   28  C   UNL     1      43.353 -15.705   5.857  1.00  0.00     0.016 A 
ENDBRANCH   2  17
TORSDOF 3
ENDMDL
MODEL 5
REMARK VINA RESULT:      -8.6      3.530      6.189
REMARK  3 active torsions:
REMARK  status: ('A' for Active; 'I' for Inactive)
REMARK    1  A    between atoms: C_4  and  C_5 
REMARK    2  A    between atoms: C_9  and  C_10 
REMARK       I    between atoms: C_10  and  N_11 
REMARK    3  A    between atoms: N_11  and  N_12 
ROOT
HETATM    1  C   UNL     1      41.946 -13.049   2.507  1.00  0.00     0.289 C 
HETATM    2  N   UNL     1      41.966 -12.566   3.806  1.00  0.00    -0.241 N 
HETATM    3  O   UNL     1      41.615 -12.400   1.521  1.00  0.00    -0.264 OA
HETATM    4  H   UNL     1      42.125 -13.208   4.568  1.00  0.00     0.192 HD
ENDROOT
BRANCH   1   5
HETATM    5  C   UNL     1      42.414 -14.410   2.389  1.00  0.00     0.121 A 
HETATM    6  N   UNL     1      43.026 -14.861   1.252  1.00  0.00    -0.272 N 
HETATM    7  N   UNL     1      43.479 -16.122   1.336  1.00  0.00    -0.174 NA
HETATM    8  H   UNL     1      43.189 -14.332   0.399  1.00  0.00     0.189 HD
HETATM    9  C   UNL     1      43.109 -16.536   2.558  1.00  0.00     0.089 A 
HETATM   10  C   UNL     1      42.423 -15.495   3.244  1.00  0.00     0.071 A 
BRANCH   9  11
HETATM   11  C   UNL     1      43.435 -17.870   3.063  1.00  0.00    -0.006 A 
HETATM   12  C   UNL     1      43.777 -18.054   4.411  1.00  0.00     0.014 A 
HETATM   13  C   UNL     1      44.048 -19.330   4.911  1.00  0.00     0.001 A 
HETATM   14  C   UNL     1      43.986 -20.436   4.067  1.00  0.00     0.000 A 
HETATM   15  C   UNL     1      43.661 -20.268   2.722  1.00  0.00     0.001 A 
HETATM   16  C   UNL     1      43.387 -18.992   2.223  1.00  0.00     0.014 A 
ENDBRANCH   9  11
ENDBRANCH   1   5
BRANCH   2  17
HETATM   17  N   UNL     1      41.507 -11.322   4.109  1.00  0.00    -0.165 NA
HETATM   18  C   UNL     1      42.050 -10.693   5.104  1.00  0.00     0.157 A 
HETATM   19  C   UNL     1      41.452  -9.378   5.649  1.00  0.00     0.277 A 
HETATM   20  C   UNL     1      43.225 -10.971   5.947  1.00  0.00     0.027 A 
HETATM   21  O   UNL     1      40.501  -8.775   5.206  1.00  0.00    -0.266 OA
HETATM   22  N   UNL     1      42.213  -9.063   6.753  1.00  0.00    -0.321 N 
HETATM   23  C   UNL     1      43.245  -9.975   6.926  1.00  0.00     0.048 A 
HETATM   24  H   UNL     1      42.044  -8.239   7.310  1.00  0.00     0.169 HD
HETATM   25  C   UNL     1      44.221  -9.927   7.901  1.00  0.00     0.030 A 
HETATM   26  C   UNL     1      45.216 -10.908   7.868  1.00  0.00     0.002 A 
HETATM   27  C   UNL     1      45.226 -11.891   6.861  1.00  0.00     0.001 A 
HETATM   28  C   UNL     1      44.230 -11.921   5.879  1.00  0.00     0.016 A 
ENDBRANCH   2  17
TORSDOF 3
ENDMDL
MODEL 6
REMARK VINA RESULT:      -8.3      2.330      2.672
REMARK  3 active torsions:
REMARK  status: ('A' for Active; 'I' for Inactive)
REMARK    1  A    between atoms: C_4  and  C_5 
REMARK    2  A    between atoms: C_9  and  C_10 
REMARK       I    between atoms: C_10  and  N_11 
REMARK    3  A    between atoms: N_11  and  N_12 
ROOT
HETATM    1  C   UNL     1      39.464 -12.721   3.507  1.00  0.00     0.289 C 
HETATM    2  N   UNL     1      38.753 -12.877   2.328  1.00  0.00    -0.241 N 
HETATM    3  O   UNL     1      39.413 -11.734   4.232  1.00  0.00    -0.264 OA
HETATM    4  H   UNL     1      38.957 -13.664   1.731  1.00  0.00     0.192 HD
ENDROOT
BRANCH   1   5
HETATM    5  C   UNL     1      40.259 -13.873   3.861  1.00  0.00     0.121 A 
HETATM    6  N   UNL     1      40.228 -14.406   5.119  1.00  0.00    -0.272 N 
HETATM    7  N   UNL     1      40.957 -15.525   5.259  1.00  0.00    -0.174 NA
HETATM    8  H   UNL     1      39.695 -14.059   5.913  1.00  0.00     0.189 HD
HETATM    9  C   UNL     1      41.530 -15.710   4.060  1.00  0.00     0.089 A 
HETATM   10  C   UNL     1      41.130 -14.684   3.159  1.00  0.00     0.071 A 
BRANCH   9  11
HETATM   11  C   UNL     1      42.400 -16.853   3.778  1.00  0.00    -0.006 A 
HETATM   12  C   UNL     1      42.324 -17.514   2.544  1.00  0.00     0.014 A 
HETATM   13  C   UNL     1      43.181 -18.577   2.250  1.00  0.00     0.001 A 
HETATM   14  C   UNL     1      44.119 -18.996   3.190  1.00  0.00     0.000 A 
HETATM   15  C   UNL     1      44.198 -18.358   4.427  1.00  0.00     0.001 A 
HETATM   16  C   UNL     1      43.344 -17.291   4.719  1.00  0.00     0.014 A 
ENDBRANCH   9  11
ENDBRANCH   1   5
BRANCH   2  17
HETATM   17  N   UNL     1      37.994 -11.871   1.816  1.00  0.00    -0.165 NA
HETATM   18  C   UNL     1      38.118 -11.589   0.556  1.00  0.00     0.157 A 
HETATM   19  C   UNL     1      37.462 -10.333  -0.056  1.00  0.00     0.277 A 
HETATM   20  C   UNL     1      38.830 -12.243  -0.554  1.00  0.00     0.027 A 
HETATM   21  O   UNL     1      36.744  -9.540   0.509  1.00  0.00    -0.266 OA
HETATM   22  N   UNL     1      37.892 -10.300  -1.364  1.00  0.00    -0.321 N 
HETATM   23  C   UNL     1      38.676 -11.406  -1.661  1.00  0.00     0.048 A 
HETATM   24  H   UNL     1      37.611  -9.576  -2.009  1.00  0.00     0.169 HD
HETATM   25  C   UNL     1      39.225 -11.710  -2.891  1.00  0.00     0.030 A 
HETATM   26  C   UNL     1      39.935 -12.909  -3.003  1.00  0.00     0.002 A 
HETATM   27  C   UNL     1      40.060 -13.778  -1.903  1.00  0.00     0.001 A 
HETATM   28  C   UNL     1      39.493 -13.453  -0.665  1.00  0.00     0.016 A 
ENDBRANCH   2  17
TORSDOF 3
ENDMDL
MODEL 7
REMARK VINA RESULT:      -8.1      5.725      8.616
REMARK  3 active torsions:
REMARK  status: ('A' for Active; 'I' for Inactive)
REMARK    1  A    between atoms: C_4  and  C_5 
REMARK    2  A    between atoms: C_9  and  C_10 
REMARK       I    between atoms: C_10  and  N_11 
REMARK    3  A    between atoms: N_11  and  N_12 
ROOT
HETATM    1  C   UNL     1      41.748 -10.310   5.479  1.00  0.00     0.289 C 
HETATM    2  N   UNL     1      41.344 -10.693   6.748  1.00  0.00    -0.241 N 
HETATM    3  O   UNL     1      41.753  -9.158   5.060  1.00  0.00    -0.264 OA
HETATM    4  H   UNL     1      41.249 -11.674   6.960  1.00  0.00     0.192 HD
ENDROOT
BRANCH   1   5
HETATM    5  C   UNL     1      42.233 -11.405   4.672  1.00  0.00     0.121 A 
HETATM    6  N   UNL     1      43.144 -11.209   3.671  1.00  0.00    -0.272 N 
HETATM    7  N   UNL     1      43.557 -12.339   3.076  1.00  0.00    -0.174 NA
HETATM    8  H   UNL     1      43.543 -10.320   3.378  1.00  0.00     0.189 HD
HETATM    9  C   UNL     1      42.855 -13.314   3.672  1.00  0.00     0.089 A 
HETATM   10  C   UNL     1      42.000 -12.767   4.669  1.00  0.00     0.071 A 
BRANCH   9  11
HETATM   11  C   UNL     1      43.026 -14.726   3.325  1.00  0.00    -0.006 A 
HETATM   12  C   UNL     1      43.024 -15.708   4.326  1.00  0.00     0.014 A 
HETATM   13  C   UNL     1      43.143 -17.061   3.999  1.00  0.00     0.001 A 
HETATM   14  C   UNL     1      43.274 -17.446   2.666  1.00  0.00     0.000 A 
HETATM   15  C   UNL     1      43.292 -16.481   1.661  1.00  0.00     0.001 A 
HETATM   16  C   UNL     1      43.168 -15.128   1.988  1.00  0.00     0.014 A 
ENDBRANCH   9  11
ENDBRANCH   1   5
BRANCH   2  17
HETATM   17  N   UNL     1      40.808  -9.800   7.623  1.00  0.00    -0.165 NA
HETATM   18  C   UNL     1      41.522  -9.434   8.642  1.00  0.00     0.157 A 
HETATM   19  C   UNL     1      40.918  -8.599   9.791  1.00  0.00     0.277 A 
HETATM   20  C   UNL     1      42.926  -9.666   9.019  1.00  0.00     0.027 A 
HETATM   21  O   UNL     1      39.794  -8.154   9.852  1.00  0.00    -0.266 OA
HETATM   22  N   UNL     1      41.919  -8.496  10.731  1.00  0.00    -0.321 N 
HETATM   23  C   UNL     1      43.086  -9.103  10.287  1.00  0.00     0.048 A 
HETATM   24  H   UNL     1      41.799  -7.993  11.597  1.00  0.00     0.169 HD
HETATM   25  C   UNL     1      44.292  -9.140  10.958  1.00  0.00     0.030 A 
HETATM   26  C   UNL     1      45.372  -9.748  10.312  1.00  0.00     0.002 A 
HETATM   27  C   UNL     1      45.230 -10.281   9.017  1.00  0.00     0.001 A 
HETATM   28  C   UNL     1      44.000 -10.231   8.352  1.00  0.00     0.016 A 
ENDBRANCH   2  17
TORSDOF 3
ENDMDL
MODEL 8
REMARK VINA RESULT:      -8.0      6.332      8.932
REMARK  3 active torsions:
REMARK  status: ('A' for Active; 'I' for Inactive)
REMARK    1  A    between atoms: C_4  and  C_5 
REMARK    2  A    between atoms: C_9  and  C_10 
REMARK       I    between atoms: C_10  and  N_11 
REMARK    3  A    between atoms: N_11  and  N_12 
ROOT
HETATM    1  C   UNL     1      40.002 -11.612   6.500  1.00  0.00     0.289 C 
HETATM    2  N   UNL     1      40.581 -10.588   7.233  1.00  0.00    -0.241 N 
HETATM    3  O   UNL     1      38.798 -11.751   6.317  1.00  0.00    -0.264 OA
HETATM    4  H   UNL     1      41.568 -10.628   7.440  1.00  0.00     0.192 HD
ENDROOT
BRANCH   1   5
HETATM    5  C   UNL     1      40.962 -12.508   5.899  1.00  0.00     0.121 A 
HETATM    6  N   UNL     1      42.201 -12.700   6.443  1.00  0.00    -0.272 N 
HETATM    7  N   UNL     1      42.939 -13.628   5.813  1.00  0.00    -0.174 NA
HETATM    8  H   UNL     1      42.579 -12.243   7.269  1.00  0.00     0.189 HD
HETATM    9  C   UNL     1      42.177 -14.028   4.784  1.00  0.00     0.089 A 
HETATM   10  C   UNL     1      40.934 -13.336   4.793  1.00  0.00     0.071 A 
BRANCH   9  11
HETATM   11  C   UNL     1      42.611 -15.066   3.848  1.00  0.00    -0.006 A 
HETATM   12  C   UNL     1      42.630 -16.412   4.241  1.00  0.00     0.014 A 
HETATM   13  C   UNL     1      43.000 -17.414   3.340  1.00  0.00     0.001 A 
HETATM   14  C   UNL     1      43.364 -17.079   2.037  1.00  0.00     0.000 A 
HETATM   15  C   UNL     1      43.363 -15.744   1.636  1.00  0.00     0.001 A 
HETATM   16  C   UNL     1      42.988 -14.743   2.536  1.00  0.00     0.014 A 
ENDBRANCH   9  11
ENDBRANCH   1   5
BRANCH   2  17
HETATM   17  N   UNL     1      39.826  -9.685   7.913  1.00  0.00    -0.165 NA
HETATM   18  C   UNL     1      40.319  -9.158   8.990  1.00  0.00     0.157 A 
HETATM   19  C   UNL     1      39.455  -8.295   9.934  1.00  0.00     0.277 A 
HETATM   20  C   UNL     1      41.655  -9.205   9.609  1.00  0.00     0.027 A 
HETATM   21  O   UNL     1      38.303  -7.969   9.767  1.00  0.00    -0.266 OA
HETATM   22  N   UNL     1      40.269  -8.005  11.007  1.00  0.00    -0.321 N 
HETATM   23  C   UNL     1      41.544  -8.520  10.822  1.00  0.00     0.048 A 
HETATM   24  H   UNL     1      39.958  -7.443  11.786  1.00  0.00     0.169 HD
HETATM   25  C   UNL     1      42.617  -8.370  11.678  1.00  0.00     0.030 A 
HETATM   26  C   UNL     1      43.842  -8.913  11.280  1.00  0.00     0.002 A 
HETATM   27  C   UNL     1      43.971  -9.568  10.041  1.00  0.00     0.001 A 
HETATM   28  C   UNL     1      42.873  -9.709   9.186  1.00  0.00     0.016 A 
ENDBRANCH   2  17
TORSDOF 3
ENDMDL
MODEL 9
REMARK VINA RESULT:      -8.0      3.217      4.719
REMARK  3 active torsions:
REMARK  status: ('A' for Active; 'I' for Inactive)
REMARK    1  A    between atoms: C_4  and  C_5 
REMARK    2  A    between atoms: C_9  and  C_10 
REMARK       I    between atoms: C_10  and  N_11 
REMARK    3  A    between atoms: N_11  and  N_12 
ROOT
HETATM    1  C   UNL     1      40.254 -14.437   0.832  1.00  0.00     0.289 C 
HETATM    2  N   UNL     1      40.158 -13.266   1.569  1.00  0.00    -0.241 N 
HETATM    3  O   UNL     1      39.584 -14.700  -0.159  1.00  0.00    -0.264 OA
HETATM    4  H   UNL     1      40.655 -13.193   2.443  1.00  0.00     0.192 HD
ENDROOT
BRANCH   1   5
HETATM    5  C   UNL     1      41.281 -15.335   1.306  1.00  0.00     0.121 A 
HETATM    6  N   UNL     1      42.593 -15.171   0.958  1.00  0.00    -0.272 N 
HETATM    7  N   UNL     1      43.430 -16.037   1.551  1.00  0.00    -0.174 NA
HETATM    8  H   UNL     1      42.973 -14.457   0.342  1.00  0.00     0.189 HD
HETATM    9  C   UNL     1      42.634 -16.835   2.280  1.00  0.00     0.089 A 
HETATM   10  C   UNL     1      41.276 -16.437   2.139  1.00  0.00     0.071 A 
BRANCH   9  11
HETATM   11  C   UNL     1      43.164 -17.917   3.112  1.00  0.00    -0.006 A 
HETATM   12  C   UNL     1      43.431 -19.175   2.554  1.00  0.00     0.014 A 
HETATM   13  C   UNL     1      43.977 -20.199   3.331  1.00  0.00     0.001 A 
HETATM   14  C   UNL     1      44.255 -19.978   4.678  1.00  0.00     0.000 A 
HETATM   15  C   UNL     1      43.983 -18.737   5.251  1.00  0.00     0.001 A 
HETATM   16  C   UNL     1      43.440 -17.711   4.472  1.00  0.00     0.014 A 
ENDBRANCH   9  11
ENDBRANCH   1   5
BRANCH   2  17
HETATM   17  N   UNL     1      39.209 -12.331   1.297  1.00  0.00    -0.165 NA
HETATM   18  C   UNL     1      38.969 -11.422   2.189  1.00  0.00     0.157 A 
HETATM   19  C   UNL     1      37.770 -10.459   2.058  1.00  0.00     0.277 A 
HETATM   20  C   UNL     1      39.632 -11.056   3.453  1.00  0.00     0.027 A 
HETATM   21  O   UNL     1      36.991 -10.394   1.135  1.00  0.00    -0.266 OA
HETATM   22  N   UNL     1      37.767  -9.721   3.220  1.00  0.00    -0.321 N 
HETATM   23  C   UNL     1      38.846 -10.054   4.027  1.00  0.00     0.048 A 
HETATM   24  H   UNL     1      37.082  -9.003   3.404  1.00  0.00     0.169 HD
HETATM   25  C   UNL     1      39.171  -9.472   5.236  1.00  0.00     0.030 A 
HETATM   26  C   UNL     1      40.339  -9.907   5.869  1.00  0.00     0.002 A 
HETATM   27  C   UNL     1      41.158 -10.886   5.277  1.00  0.00     0.001 A 
HETATM   28  C   UNL     1      40.813 -11.462   4.049  1.00  0.00     0.016 A 
ENDBRANCH   2  17
TORSDOF 3
ENDMDL
MODEL 10
REMARK VINA RESULT:      -7.9      2.531      3.856
REMARK  3 active torsions:
REMARK  status: ('A' for Active; 'I' for Inactive)
REMARK    1  A    between atoms: C_4  and  C_5 
REMARK    2  A    between atoms: C_9  and  C_10 
REMARK       I    between atoms: C_10  and  N_11 
REMARK    3  A    between atoms: N_11  and  N_12 
ROOT
HETATM    1  C   UNL     1      39.731 -14.048  -0.482  1.00  0.00     0.289 C 
HETATM    2  N   UNL     1      38.775 -13.090  -0.180  1.00  0.00    -0.241 N 
HETATM    3  O   UNL     1      40.153 -14.288  -1.608  1.00  0.00    -0.264 OA
HETATM    4  H   UNL     1      38.393 -13.053   0.753  1.00  0.00     0.192 HD
ENDROOT
BRANCH   1   5
HETATM    5  C   UNL     1      40.252 -14.731   0.678  1.00  0.00     0.121 A 
HETATM    6  N   UNL     1      39.498 -14.907   1.804  1.00  0.00    -0.272 N 
HETATM    7  N   UNL     1      40.098 -15.636   2.758  1.00  0.00    -0.174 NA
HETATM    8  H   UNL     1      38.548 -14.576   1.958  1.00  0.00     0.189 HD
HETATM    9  C   UNL     1      41.314 -15.910   2.262  1.00  0.00     0.089 A 
HETATM   10  C   UNL     1      41.456 -15.345   0.965  1.00  0.00     0.071 A 
BRANCH   9  11
HETATM   11  C   UNL     1      42.292 -16.719   2.992  1.00  0.00    -0.006 A 
HETATM   12  C   UNL     1      42.463 -16.549   4.373  1.00  0.00     0.014 A 
HETATM   13  C   UNL     1      43.362 -17.347   5.085  1.00  0.00     0.001 A 
HETATM   14  C   UNL     1      44.106 -18.320   4.421  1.00  0.00     0.000 A 
HETATM   15  C   UNL     1      43.957 -18.492   3.046  1.00  0.00     0.001 A 
HETATM   16  C   UNL     1      43.054 -17.697   2.335  1.00  0.00     0.014 A 
ENDBRANCH   9  11
ENDBRANCH   1   5
BRANCH   2  17
HETATM   17  N   UNL     1      38.137 -12.389  -1.156  1.00  0.00    -0.165 NA
HETATM   18  C   UNL     1      38.538 -11.182  -1.406  1.00  0.00     0.157 A 
HETATM   19  C   UNL     1      37.740 -10.245  -2.339  1.00  0.00     0.277 A 
HETATM   20  C   UNL     1      39.694 -10.393  -0.949  1.00  0.00     0.027 A 
HETATM   21  O   UNL     1      36.742 -10.521  -2.963  1.00  0.00    -0.266 OA
HETATM   22  N   UNL     1      38.393  -9.034  -2.282  1.00  0.00    -0.321 N 
HETATM   23  C   UNL     1      39.529  -9.115  -1.488  1.00  0.00     0.048 A 
HETATM   24  H   UNL     1      38.086  -8.228  -2.805  1.00  0.00     0.169 HD
HETATM   25  C   UNL     1      40.438  -8.101  -1.258  1.00  0.00     0.030 A 
HETATM   26  C   UNL     1      41.556  -8.400  -0.475  1.00  0.00     0.002 A 
HETATM   27  C   UNL     1      41.750  -9.697   0.037  1.00  0.00     0.001 A 
HETATM   28  C   UNL     1      40.820 -10.712  -0.210  1.00  0.00     0.016 A 
ENDBRANCH   2  17
TORSDOF 3
ENDMDL
