MODEL 1
REMARK VINA RESULT:      -7.4      0.000      0.000
REMARK  5 active torsions:
REMARK  status: ('A' for Active; 'I' for Inactive)
REMARK    1  A    between atoms: C_2  and  O_3 
REMARK    2  A    between atoms: O_3  and  C_4 
REMARK    3  A    between atoms: C_8  and  N_9 
REMARK       I    between atoms: N_9  and  C_10 
REMARK       I    between atoms: C_10  and  N_11 
REMARK    4  A    between atoms: N_11  and  C_12 
REMARK    5  A    between atoms: C_12  and  C_13 
ROOT
HETATM    1  N   UNL     1      41.744 -13.604   5.132  1.00  0.00    -0.309 N 
HETATM    2  C   UNL     1      40.795 -13.225   6.036  1.00  0.00     0.321 C 
HETATM    3  N   UNL     1      40.863 -11.913   6.424  1.00  0.00    -0.337 N 
HETATM    4  O   UNL     1      39.920 -13.919   6.537  1.00  0.00    -0.247 OA
HETATM    5  H   UNL     1      42.610 -13.082   5.245  1.00  0.00     0.170 HD
HETATM    6  H   UNL     1      40.147 -11.668   7.095  1.00  0.00     0.164 HD
ENDROOT
BRANCH   1   7
HETATM    7  C   UNL     1      41.862 -14.779   4.358  1.00  0.00     0.042 A 
HETATM    8  C   UNL     1      41.084 -15.151   3.250  1.00  0.00    -0.033 A 
HETATM    9  C   UNL     1      41.378 -16.371   2.597  1.00  0.00     0.045 A 
HETATM   10  C   UNL     1      39.960 -14.340   2.672  1.00  0.00     0.050 C 
HETATM   11  C   UNL     1      42.449 -17.182   2.978  1.00  0.00     0.069 A 
HETATM   12  C   UNL     1      43.229 -16.797   4.058  1.00  0.00     0.039 A 
HETATM   13  C   UNL     1      42.937 -15.608   4.733  1.00  0.00     0.033 A 
BRANCH  11  14
HETATM   14  O   UNL     1      42.627 -18.306   2.220  1.00  0.00    -0.351 OA
BRANCH  14  15
HETATM   15  C   UNL     1      43.708 -19.160   2.594  1.00  0.00     0.171 C 
HETATM   16  C   UNL     1      43.563 -20.464   1.828  1.00  0.00     0.034 C 
ENDBRANCH  14  15
ENDBRANCH  11  14
ENDBRANCH   1   7
BRANCH   3  17
HETATM   17  C   UNL     1      41.696 -10.860   5.871  1.00  0.00     0.183 C 
BRANCH  17  18
HETATM   18  C   UNL     1      43.072 -10.837   6.499  1.00  0.00     0.053 A 
HETATM   19  N   UNL     1      44.054 -11.533   5.860  1.00  0.00    -0.264 NA
HETATM   20  C   UNL     1      45.275 -11.571   6.439  1.00  0.00     0.118 A 
HETATM   21  C   UNL     1      45.580 -10.938   7.627  1.00  0.00     0.043 A 
HETATM   22  C   UNL     1      44.565 -10.228   8.254  1.00  0.00     0.037 A 
HETATM   23 CL   UNL     1      44.885  -9.415   9.735  1.00  0.00    -0.084 Cl
HETATM   24  C   UNL     1      43.292 -10.175   7.700  1.00  0.00     0.052 A 
ENDBRANCH  17  18
ENDBRANCH   3  17
TORSDOF 5
ENDMDL
MODEL 2
REMARK VINA RESULT:      -7.4      0.773      1.682
REMARK  5 active torsions:
REMARK  status: ('A' for Active; 'I' for Inactive)
REMARK    1  A    between atoms: C_2  and  O_3 
REMARK    2  A    between atoms: O_3  and  C_4 
REMARK    3  A    between atoms: C_8  and  N_9 
REMARK       I    between atoms: N_9  and  C_10 
REMARK       I    between atoms: C_10  and  N_11 
REMARK    4  A    between atoms: N_11  and  C_12 
REMARK    5  A    between atoms: C_12  and  C_13 
ROOT
HETATM    1  N   UNL     1      42.475 -13.684   5.217  1.00  0.00    -0.309 N 
HETATM    2  C   UNL     1      41.446 -13.358   6.052  1.00  0.00     0.321 C 
HETATM    3  N   UNL     1      41.391 -12.037   6.409  1.00  0.00    -0.337 N 
HETATM    4  O   UNL     1      40.596 -14.107   6.518  1.00  0.00    -0.247 OA
HETATM    5  H   UNL     1      43.290 -13.095   5.369  1.00  0.00     0.170 HD
HETATM    6  H   UNL     1      40.619 -11.833   7.030  1.00  0.00     0.164 HD
ENDROOT
BRANCH   1   7
HETATM    7  C   UNL     1      42.729 -14.863   4.483  1.00  0.00     0.042 A 
HETATM    8  C   UNL     1      43.422 -16.004   4.918  1.00  0.00    -0.033 A 
HETATM    9  C   UNL     1      43.554 -17.096   4.028  1.00  0.00     0.045 A 
HETATM   10  C   UNL     1      44.028 -16.180   6.281  1.00  0.00     0.050 C 
HETATM   11  C   UNL     1      42.966 -17.099   2.761  1.00  0.00     0.069 A 
HETATM   12  C   UNL     1      42.262 -15.978   2.346  1.00  0.00     0.039 A 
HETATM   13  C   UNL     1      42.145 -14.879   3.202  1.00  0.00     0.033 A 
BRANCH  11  14
HETATM   14  O   UNL     1      43.148 -18.244   2.037  1.00  0.00    -0.351 OA
BRANCH  14  15
HETATM   15  C   UNL     1      43.835 -19.309   2.694  1.00  0.00     0.171 C 
HETATM   16  C   UNL     1      43.667 -20.565   1.857  1.00  0.00     0.034 C 
ENDBRANCH  14  15
ENDBRANCH  11  14
ENDBRANCH   1   7
BRANCH   3  17
HETATM   17  C   UNL     1      42.176 -10.936   5.880  1.00  0.00     0.183 C 
BRANCH  17  18
HETATM   18  C   UNL     1      43.526 -10.827   6.553  1.00  0.00     0.053 A 
HETATM   19  N   UNL     1      44.592 -11.356   5.887  1.00  0.00    -0.264 NA
HETATM   20  C   UNL     1      45.796 -11.319   6.501  1.00  0.00     0.118 A 
HETATM   21  C   UNL     1      46.003 -10.768   7.750  1.00  0.00     0.043 A 
HETATM   22  C   UNL     1      44.904 -10.229   8.403  1.00  0.00     0.037 A 
HETATM   23 CL   UNL     1      45.100  -9.525   9.960  1.00  0.00    -0.084 Cl
HETATM   24  C   UNL     1      43.646 -10.258   7.814  1.00  0.00     0.052 A 
ENDBRANCH  17  18
ENDBRANCH   3  17
TORSDOF 5
ENDMDL
MODEL 3
REMARK VINA RESULT:      -7.3      4.730      6.823
REMARK  5 active torsions:
REMARK  status: ('A' for Active; 'I' for Inactive)
REMARK    1  A    between atoms: C_2  and  O_3 
REMARK    2  A    between atoms: O_3  and  C_4 
REMARK    3  A    between atoms: C_8  and  N_9 
REMARK       I    between atoms: N_9  and  C_10 
REMARK       I    between atoms: C_10  and  N_11 
REMARK    4  A    between atoms: N_11  and  C_12 
REMARK    5  A    between atoms: C_12  and  C_13 
ROOT
HETATM    1  N   UNL     1      41.374 -14.933   2.662  1.00  0.00    -0.309 N 
HETATM    2  C   UNL     1      40.031 -14.972   2.423  1.00  0.00     0.321 C 
HETATM    3  N   UNL     1      39.530 -13.873   1.777  1.00  0.00    -0.337 N 
HETATM    4  O   UNL     1      39.243 -15.856   2.730  1.00  0.00    -0.247 OA
HETATM    5  H   UNL     1      41.709 -13.982   2.800  1.00  0.00     0.170 HD
HETATM    6  H   UNL     1      38.533 -13.935   1.619  1.00  0.00     0.164 HD
ENDROOT
BRANCH   1   7
HETATM    7  C   UNL     1      42.262 -15.939   3.099  1.00  0.00     0.042 A 
HETATM    8  C   UNL     1      42.981 -15.976   4.305  1.00  0.00    -0.033 A 
HETATM    9  C   UNL     1      43.811 -17.092   4.563  1.00  0.00     0.045 A 
HETATM   10  C   UNL     1      42.926 -14.925   5.376  1.00  0.00     0.050 C 
HETATM   11  C   UNL     1      43.890 -18.180   3.691  1.00  0.00     0.069 A 
HETATM   12  C   UNL     1      43.159 -18.148   2.513  1.00  0.00     0.039 A 
HETATM   13  C   UNL     1      42.355 -17.042   2.227  1.00  0.00     0.033 A 
BRANCH  11  14
HETATM   14  O   UNL     1      44.704 -19.199   4.103  1.00  0.00    -0.351 OA
BRANCH  14  15
HETATM   15  C   UNL     1      44.123 -20.502   4.141  1.00  0.00     0.171 C 
HETATM   16  C   UNL     1      43.833 -20.845   5.592  1.00  0.00     0.034 C 
ENDBRANCH  14  15
ENDBRANCH  11  14
ENDBRANCH   1   7
BRANCH   3  17
HETATM   17  C   UNL     1      40.268 -12.776   1.178  1.00  0.00     0.183 C 
BRANCH  17  18
HETATM   18  C   UNL     1      40.323 -12.886  -0.330  1.00  0.00     0.053 A 
HETATM   19  N   UNL     1      41.134 -12.008  -0.984  1.00  0.00    -0.264 NA
HETATM   20  C   UNL     1      41.149 -12.054  -2.335  1.00  0.00     0.118 A 
HETATM   21  C   UNL     1      40.402 -12.944  -3.080  1.00  0.00     0.043 A 
HETATM   22  C   UNL     1      39.590 -13.833  -2.390  1.00  0.00     0.037 A 
HETATM   23 CL   UNL     1      38.637 -14.969  -3.263  1.00  0.00    -0.084 Cl
HETATM   24  C   UNL     1      39.534 -13.811  -1.002  1.00  0.00     0.052 A 
ENDBRANCH  17  18
ENDBRANCH   3  17
TORSDOF 5
ENDMDL
MODEL 4
REMARK VINA RESULT:      -7.2      4.625      7.164
REMARK  5 active torsions:
REMARK  status: ('A' for Active; 'I' for Inactive)
REMARK    1  A    between atoms: C_2  and  O_3 
REMARK    2  A    between atoms: O_3  and  C_4 
REMARK    3  A    between atoms: C_8  and  N_9 
REMARK       I    between atoms: N_9  and  C_10 
REMARK       I    between atoms: C_10  and  N_11 
REMARK    4  A    between atoms: N_11  and  C_12 
REMARK    5  A    between atoms: C_12  and  C_13 
ROOT
HETATM    1  N   UNL     1      41.940 -15.485   3.122  1.00  0.00    -0.309 N 
HETATM    2  C   UNL     1      41.608 -15.530   4.444  1.00  0.00     0.321 C 
HETATM    3  N   UNL     1      42.506 -16.189   5.241  1.00  0.00    -0.337 N 
HETATM    4  O   UNL     1      40.607 -15.069   4.979  1.00  0.00    -0.247 OA
HETATM    5  H   UNL     1      42.473 -16.303   2.834  1.00  0.00     0.170 HD
HETATM    6  H   UNL     1      42.225 -16.205   6.212  1.00  0.00     0.164 HD
ENDROOT
BRANCH   1   7
HETATM    7  C   UNL     1      41.393 -14.735   2.058  1.00  0.00     0.042 A 
HETATM    8  C   UNL     1      41.638 -13.387   1.752  1.00  0.00    -0.033 A 
HETATM    9  C   UNL     1      40.999 -12.823   0.622  1.00  0.00     0.045 A 
HETATM   10  C   UNL     1      42.555 -12.479   2.520  1.00  0.00     0.050 C 
HETATM   11  C   UNL     1      40.186 -13.576  -0.228  1.00  0.00     0.069 A 
HETATM   12  C   UNL     1      39.968 -14.914   0.067  1.00  0.00     0.039 A 
HETATM   13  C   UNL     1      40.568 -15.482   1.193  1.00  0.00     0.033 A 
BRANCH  11  14
HETATM   14  O   UNL     1      39.676 -12.897  -1.299  1.00  0.00    -0.351 OA
BRANCH  14  15
HETATM   15  C   UNL     1      39.928 -13.458  -2.587  1.00  0.00     0.171 C 
HETATM   16  C   UNL     1      38.612 -13.975  -3.141  1.00  0.00     0.034 C 
ENDBRANCH  14  15
ENDBRANCH  11  14
ENDBRANCH   1   7
BRANCH   3  17
HETATM   17  C   UNL     1      43.823 -16.683   4.882  1.00  0.00     0.183 C 
BRANCH  17  18
HETATM   18  C   UNL     1      43.809 -18.165   4.578  1.00  0.00     0.053 A 
HETATM   19  N   UNL     1      43.942 -19.013   5.636  1.00  0.00    -0.264 NA
HETATM   20  C   UNL     1      43.991 -20.339   5.375  1.00  0.00     0.118 A 
HETATM   21  C   UNL     1      43.902 -20.873   4.106  1.00  0.00     0.043 A 
HETATM   22  C   UNL     1      43.759 -19.989   3.046  1.00  0.00     0.037 A 
HETATM   23 CL   UNL     1      43.640 -20.596   1.441  1.00  0.00    -0.084 Cl
HETATM   24  C   UNL     1      43.718 -18.618   3.268  1.00  0.00     0.052 A 
ENDBRANCH  17  18
ENDBRANCH   3  17
TORSDOF 5
ENDMDL
MODEL 5
REMARK VINA RESULT:      -7.0      3.684      7.881
REMARK  5 active torsions:
REMARK  status: ('A' for Active; 'I' for Inactive)
REMARK    1  A    between atoms: C_2  and  O_3 
REMARK    2  A    between atoms: O_3  and  C_4 
REMARK    3  A    between atoms: C_8  and  N_9 
REMARK       I    between atoms: N_9  and  C_10 
REMARK       I    between atoms: C_10  and  N_11 
REMARK    4  A    between atoms: N_11  and  C_12 
REMARK    5  A    between atoms: C_12  and  C_13 
ROOT
HETATM    1  N   UNL     1      43.308 -12.705   5.084  1.00  0.00    -0.309 N 
HETATM    2  C   UNL     1      43.283 -12.620   3.723  1.00  0.00     0.321 C 
HETATM    3  N   UNL     1      42.638 -13.652   3.094  1.00  0.00    -0.337 N 
HETATM    4  O   UNL     1      43.777 -11.748   3.020  1.00  0.00    -0.247 OA
HETATM    5  H   UNL     1      43.316 -13.670   5.406  1.00  0.00     0.170 HD
HETATM    6  H   UNL     1      42.641 -13.557   2.087  1.00  0.00     0.164 HD
ENDROOT
BRANCH   1   7
HETATM    7  C   UNL     1      43.680 -11.756   6.061  1.00  0.00     0.042 A 
HETATM    8  C   UNL     1      42.872 -10.759   6.631  1.00  0.00    -0.033 A 
HETATM    9  C   UNL     1      43.435  -9.913   7.615  1.00  0.00     0.045 A 
HETATM   10  C   UNL     1      41.427 -10.522   6.297  1.00  0.00     0.050 C 
HETATM   11  C   UNL     1      44.741 -10.077   8.080  1.00  0.00     0.069 A 
HETATM   12  C   UNL     1      45.527 -11.079   7.530  1.00  0.00     0.039 A 
HETATM   13  C   UNL     1      44.997 -11.907   6.537  1.00  0.00     0.033 A 
BRANCH  11  14
HETATM   14  O   UNL     1      45.123  -9.207   9.063  1.00  0.00    -0.351 OA
BRANCH  14  15
HETATM   15  C   UNL     1      45.180  -9.730  10.390  1.00  0.00     0.171 C 
HETATM   16  C   UNL     1      44.042  -9.118  11.187  1.00  0.00     0.034 C 
ENDBRANCH  14  15
ENDBRANCH  11  14
ENDBRANCH   1   7
BRANCH   3  17
HETATM   17  C   UNL     1      41.847 -14.710   3.696  1.00  0.00     0.183 C 
BRANCH  17  18
HETATM   18  C   UNL     1      42.650 -15.976   3.895  1.00  0.00     0.053 A 
HETATM   19  N   UNL     1      43.471 -16.022   4.982  1.00  0.00    -0.264 NA
HETATM   20  C   UNL     1      44.240 -17.123   5.141  1.00  0.00     0.118 A 
HETATM   21  C   UNL     1      44.229 -18.197   4.275  1.00  0.00     0.043 A 
HETATM   22  C   UNL     1      43.379 -18.129   3.180  1.00  0.00     0.037 A 
HETATM   23 CL   UNL     1      43.318 -19.440   2.067  1.00  0.00    -0.084 Cl
HETATM   24  C   UNL     1      42.581 -17.011   2.971  1.00  0.00     0.052 A 
ENDBRANCH  17  18
ENDBRANCH   3  17
TORSDOF 5
ENDMDL
MODEL 6
REMARK VINA RESULT:      -6.8      4.921      6.245
REMARK  5 active torsions:
REMARK  status: ('A' for Active; 'I' for Inactive)
REMARK    1  A    between atoms: C_2  and  O_3 
REMARK    2  A    between atoms: O_3  and  C_4 
REMARK    3  A    between atoms: C_8  and  N_9 
REMARK       I    between atoms: N_9  and  C_10 
REMARK       I    between atoms: C_10  and  N_11 
REMARK    4  A    between atoms: N_11  and  C_12 
REMARK    5  A    between atoms: C_12  and  C_13 
ROOT
HETATM    1  N   UNL     1      40.813 -14.882   2.627  1.00  0.00    -0.309 N 
HETATM    2  C   UNL     1      39.979 -15.121   1.575  1.00  0.00     0.321 C 
HETATM    3  N   UNL     1      39.492 -13.998   0.960  1.00  0.00    -0.337 N 
HETATM    4  O   UNL     1      39.614 -16.207   1.142  1.00  0.00    -0.247 OA
HETATM    5  H   UNL     1      40.581 -14.018   3.110  1.00  0.00     0.170 HD
HETATM    6  H   UNL     1      38.875 -14.213   0.188  1.00  0.00     0.164 HD
ENDROOT
BRANCH   1   7
HETATM    7  C   UNL     1      41.655 -15.753   3.352  1.00  0.00     0.042 A 
HETATM    8  C   UNL     1      42.848 -16.348   2.911  1.00  0.00    -0.033 A 
HETATM    9  C   UNL     1      43.559 -17.182   3.806  1.00  0.00     0.045 A 
HETATM   10  C   UNL     1      43.460 -16.154   1.553  1.00  0.00     0.050 C 
HETATM   11  C   UNL     1      43.148 -17.381   5.125  1.00  0.00     0.069 A 
HETATM   12  C   UNL     1      41.982 -16.771   5.562  1.00  0.00     0.039 A 
HETATM   13  C   UNL     1      41.251 -15.966   4.685  1.00  0.00     0.033 A 
BRANCH  11  14
HETATM   14  O   UNL     1      43.965 -18.180   5.875  1.00  0.00    -0.351 OA
BRANCH  14  15
HETATM   15  C   UNL     1      43.429 -19.440   6.278  1.00  0.00     0.171 C 
HETATM   16  C   UNL     1      44.026 -20.513   5.385  1.00  0.00     0.034 C 
ENDBRANCH  14  15
ENDBRANCH  11  14
ENDBRANCH   1   7
BRANCH   3  17
HETATM   17  C   UNL     1      39.885 -12.618   1.181  1.00  0.00     0.183 C 
BRANCH  17  18
HETATM   18  C   UNL     1      40.296 -11.933  -0.104  1.00  0.00     0.053 A 
HETATM   19  N   UNL     1      39.894 -12.516  -1.269  1.00  0.00    -0.264 NA
HETATM   20  C   UNL     1      40.302 -11.949  -2.427  1.00  0.00     0.118 A 
HETATM   21  C   UNL     1      41.087 -10.816  -2.491  1.00  0.00     0.043 A 
HETATM   22  C   UNL     1      41.476 -10.238  -1.291  1.00  0.00     0.037 A 
HETATM   23 CL   UNL     1      42.453  -8.821  -1.306  1.00  0.00    -0.084 Cl
HETATM   24  C   UNL     1      41.091 -10.795  -0.078  1.00  0.00     0.052 A 
ENDBRANCH  17  18
ENDBRANCH   3  17
TORSDOF 5
ENDMDL
MODEL 7
REMARK VINA RESULT:      -6.6     16.991     19.859
REMARK  5 active torsions:
REMARK  status: ('A' for Active; 'I' for Inactive)
REMARK    1  A    between atoms: C_2  and  O_3 
REMARK    2  A    between atoms: O_3  and  C_4 
REMARK    3  A    between atoms: C_8  and  N_9 
REMARK       I    between atoms: N_9  and  C_10 
REMARK       I    between atoms: C_10  and  N_11 
REMARK    4  A    between atoms: N_11  and  C_12 
REMARK    5  A    between atoms: C_12  and  C_13 
ROOT
HETATM    1  N   UNL     1      45.657 -29.359  -3.014  1.00  0.00    -0.309 N 
HETATM    2  C   UNL     1      45.168 -28.632  -4.060  1.00  0.00     0.321 C 
HETATM    3  N   UNL     1      44.687 -29.378  -5.103  1.00  0.00    -0.337 N 
HETATM    4  O   UNL     1      45.129 -27.413  -4.169  1.00  0.00    -0.247 OA
HETATM    5  H   UNL     1      46.052 -30.246  -3.317  1.00  0.00     0.170 HD
HETATM    6  H   UNL     1      44.336 -28.806  -5.860  1.00  0.00     0.164 HD
ENDROOT
BRANCH   1   7
HETATM    7  C   UNL     1      46.029 -28.964  -1.711  1.00  0.00     0.042 A 
HETATM    8  C   UNL     1      45.222 -28.950  -0.562  1.00  0.00    -0.033 A 
HETATM    9  C   UNL     1      45.796 -28.533   0.663  1.00  0.00     0.045 A 
HETATM   10  C   UNL     1      43.781 -29.370  -0.513  1.00  0.00     0.050 C 
HETATM   11  C   UNL     1      47.146 -28.196   0.777  1.00  0.00     0.069 A 
HETATM   12  C   UNL     1      47.944 -28.235  -0.357  1.00  0.00     0.039 A 
HETATM   13  C   UNL     1      47.389 -28.618  -1.581  1.00  0.00     0.033 A 
BRANCH  11  14
HETATM   14  O   UNL     1      47.557 -27.855   2.035  1.00  0.00    -0.351 OA
BRANCH  14  15
HETATM   15  C   UNL     1      47.733 -28.928   2.960  1.00  0.00     0.171 C 
HETATM   16  C   UNL     1      49.033 -28.696   3.709  1.00  0.00     0.034 C 
ENDBRANCH  14  15
ENDBRANCH  11  14
ENDBRANCH   1   7
BRANCH   3  17
HETATM   17  C   UNL     1      44.481 -30.814  -5.154  1.00  0.00     0.183 C 
BRANCH  17  18
HETATM   18  C   UNL     1      44.766 -31.379  -6.528  1.00  0.00     0.053 A 
HETATM   19  N   UNL     1      43.725 -31.418  -7.407  1.00  0.00    -0.264 NA
HETATM   20  C   UNL     1      43.947 -31.974  -8.619  1.00  0.00     0.118 A 
HETATM   21  C   UNL     1      45.165 -32.489  -9.014  1.00  0.00     0.043 A 
HETATM   22  C   UNL     1      46.211 -32.430  -8.104  1.00  0.00     0.037 A 
HETATM   23 CL   UNL     1      47.755 -33.052  -8.540  1.00  0.00    -0.084 Cl
HETATM   24  C   UNL     1      46.023 -31.879  -6.843  1.00  0.00     0.052 A 
ENDBRANCH  17  18
ENDBRANCH   3  17
TORSDOF 5
ENDMDL
MODEL 8
REMARK VINA RESULT:      -6.6      4.175      5.886
REMARK  5 active torsions:
REMARK  status: ('A' for Active; 'I' for Inactive)
REMARK    1  A    between atoms: C_2  and  O_3 
REMARK    2  A    between atoms: O_3  and  C_4 
REMARK    3  A    between atoms: C_8  and  N_9 
REMARK       I    between atoms: N_9  and  C_10 
REMARK       I    between atoms: C_10  and  N_11 
REMARK    4  A    between atoms: N_11  and  C_12 
REMARK    5  A    between atoms: C_12  and  C_13 
ROOT
HETATM    1  N   UNL     1      39.981 -13.792   3.813  1.00  0.00    -0.309 N 
HETATM    2  C   UNL     1      40.718 -13.121   4.744  1.00  0.00     0.321 C 
HETATM    3  N   UNL     1      40.887 -13.784   5.931  1.00  0.00    -0.337 N 
HETATM    4  O   UNL     1      41.220 -12.009   4.640  1.00  0.00    -0.247 OA
HETATM    5  H   UNL     1      39.280 -14.392   4.242  1.00  0.00     0.170 HD
HETATM    6  H   UNL     1      41.436 -13.256   6.597  1.00  0.00     0.164 HD
ENDROOT
BRANCH   1   7
HETATM    7  C   UNL     1      39.776 -13.537   2.440  1.00  0.00     0.042 A 
HETATM    8  C   UNL     1      39.143 -12.423   1.866  1.00  0.00    -0.033 A 
HETATM    9  C   UNL     1      39.055 -12.347   0.456  1.00  0.00     0.045 A 
HETATM   10  C   UNL     1      38.559 -11.271   2.632  1.00  0.00     0.050 C 
HETATM   11  C   UNL     1      39.630 -13.307  -0.379  1.00  0.00     0.069 A 
HETATM   12  C   UNL     1      40.276 -14.392   0.194  1.00  0.00     0.039 A 
HETATM   13  C   UNL     1      40.348 -14.499   1.585  1.00  0.00     0.033 A 
BRANCH  11  14
HETATM   14  O   UNL     1      39.496 -13.069  -1.719  1.00  0.00    -0.351 OA
BRANCH  14  15
HETATM   15  C   UNL     1      39.858 -14.136  -2.594  1.00  0.00     0.171 C 
HETATM   16  C   UNL     1      38.588 -14.855  -3.012  1.00  0.00     0.034 C 
ENDBRANCH  14  15
ENDBRANCH  11  14
ENDBRANCH   1   7
BRANCH   3  17
HETATM   17  C   UNL     1      40.530 -15.155   6.246  1.00  0.00     0.183 C 
BRANCH  17  18
HETATM   18  C   UNL     1      41.690 -16.105   6.042  1.00  0.00     0.053 A 
HETATM   19  N   UNL     1      42.381 -16.483   7.154  1.00  0.00    -0.264 NA
HETATM   20  C   UNL     1      43.456 -17.284   6.982  1.00  0.00     0.118 A 
HETATM   21  C   UNL     1      43.881 -17.744   5.752  1.00  0.00     0.043 A 
HETATM   22  C   UNL     1      43.156 -17.352   4.636  1.00  0.00     0.037 A 
HETATM   23 CL   UNL     1      43.633 -17.896   3.075  1.00  0.00    -0.084 Cl
HETATM   24  C   UNL     1      42.052 -16.518   4.766  1.00  0.00     0.052 A 
ENDBRANCH  17  18
ENDBRANCH   3  17
TORSDOF 5
ENDMDL
MODEL 9
REMARK VINA RESULT:      -6.4      5.180      9.098
REMARK  5 active torsions:
REMARK  status: ('A' for Active; 'I' for Inactive)
REMARK    1  A    between atoms: C_2  and  O_3 
REMARK    2  A    between atoms: O_3  and  C_4 
REMARK    3  A    between atoms: C_8  and  N_9 
REMARK       I    between atoms: N_9  and  C_10 
REMARK       I    between atoms: C_10  and  N_11 
REMARK    4  A    between atoms: N_11  and  C_12 
REMARK    5  A    between atoms: C_12  and  C_13 
ROOT
HETATM    1  N   UNL     1      44.478  -9.952   8.973  1.00  0.00    -0.309 N 
HETATM    2  C   UNL     1      45.364  -9.373   8.112  1.00  0.00     0.321 C 
HETATM    3  N   UNL     1      45.885 -10.217   7.168  1.00  0.00    -0.337 N 
HETATM    4  O   UNL     1      45.745  -8.209   8.104  1.00  0.00    -0.247 OA
HETATM    5  H   UNL     1      44.690 -10.934   9.134  1.00  0.00     0.170 HD
HETATM    6  H   UNL     1      46.539  -9.755   6.550  1.00  0.00     0.164 HD
ENDROOT
BRANCH   1   7
HETATM    7  C   UNL     1      43.597  -9.378   9.915  1.00  0.00     0.042 A 
HETATM    8  C   UNL     1      42.247  -9.044   9.725  1.00  0.00    -0.033 A 
HETATM    9  C   UNL     1      41.528  -8.490  10.810  1.00  0.00     0.045 A 
HETATM   10  C   UNL     1      41.477  -9.249   8.452  1.00  0.00     0.050 C 
HETATM   11  C   UNL     1      42.098  -8.324  12.074  1.00  0.00     0.069 A 
HETATM   12  C   UNL     1      43.425  -8.678  12.262  1.00  0.00     0.039 A 
HETATM   13  C   UNL     1      44.160  -9.201  11.194  1.00  0.00     0.033 A 
BRANCH  11  14
HETATM   14  O   UNL     1      41.261  -7.816  13.028  1.00  0.00    -0.351 OA
BRANCH  14  15
HETATM   15  C   UNL     1      40.863  -8.709  14.067  1.00  0.00     0.171 C 
HETATM   16  C   UNL     1      41.454  -8.206  15.372  1.00  0.00     0.034 C 
ENDBRANCH  14  15
ENDBRANCH  11  14
ENDBRANCH   1   7
BRANCH   3  17
HETATM   17  C   UNL     1      45.486 -11.582   6.873  1.00  0.00     0.183 C 
BRANCH  17  18
HETATM   18  C   UNL     1      44.304 -11.636   5.931  1.00  0.00     0.053 A 
HETATM   19  N   UNL     1      44.543 -11.337   4.623  1.00  0.00    -0.264 NA
HETATM   20  C   UNL     1      43.486 -11.323   3.780  1.00  0.00     0.118 A 
HETATM   21  C   UNL     1      42.192 -11.605   4.168  1.00  0.00     0.043 A 
HETATM   22  C   UNL     1      41.976 -11.914   5.503  1.00  0.00     0.037 A 
HETATM   23 CL   UNL     1      40.385 -12.278   6.046  1.00  0.00    -0.084 Cl
HETATM   24  C   UNL     1      43.032 -11.927   6.407  1.00  0.00     0.052 A 
ENDBRANCH  17  18
ENDBRANCH   3  17
TORSDOF 5
ENDMDL
MODEL 10
REMARK VINA RESULT:      -6.3      2.804      3.885
REMARK  5 active torsions:
REMARK  status: ('A' for Active; 'I' for Inactive)
REMARK    1  A    between atoms: C_2  and  O_3 
REMARK    2  A    between atoms: O_3  and  C_4 
REMARK    3  A    between atoms: C_8  and  N_9 
REMARK       I    between atoms: N_9  and  C_10 
REMARK       I    between atoms: C_10  and  N_11 
REMARK    4  A    between atoms: N_11  and  C_12 
REMARK    5  A    between atoms: C_12  and  C_13 
ROOT
HETATM    1  N   UNL     1      43.617 -12.247   7.138  1.00  0.00    -0.309 N 
HETATM    2  C   UNL     1      44.548 -11.290   6.857  1.00  0.00     0.321 C 
HETATM    3  N   UNL     1      44.915 -10.514   7.925  1.00  0.00    -0.337 N 
HETATM    4  O   UNL     1      45.066 -11.046   5.775  1.00  0.00    -0.247 OA
HETATM    5  H   UNL     1      42.987 -11.960   7.884  1.00  0.00     0.170 HD
HETATM    6  H   UNL     1      45.603  -9.814   7.679  1.00  0.00     0.164 HD
ENDROOT
BRANCH   1   7
HETATM    7  C   UNL     1      43.162 -13.343   6.374  1.00  0.00     0.042 A 
HETATM    8  C   UNL     1      42.112 -13.355   5.442  1.00  0.00    -0.033 A 
HETATM    9  C   UNL     1      41.824 -14.562   4.763  1.00  0.00     0.045 A 
HETATM   10  C   UNL     1      41.266 -12.169   5.079  1.00  0.00     0.050 C 
HETATM   11  C   UNL     1      42.586 -15.719   4.942  1.00  0.00     0.069 A 
HETATM   12  C   UNL     1      43.637 -15.694   5.846  1.00  0.00     0.039 A 
HETATM   13  C   UNL     1      43.920 -14.518   6.547  1.00  0.00     0.033 A 
BRANCH  11  14
HETATM   14  O   UNL     1      42.207 -16.789   4.182  1.00  0.00    -0.351 OA
BRANCH  14  15
HETATM   15  C   UNL     1      43.217 -17.378   3.363  1.00  0.00     0.171 C 
HETATM   16  C   UNL     1      43.239 -16.637   2.037  1.00  0.00     0.034 C 
ENDBRANCH  14  15
ENDBRANCH  11  14
ENDBRANCH   1   7
BRANCH   3  17
HETATM   17  C   UNL     1      44.568 -10.697   9.323  1.00  0.00     0.183 C 
BRANCH  17  18
HETATM   18  C   UNL     1      43.881  -9.479   9.900  1.00  0.00     0.053 A 
HETATM   19  N   UNL     1      43.292  -8.626   9.016  1.00  0.00    -0.264 NA
HETATM   20  C   UNL     1      42.724  -7.503   9.512  1.00  0.00     0.118 A 
HETATM   21  C   UNL     1      42.700  -7.184  10.854  1.00  0.00     0.043 A 
HETATM   22  C   UNL     1      43.299  -8.073  11.735  1.00  0.00     0.037 A 
HETATM   23 CL   UNL     1      43.299  -7.733  13.421  1.00  0.00    -0.084 Cl
HETATM   24  C   UNL     1      43.906  -9.233  11.267  1.00  0.00     0.052 A 
ENDBRANCH  17  18
ENDBRANCH   3  17
TORSDOF 5
ENDMDL
