MODEL 1
REMARK VINA RESULT:      -9.5      0.000      0.000
REMARK  8 active torsions:
REMARK  status: ('A' for Active; 'I' for Inactive)
REMARK    1  A    between atoms: C_6  and  N_7 
REMARK       I    between atoms: N_7  and  C_8 
REMARK    2  A    between atoms: C_8  and  C_9 
REMARK    3  A    between atoms: C_10  and  N_11 
REMARK       I    between atoms: N_11  and  C_12 
REMARK    4  A    between atoms: C_12  and  C_13 
REMARK    5  A    between atoms: C_13  and  N_14 
REMARK    6  A    between atoms: N_14  and  C_17 
REMARK    7  A    between atoms: C_17  and  C_18 
REMARK    8  A    between atoms: C_30  and  C_31 
ROOT
HETATM    1  C   UNL     1      42.686 -12.273   4.478  1.00  0.00     0.073 A 
HETATM    2  C   UNL     1      41.694 -11.463   3.925  1.00  0.00     0.093 A 
HETATM    3  S   UNL     1      41.505  -9.985   4.718  1.00  0.00    -0.075 SA
HETATM    4  C   UNL     1      42.634 -10.416   5.910  1.00  0.00    -0.008 A 
HETATM    5  C   UNL     1      43.186 -11.670   5.702  1.00  0.00    -0.026 A 
HETATM    6  C   UNL     1      44.151 -12.234   6.706  1.00  0.00     0.041 C 
HETATM    7  C   UNL     1      44.054 -11.534   8.071  1.00  0.00     0.010 C 
HETATM    8  C   UNL     1      44.101  -9.991   7.934  1.00  0.00    -0.002 C 
HETATM    9  C   UNL     1      42.894  -9.510   7.082  1.00  0.00     0.052 C 
ENDROOT
BRANCH   2  10
HETATM   10  N   UNL     1      40.877 -11.822   2.862  1.00  0.00    -0.319 N 
HETATM   11  C   UNL     1      39.594 -12.308   2.907  1.00  0.00     0.248 C 
HETATM   12  O   UNL     1      38.815 -12.347   3.856  1.00  0.00    -0.271 OA
HETATM   13  H   UNL     1      41.328 -11.666   1.957  1.00  0.00     0.169 HD
BRANCH  11  14
HETATM   14  C   UNL     1      39.096 -12.805   1.550  1.00  0.00     0.335 C 
BRANCH  14  15
HETATM   15  N   UNL     1      39.631 -14.181   1.250  1.00  0.00    -0.063 N 
HETATM   16  H   UNL     1      40.012 -14.614   2.099  1.00  0.00     0.278 HD
HETATM   17  H   UNL     1      38.820 -14.755   0.966  1.00  0.00     0.278 HD
BRANCH  15  18
HETATM   18  C   UNL     1      40.633 -14.232   0.147  1.00  0.00     0.272 C 
BRANCH  18  19
HETATM   19  C   UNL     1      39.970 -14.225  -1.192  1.00  0.00    -0.015 A 
HETATM   20  C   UNL     1      40.159 -13.171  -2.079  1.00  0.00     0.125 A 
HETATM   21  N   UNL     1      39.554 -13.088  -3.281  1.00  0.00    -0.273 NA
HETATM   22  C   UNL     1      38.734 -14.100  -3.636  1.00  0.00     0.116 A 
HETATM   23  C   UNL     1      38.480 -15.194  -2.828  1.00  0.00     0.020 A 
HETATM   24  C   UNL     1      39.104 -15.254  -1.585  1.00  0.00     0.012 A 
ENDBRANCH  18  19
ENDBRANCH  15  18
ENDBRANCH  14  15
ENDBRANCH  11  14
ENDBRANCH   2  10
BRANCH   1  25
HETATM   25  C   UNL     1      43.027 -13.552   3.809  1.00  0.00     0.259 C 
HETATM   26  N   UNL     1      42.722 -14.709   4.494  1.00  0.00    -0.322 N 
HETATM   27  H   UNL     1      42.048 -14.637   5.235  1.00  0.00     0.169 HD
HETATM   28  O   UNL     1      43.566 -13.519   2.701  1.00  0.00    -0.267 OA
BRANCH  26  29
HETATM   29  C   UNL     1      42.974 -16.027   4.046  1.00  0.00     0.041 A 
HETATM   30  C   UNL     1      43.851 -16.939   4.659  1.00  0.00    -0.035 A 
HETATM   31  C   UNL     1      44.067 -18.190   4.045  1.00  0.00     0.015 A 
HETATM   32  C   UNL     1      44.538 -16.707   5.977  1.00  0.00     0.050 C 
HETATM   33  C   UNL     1      43.375 -18.571   2.890  1.00  0.00    -0.061 A 
HETATM   34  C   UNL     1      43.651 -19.891   2.234  1.00  0.00     0.048 C 
HETATM   35  C   UNL     1      42.455 -17.683   2.334  1.00  0.00     0.009 A 
HETATM   36  C   UNL     1      42.246 -16.432   2.918  1.00  0.00     0.030 A 
ENDBRANCH  26  29
ENDBRANCH   1  25
BRANCH   8  37
HETATM   37  C   UNL     1      44.232  -9.243   9.313  1.00  0.00    -0.047 C 
HETATM   38  C   UNL     1      43.123  -9.714  10.281  1.00  0.00     0.015 C 
HETATM   39  C   UNL     1      45.586  -9.572   9.976  1.00  0.00     0.015 C 
HETATM   40  C   UNL     1      44.121  -7.713   9.173  1.00  0.00     0.015 C 
ENDBRANCH   8  37
TORSDOF 8
ENDMDL
MODEL 2
REMARK VINA RESULT:      -9.2      2.281      8.573
REMARK  8 active torsions:
REMARK  status: ('A' for Active; 'I' for Inactive)
REMARK    1  A    between atoms: C_6  and  N_7 
REMARK       I    between atoms: N_7  and  C_8 
REMARK    2  A    between atoms: C_8  and  C_9 
REMARK    3  A    between atoms: C_10  and  N_11 
REMARK       I    between atoms: N_11  and  C_12 
REMARK    4  A    between atoms: C_12  and  C_13 
REMARK    5  A    between atoms: C_13  and  N_14 
REMARK    6  A    between atoms: N_14  and  C_17 
REMARK    7  A    between atoms: C_17  and  C_18 
REMARK    8  A    between atoms: C_30  and  C_31 
ROOT
HETATM    1  C   UNL     1      42.125 -13.397   1.851  1.00  0.00     0.073 A 
HETATM    2  C   UNL     1      42.450 -12.187   2.463  1.00  0.00     0.093 A 
HETATM    3  S   UNL     1      41.452 -10.905   2.006  1.00  0.00    -0.075 SA
HETATM    4  C   UNL     1      40.636 -11.871   0.874  1.00  0.00    -0.008 A 
HETATM    5  C   UNL     1      41.091 -13.178   0.852  1.00  0.00    -0.026 A 
HETATM    6  C   UNL     1      40.524 -14.148  -0.145  1.00  0.00     0.041 C 
HETATM    7  C   UNL     1      39.830 -13.442  -1.321  1.00  0.00     0.010 C 
HETATM    8  C   UNL     1      38.831 -12.362  -0.837  1.00  0.00    -0.002 C 
HETATM    9  C   UNL     1      39.592 -11.274  -0.031  1.00  0.00     0.052 C 
ENDROOT
BRANCH   2  10
HETATM   10  N   UNL     1      43.520 -11.996   3.327  1.00  0.00    -0.319 N 
HETATM   11  C   UNL     1      43.512 -12.002   4.700  1.00  0.00     0.248 C 
HETATM   12  O   UNL     1      42.624 -12.368   5.465  1.00  0.00    -0.271 OA
HETATM   13  H   UNL     1      44.402 -11.859   2.826  1.00  0.00     0.169 HD
BRANCH  11  14
HETATM   14  C   UNL     1      44.833 -11.531   5.306  1.00  0.00     0.335 C 
BRANCH  14  15
HETATM   15  N   UNL     1      44.913 -11.884   6.768  1.00  0.00    -0.063 N 
HETATM   16  H   UNL     1      43.975 -12.046   7.153  1.00  0.00     0.278 HD
HETATM   17  H   UNL     1      45.414 -12.787   6.825  1.00  0.00     0.278 HD
BRANCH  15  18
HETATM   18  C   UNL     1      45.655 -10.899   7.606  1.00  0.00     0.272 C 
BRANCH  18  19
HETATM   19  C   UNL     1      44.779 -10.315   8.665  1.00  0.00    -0.015 A 
HETATM   20  C   UNL     1      43.440 -10.035   8.414  1.00  0.00     0.125 A 
HETATM   21  N   UNL     1      42.613  -9.468   9.314  1.00  0.00    -0.273 NA
HETATM   22  C   UNL     1      43.122  -9.176  10.530  1.00  0.00     0.116 A 
HETATM   23  C   UNL     1      44.438  -9.417  10.882  1.00  0.00     0.020 A 
HETATM   24  C   UNL     1      45.280  -9.990   9.933  1.00  0.00     0.012 A 
ENDBRANCH  18  19
ENDBRANCH  15  18
ENDBRANCH  14  15
ENDBRANCH  11  14
ENDBRANCH   2  10
BRANCH   1  25
HETATM   25  C   UNL     1      42.857 -14.624   2.248  1.00  0.00     0.259 C 
HETATM   26  N   UNL     1      42.233 -15.449   3.160  1.00  0.00    -0.322 N 
HETATM   27  H   UNL     1      41.241 -15.338   3.273  1.00  0.00     0.169 HD
HETATM   28  O   UNL     1      43.970 -14.837   1.763  1.00  0.00    -0.267 OA
BRANCH  26  29
HETATM   29  C   UNL     1      42.759 -16.654   3.681  1.00  0.00     0.041 A 
HETATM   30  C   UNL     1      43.048 -16.895   5.036  1.00  0.00    -0.035 A 
HETATM   31  C   UNL     1      43.653 -18.118   5.393  1.00  0.00     0.015 A 
HETATM   32  C   UNL     1      42.694 -15.963   6.162  1.00  0.00     0.050 C 
HETATM   33  C   UNL     1      43.901 -19.119   4.448  1.00  0.00    -0.061 A 
HETATM   34  C   UNL     1      44.582 -20.395   4.847  1.00  0.00     0.048 C 
HETATM   35  C   UNL     1      43.543 -18.893   3.120  1.00  0.00     0.009 A 
HETATM   36  C   UNL     1      42.963 -17.679   2.746  1.00  0.00     0.030 A 
ENDBRANCH  26  29
ENDBRANCH   1  25
BRANCH   8  37
HETATM   37  C   UNL     1      37.936 -11.773  -1.992  1.00  0.00    -0.047 C 
HETATM   38  C   UNL     1      38.825 -11.107  -3.067  1.00  0.00     0.015 C 
HETATM   39  C   UNL     1      37.147 -12.902  -2.689  1.00  0.00     0.015 C 
HETATM   40  C   UNL     1      36.931 -10.720  -1.489  1.00  0.00     0.015 C 
ENDBRANCH   8  37
TORSDOF 8
ENDMDL
MODEL 3
REMARK VINA RESULT:      -9.1      1.506      1.979
REMARK  8 active torsions:
REMARK  status: ('A' for Active; 'I' for Inactive)
REMARK    1  A    between atoms: C_6  and  N_7 
REMARK       I    between atoms: N_7  and  C_8 
REMARK    2  A    between atoms: C_8  and  C_9 
REMARK    3  A    between atoms: C_10  and  N_11 
REMARK       I    between atoms: N_11  and  C_12 
REMARK    4  A    between atoms: C_12  and  C_13 
REMARK    5  A    between atoms: C_13  and  N_14 
REMARK    6  A    between atoms: N_14  and  C_17 
REMARK    7  A    between atoms: C_17  and  C_18 
REMARK    8  A    between atoms: C_30  and  C_31 
ROOT
HETATM    1  C   UNL     1      42.115 -13.059   4.609  1.00  0.00     0.073 A 
HETATM    2  C   UNL     1      41.368 -12.160   3.847  1.00  0.00     0.093 A 
HETATM    3  S   UNL     1      41.676 -10.541   4.214  1.00  0.00    -0.075 SA
HETATM    4  C   UNL     1      42.708 -10.969   5.492  1.00  0.00    -0.008 A 
HETATM    5  C   UNL     1      42.853 -12.339   5.634  1.00  0.00    -0.026 A 
HETATM    6  C   UNL     1      43.677 -12.888   6.763  1.00  0.00     0.041 C 
HETATM    7  C   UNL     1      43.884 -11.863   7.890  1.00  0.00     0.010 C 
HETATM    8  C   UNL     1      44.372 -10.497   7.346  1.00  0.00    -0.002 C 
HETATM    9  C   UNL     1      43.304  -9.912   6.382  1.00  0.00     0.052 C 
ENDROOT
BRANCH   2  10
HETATM   10  N   UNL     1      40.410 -12.517   2.909  1.00  0.00    -0.319 N 
HETATM   11  C   UNL     1      40.542 -12.575   1.544  1.00  0.00     0.248 C 
HETATM   12  O   UNL     1      41.564 -12.523   0.864  1.00  0.00    -0.271 OA
HETATM   13  H   UNL     1      39.522 -12.781   3.343  1.00  0.00     0.169 HD
BRANCH  11  14
HETATM   14  C   UNL     1      39.211 -12.789   0.824  1.00  0.00     0.335 C 
BRANCH  14  15
HETATM   15  N   UNL     1      39.323 -13.884  -0.205  1.00  0.00    -0.063 N 
HETATM   16  H   UNL     1      40.306 -14.137  -0.358  1.00  0.00     0.278 HD
HETATM   17  H   UNL     1      38.865 -14.717   0.202  1.00  0.00     0.278 HD
BRANCH  15  18
HETATM   18  C   UNL     1      38.655 -13.587  -1.504  1.00  0.00     0.272 C 
BRANCH  18  19
HETATM   19  C   UNL     1      39.267 -12.400  -2.173  1.00  0.00    -0.015 A 
HETATM   20  C   UNL     1      38.513 -11.263  -2.446  1.00  0.00     0.125 A 
HETATM   21  N   UNL     1      38.997 -10.181  -3.085  1.00  0.00    -0.273 NA
HETATM   22  C   UNL     1      40.293 -10.208  -3.463  1.00  0.00     0.116 A 
HETATM   23  C   UNL     1      41.128 -11.288  -3.237  1.00  0.00     0.020 A 
HETATM   24  C   UNL     1      40.605 -12.402  -2.587  1.00  0.00     0.012 A 
ENDBRANCH  18  19
ENDBRANCH  15  18
ENDBRANCH  14  15
ENDBRANCH  11  14
ENDBRANCH   2  10
BRANCH   1  25
HETATM   25  C   UNL     1      42.018 -14.508   4.310  1.00  0.00     0.259 C 
HETATM   26  N   UNL     1      43.194 -15.156   3.996  1.00  0.00    -0.322 N 
HETATM   27  H   UNL     1      44.050 -14.705   4.265  1.00  0.00     0.169 HD
HETATM   28  O   UNL     1      40.911 -15.050   4.344  1.00  0.00    -0.267 OA
BRANCH  26  29
HETATM   29  C   UNL     1      43.322 -16.525   3.666  1.00  0.00     0.041 A 
HETATM   30  C   UNL     1      43.843 -17.519   4.512  1.00  0.00    -0.035 A 
HETATM   31  C   UNL     1      43.990 -18.829   4.010  1.00  0.00     0.015 A 
HETATM   32  C   UNL     1      44.199 -17.307   5.958  1.00  0.00     0.050 C 
HETATM   33  C   UNL     1      43.563 -19.175   2.724  1.00  0.00    -0.061 A 
HETATM   34  C   UNL     1      43.766 -20.565   2.199  1.00  0.00     0.048 C 
HETATM   35  C   UNL     1      42.982 -18.194   1.922  1.00  0.00     0.009 A 
HETATM   36  C   UNL     1      42.849 -16.887   2.396  1.00  0.00     0.030 A 
ENDBRANCH  26  29
ENDBRANCH   1  25
BRANCH   8  37
HETATM   37  C   UNL     1      44.811  -9.493   8.477  1.00  0.00    -0.047 C 
HETATM   38  C   UNL     1      43.860  -8.275   8.507  1.00  0.00     0.015 C 
HETATM   39  C   UNL     1      44.726 -10.172   9.861  1.00  0.00     0.015 C 
HETATM   40  C   UNL     1      46.247  -8.969   8.283  1.00  0.00     0.015 C 
ENDBRANCH   8  37
TORSDOF 8
ENDMDL
MODEL 4
REMARK VINA RESULT:      -8.9      2.456      8.517
REMARK  8 active torsions:
REMARK  status: ('A' for Active; 'I' for Inactive)
REMARK    1  A    between atoms: C_6  and  N_7 
REMARK       I    between atoms: N_7  and  C_8 
REMARK    2  A    between atoms: C_8  and  C_9 
REMARK    3  A    between atoms: C_10  and  N_11 
REMARK       I    between atoms: N_11  and  C_12 
REMARK    4  A    between atoms: C_12  and  C_13 
REMARK    5  A    between atoms: C_13  and  N_14 
REMARK    6  A    between atoms: N_14  and  C_17 
REMARK    7  A    between atoms: C_17  and  C_18 
REMARK    8  A    between atoms: C_30  and  C_31 
ROOT
HETATM    1  C   UNL     1      41.341 -13.349   3.615  1.00  0.00     0.073 A 
HETATM    2  C   UNL     1      41.846 -14.650   3.634  1.00  0.00     0.093 A 
HETATM    3  S   UNL     1      41.747 -15.437   2.144  1.00  0.00    -0.075 SA
HETATM    4  C   UNL     1      40.905 -14.137   1.449  1.00  0.00    -0.008 A 
HETATM    5  C   UNL     1      40.717 -13.084   2.329  1.00  0.00    -0.026 A 
HETATM    6  C   UNL     1      39.927 -11.883   1.895  1.00  0.00     0.041 C 
HETATM    7  C   UNL     1      39.039 -12.174   0.675  1.00  0.00     0.010 C 
HETATM    8  C   UNL     1      39.831 -12.866  -0.463  1.00  0.00    -0.002 C 
HETATM    9  C   UNL     1      40.381 -14.228   0.042  1.00  0.00     0.052 C 
ENDROOT
BRANCH   2  10
HETATM   10  N   UNL     1      42.337 -15.295   4.760  1.00  0.00    -0.319 N 
HETATM   11  C   UNL     1      41.641 -16.034   5.684  1.00  0.00     0.248 C 
HETATM   12  O   UNL     1      40.490 -16.456   5.626  1.00  0.00    -0.271 OA
HETATM   13  H   UNL     1      43.351 -15.193   4.853  1.00  0.00     0.169 HD
BRANCH  11  14
HETATM   14  C   UNL     1      42.479 -16.399   6.909  1.00  0.00     0.335 C 
BRANCH  14  15
HETATM   15  N   UNL     1      43.234 -17.683   6.682  1.00  0.00    -0.063 N 
HETATM   16  H   UNL     1      43.649 -18.019   7.559  1.00  0.00     0.278 HD
HETATM   17  H   UNL     1      42.534 -18.389   6.399  1.00  0.00     0.278 HD
BRANCH  15  18
HETATM   18  C   UNL     1      44.269 -17.615   5.611  1.00  0.00     0.272 C 
BRANCH  18  19
HETATM   19  C   UNL     1      44.024 -18.639   4.551  1.00  0.00    -0.015 A 
HETATM   20  C   UNL     1      44.099 -19.998   4.837  1.00  0.00     0.125 A 
HETATM   21  N   UNL     1      43.932 -20.966   3.915  1.00  0.00    -0.273 NA
HETATM   22  C   UNL     1      43.660 -20.581   2.650  1.00  0.00     0.116 A 
HETATM   23  C   UNL     1      43.561 -19.257   2.262  1.00  0.00     0.020 A 
HETATM   24  C   UNL     1      43.751 -18.272   3.227  1.00  0.00     0.012 A 
ENDBRANCH  18  19
ENDBRANCH  15  18
ENDBRANCH  14  15
ENDBRANCH  11  14
ENDBRANCH   2  10
BRANCH   1  25
HETATM   25  C   UNL     1      41.467 -12.512   4.832  1.00  0.00     0.259 C 
HETATM   26  N   UNL     1      42.503 -11.602   4.853  1.00  0.00    -0.322 N 
HETATM   27  H   UNL     1      42.912 -11.355   3.969  1.00  0.00     0.169 HD
HETATM   28  O   UNL     1      40.664 -12.675   5.753  1.00  0.00    -0.267 OA
BRANCH  26  29
HETATM   29  C   UNL     1      42.810 -10.721   5.916  1.00  0.00     0.041 A 
HETATM   30  C   UNL     1      43.878 -10.877   6.817  1.00  0.00    -0.035 A 
HETATM   31  C   UNL     1      44.005  -9.962   7.883  1.00  0.00     0.015 A 
HETATM   32  C   UNL     1      44.953 -11.921   6.693  1.00  0.00     0.050 C 
HETATM   33  C   UNL     1      43.145  -8.867   8.018  1.00  0.00    -0.061 A 
HETATM   34  C   UNL     1      43.276  -7.931   9.182  1.00  0.00     0.048 C 
HETATM   35  C   UNL     1      42.134  -8.686   7.075  1.00  0.00     0.009 A 
HETATM   36  C   UNL     1      41.981  -9.595   6.026  1.00  0.00     0.030 A 
ENDBRANCH  26  29
ENDBRANCH   1  25
BRANCH   8  37
HETATM   37  C   UNL     1      39.022 -12.978  -1.810  1.00  0.00    -0.047 C 
HETATM   38  C   UNL     1      37.616 -12.361  -1.640  1.00  0.00     0.015 C 
HETATM   39  C   UNL     1      39.734 -12.190  -2.931  1.00  0.00     0.015 C 
HETATM   40  C   UNL     1      38.847 -14.435  -2.279  1.00  0.00     0.015 C 
ENDBRANCH   8  37
TORSDOF 8
ENDMDL
MODEL 5
REMARK VINA RESULT:      -8.8      2.495      8.437
REMARK  8 active torsions:
REMARK  status: ('A' for Active; 'I' for Inactive)
REMARK    1  A    between atoms: C_6  and  N_7 
REMARK       I    between atoms: N_7  and  C_8 
REMARK    2  A    between atoms: C_8  and  C_9 
REMARK    3  A    between atoms: C_10  and  N_11 
REMARK       I    between atoms: N_11  and  C_12 
REMARK    4  A    between atoms: C_12  and  C_13 
REMARK    5  A    between atoms: C_13  and  N_14 
REMARK    6  A    between atoms: N_14  and  C_17 
REMARK    7  A    between atoms: C_17  and  C_18 
REMARK    8  A    between atoms: C_30  and  C_31 
ROOT
HETATM    1  C   UNL     1      41.592 -13.070   3.018  1.00  0.00     0.073 A 
HETATM    2  C   UNL     1      41.973 -12.043   3.881  1.00  0.00     0.093 A 
HETATM    3  S   UNL     1      41.635 -10.498   3.289  1.00  0.00    -0.075 SA
HETATM    4  C   UNL     1      41.097 -11.124   1.806  1.00  0.00    -0.008 A 
HETATM    5  C   UNL     1      41.140 -12.508   1.756  1.00  0.00    -0.026 A 
HETATM    6  C   UNL     1      40.766 -13.219   0.488  1.00  0.00     0.041 C 
HETATM    7  C   UNL     1      40.818 -12.296  -0.740  1.00  0.00     0.010 C 
HETATM    8  C   UNL     1      40.052 -10.971  -0.499  1.00  0.00    -0.002 C 
HETATM    9  C   UNL     1      40.705 -10.203   0.683  1.00  0.00     0.052 C 
ENDROOT
BRANCH   2  10
HETATM   10  N   UNL     1      42.623 -12.224   5.094  1.00  0.00    -0.319 N 
HETATM   11  C   UNL     1      43.933 -11.949   5.402  1.00  0.00     0.248 C 
HETATM   12  O   UNL     1      44.759 -11.308   4.759  1.00  0.00    -0.271 OA
HETATM   13  H   UNL     1      41.999 -12.590   5.818  1.00  0.00     0.169 HD
BRANCH  11  14
HETATM   14  C   UNL     1      44.350 -12.491   6.769  1.00  0.00     0.335 C 
BRANCH  14  15
HETATM   15  N   UNL     1      43.708 -11.703   7.881  1.00  0.00    -0.063 N 
HETATM   16  H   UNL     1      42.836 -11.268   7.560  1.00  0.00     0.278 HD
HETATM   17  H   UNL     1      43.445 -12.386   8.611  1.00  0.00     0.278 HD
BRANCH  15  18
HETATM   18  C   UNL     1      44.595 -10.684   8.512  1.00  0.00     0.272 C 
BRANCH  18  19
HETATM   19  C   UNL     1      43.860  -9.879   9.533  1.00  0.00    -0.015 A 
HETATM   20  C   UNL     1      42.553  -9.459   9.308  1.00  0.00     0.125 A 
HETATM   21  N   UNL     1      41.855  -8.695  10.170  1.00  0.00    -0.273 NA
HETATM   22  C   UNL     1      42.464  -8.337  11.321  1.00  0.00     0.116 A 
HETATM   23  C   UNL     1      43.759  -8.705  11.641  1.00  0.00     0.020 A 
HETATM   24  C   UNL     1      44.468  -9.483  10.731  1.00  0.00     0.012 A 
ENDBRANCH  18  19
ENDBRANCH  15  18
ENDBRANCH  14  15
ENDBRANCH  11  14
ENDBRANCH   2  10
BRANCH   1  25
HETATM   25  C   UNL     1      41.734 -14.476   3.467  1.00  0.00     0.259 C 
HETATM   26  N   UNL     1      42.797 -15.186   2.950  1.00  0.00    -0.322 N 
HETATM   27  H   UNL     1      43.552 -14.655   2.553  1.00  0.00     0.169 HD
HETATM   28  O   UNL     1      40.905 -14.937   4.254  1.00  0.00    -0.267 OA
BRANCH  26  29
HETATM   29  C   UNL     1      43.106 -16.537   3.232  1.00  0.00     0.041 A 
HETATM   30  C   UNL     1      43.693 -17.004   4.421  1.00  0.00    -0.035 A 
HETATM   31  C   UNL     1      44.023 -18.372   4.523  1.00  0.00     0.015 A 
HETATM   32  C   UNL     1      43.939 -16.159   5.641  1.00  0.00     0.050 C 
HETATM   33  C   UNL     1      43.713 -19.280   3.505  1.00  0.00    -0.061 A 
HETATM   34  C   UNL     1      44.110 -20.722   3.620  1.00  0.00     0.048 C 
HETATM   35  C   UNL     1      43.066 -18.814   2.362  1.00  0.00     0.009 A 
HETATM   36  C   UNL     1      42.752 -17.459   2.236  1.00  0.00     0.030 A 
ENDBRANCH  26  29
ENDBRANCH   1  25
BRANCH   8  37
HETATM   37  C   UNL     1      39.888 -10.097  -1.799  1.00  0.00    -0.047 C 
HETATM   38  C   UNL     1      41.250  -9.941  -2.512  1.00  0.00     0.015 C 
HETATM   39  C   UNL     1      38.929 -10.787  -2.793  1.00  0.00     0.015 C 
HETATM   40  C   UNL     1      39.343  -8.686  -1.503  1.00  0.00     0.015 C 
ENDBRANCH   8  37
TORSDOF 8
ENDMDL
MODEL 6
REMARK VINA RESULT:      -8.2      2.991      9.807
REMARK  8 active torsions:
REMARK  status: ('A' for Active; 'I' for Inactive)
REMARK    1  A    between atoms: C_6  and  N_7 
REMARK       I    between atoms: N_7  and  C_8 
REMARK    2  A    between atoms: C_8  and  C_9 
REMARK    3  A    between atoms: C_10  and  N_11 
REMARK       I    between atoms: N_11  and  C_12 
REMARK    4  A    between atoms: C_12  and  C_13 
REMARK    5  A    between atoms: C_13  and  N_14 
REMARK    6  A    between atoms: N_14  and  C_17 
REMARK    7  A    between atoms: C_17  and  C_18 
REMARK    8  A    between atoms: C_30  and  C_31 
ROOT
HETATM    1  C   UNL     1      42.816 -14.281   4.587  1.00  0.00     0.073 A 
HETATM    2  C   UNL     1      43.368 -14.316   5.868  1.00  0.00     0.093 A 
HETATM    3  S   UNL     1      44.154 -15.765   6.229  1.00  0.00    -0.075 SA
HETATM    4  C   UNL     1      43.675 -16.457   4.754  1.00  0.00    -0.008 A 
HETATM    5  C   UNL     1      42.942 -15.588   3.963  1.00  0.00    -0.026 A 
HETATM    6  C   UNL     1      42.381 -16.066   2.655  1.00  0.00     0.041 C 
HETATM    7  C   UNL     1      42.307 -17.599   2.573  1.00  0.00     0.010 C 
HETATM    8  C   UNL     1      43.647 -18.263   2.976  1.00  0.00    -0.002 C 
HETATM    9  C   UNL     1      43.987 -17.896   4.447  1.00  0.00     0.052 C 
ENDROOT
BRANCH   2  10
HETATM   10  N   UNL     1      43.254 -13.302   6.809  1.00  0.00    -0.319 N 
HETATM   11  C   UNL     1      44.155 -12.304   7.091  1.00  0.00     0.248 C 
HETATM   12  O   UNL     1      45.150 -11.961   6.460  1.00  0.00    -0.271 OA
HETATM   13  H   UNL     1      42.364 -13.337   7.311  1.00  0.00     0.169 HD
BRANCH  11  14
HETATM   14  C   UNL     1      43.789 -11.509   8.344  1.00  0.00     0.335 C 
BRANCH  14  15
HETATM   15  N   UNL     1      42.725 -10.486   8.042  1.00  0.00    -0.063 N 
HETATM   16  H   UNL     1      42.546 -10.436   7.033  1.00  0.00     0.278 HD
HETATM   17  H   UNL     1      41.853 -10.832   8.478  1.00  0.00     0.278 HD
BRANCH  15  18
HETATM   18  C   UNL     1      42.996  -9.126   8.589  1.00  0.00     0.272 C 
BRANCH  18  19
HETATM   19  C   UNL     1      42.746  -9.070  10.060  1.00  0.00    -0.015 A 
HETATM   20  C   UNL     1      41.525  -9.468  10.595  1.00  0.00     0.125 A 
HETATM   21  N   UNL     1      41.225  -9.399  11.907  1.00  0.00    -0.273 NA
HETATM   22  C   UNL     1      42.178  -8.930  12.740  1.00  0.00     0.116 A 
HETATM   23  C   UNL     1      43.425  -8.511  12.310  1.00  0.00     0.020 A 
HETATM   24  C   UNL     1      43.710  -8.578  10.949  1.00  0.00     0.012 A 
ENDBRANCH  18  19
ENDBRANCH  15  18
ENDBRANCH  14  15
ENDBRANCH  11  14
ENDBRANCH   2  10
BRANCH   1  25
HETATM   25  C   UNL     1      42.192 -13.024   4.106  1.00  0.00     0.259 C 
HETATM   26  N   UNL     1      40.820 -13.025   3.975  1.00  0.00    -0.322 N 
HETATM   27  H   UNL     1      40.314 -13.737   4.471  1.00  0.00     0.169 HD
HETATM   28  O   UNL     1      42.917 -12.063   3.841  1.00  0.00    -0.267 OA
BRANCH  26  29
HETATM   29  C   UNL     1      40.031 -11.943   3.521  1.00  0.00     0.041 A 
HETATM   30  C   UNL     1      39.495 -10.931   4.336  1.00  0.00    -0.035 A 
HETATM   31  C   UNL     1      38.652  -9.963   3.750  1.00  0.00     0.015 A 
HETATM   32  C   UNL     1      39.809 -10.756   5.797  1.00  0.00     0.050 C 
HETATM   33  C   UNL     1      38.401  -9.944   2.375  1.00  0.00    -0.061 A 
HETATM   34  C   UNL     1      37.469  -8.928   1.782  1.00  0.00     0.048 C 
HETATM   35  C   UNL     1      38.997 -10.912   1.569  1.00  0.00     0.009 A 
HETATM   36  C   UNL     1      39.817 -11.890   2.136  1.00  0.00     0.030 A 
ENDBRANCH  26  29
ENDBRANCH   1  25
BRANCH   8  37
HETATM   37  C   UNL     1      43.690 -19.812   2.692  1.00  0.00    -0.047 C 
HETATM   38  C   UNL     1      43.856 -20.592   4.016  1.00  0.00     0.015 C 
HETATM   39  C   UNL     1      42.364 -20.277   2.052  1.00  0.00     0.015 C 
HETATM   40  C   UNL     1      44.846 -20.215   1.757  1.00  0.00     0.015 C 
ENDBRANCH   8  37
TORSDOF 8
ENDMDL
MODEL 7
REMARK VINA RESULT:      -8.2      2.417      8.795
REMARK  8 active torsions:
REMARK  status: ('A' for Active; 'I' for Inactive)
REMARK    1  A    between atoms: C_6  and  N_7 
REMARK       I    between atoms: N_7  and  C_8 
REMARK    2  A    between atoms: C_8  and  C_9 
REMARK    3  A    between atoms: C_10  and  N_11 
REMARK       I    between atoms: N_11  and  C_12 
REMARK    4  A    between atoms: C_12  and  C_13 
REMARK    5  A    between atoms: C_13  and  N_14 
REMARK    6  A    between atoms: N_14  and  C_17 
REMARK    7  A    between atoms: C_17  and  C_18 
REMARK    8  A    between atoms: C_30  and  C_31 
ROOT
HETATM    1  C   UNL     1      41.476 -13.891   3.111  1.00  0.00     0.073 A 
HETATM    2  C   UNL     1      41.676 -13.278   4.347  1.00  0.00     0.093 A 
HETATM    3  S   UNL     1      42.675 -14.156   5.386  1.00  0.00    -0.075 SA
HETATM    4  C   UNL     1      42.770 -15.450   4.292  1.00  0.00    -0.008 A 
HETATM    5  C   UNL     1      42.072 -15.217   3.119  1.00  0.00    -0.026 A 
HETATM    6  C   UNL     1      41.994 -16.292   2.073  1.00  0.00     0.041 C 
HETATM    7  C   UNL     1      42.322 -17.684   2.636  1.00  0.00     0.010 C 
HETATM    8  C   UNL     1      43.637 -17.681   3.455  1.00  0.00    -0.002 C 
HETATM    9  C   UNL     1      43.492 -16.717   4.665  1.00  0.00     0.052 C 
ENDROOT
BRANCH   2  10
HETATM   10  N   UNL     1      41.084 -12.089   4.750  1.00  0.00    -0.319 N 
HETATM   11  C   UNL     1      41.629 -10.829   4.750  1.00  0.00     0.248 C 
HETATM   12  O   UNL     1      42.665 -10.436   4.221  1.00  0.00    -0.271 OA
HETATM   13  H   UNL     1      40.116 -12.222   5.055  1.00  0.00     0.169 HD
BRANCH  11  14
HETATM   14  C   UNL     1      40.759  -9.803   5.475  1.00  0.00     0.335 C 
BRANCH  14  15
HETATM   15  N   UNL     1      41.583  -8.967   6.419  1.00  0.00    -0.063 N 
HETATM   16  H   UNL     1      42.375  -8.538   5.927  1.00  0.00     0.278 HD
HETATM   17  H   UNL     1      40.975  -8.191   6.731  1.00  0.00     0.278 HD
BRANCH  15  18
HETATM   18  C   UNL     1      42.057  -9.688   7.635  1.00  0.00     0.272 C 
BRANCH  18  19
HETATM   19  C   UNL     1      43.538  -9.576   7.793  1.00  0.00    -0.015 A 
HETATM   20  C   UNL     1      44.118  -8.421   8.308  1.00  0.00     0.125 A 
HETATM   21  N   UNL     1      45.448  -8.244   8.433  1.00  0.00    -0.273 NA
HETATM   22  C   UNL     1      46.250  -9.259   8.047  1.00  0.00     0.116 A 
HETATM   23  C   UNL     1      45.774 -10.449   7.525  1.00  0.00     0.020 A 
HETATM   24  C   UNL     1      44.398 -10.606   7.392  1.00  0.00     0.012 A 
ENDBRANCH  18  19
ENDBRANCH  15  18
ENDBRANCH  14  15
ENDBRANCH  11  14
ENDBRANCH   2  10
BRANCH   1  25
HETATM   25  C   UNL     1      40.706 -13.172   2.067  1.00  0.00     0.259 C 
HETATM   26  N   UNL     1      41.342 -12.962   0.862  1.00  0.00    -0.322 N 
HETATM   27  H   UNL     1      42.138 -13.540   0.659  1.00  0.00     0.169 HD
HETATM   28  O   UNL     1      39.562 -12.793   2.327  1.00  0.00    -0.267 OA
BRANCH  26  29
HETATM   29  C   UNL     1      40.797 -12.289  -0.256  1.00  0.00     0.041 A 
HETATM   30  C   UNL     1      40.022 -12.886  -1.265  1.00  0.00    -0.035 A 
HETATM   31  C   UNL     1      39.621 -12.101  -2.366  1.00  0.00     0.015 A 
HETATM   32  C   UNL     1      39.521 -14.303  -1.230  1.00  0.00     0.050 C 
HETATM   33  C   UNL     1      39.911 -10.734  -2.439  1.00  0.00    -0.061 A 
HETATM   34  C   UNL     1      39.507  -9.930  -3.639  1.00  0.00     0.048 C 
HETATM   35  C   UNL     1      40.618 -10.141  -1.394  1.00  0.00     0.009 A 
HETATM   36  C   UNL     1      41.041 -10.908  -0.307  1.00  0.00     0.030 A 
ENDBRANCH  26  29
ENDBRANCH   1  25
BRANCH   8  37
HETATM   37  C   UNL     1      44.127 -19.122   3.859  1.00  0.00    -0.047 C 
HETATM   38  C   UNL     1      43.580 -19.499   5.254  1.00  0.00     0.015 C 
HETATM   39  C   UNL     1      43.592 -20.171   2.860  1.00  0.00     0.015 C 
HETATM   40  C   UNL     1      45.663 -19.237   3.905  1.00  0.00     0.015 C 
ENDBRANCH   8  37
TORSDOF 8
ENDMDL
MODEL 8
REMARK VINA RESULT:      -8.1      2.402      9.166
REMARK  8 active torsions:
REMARK  status: ('A' for Active; 'I' for Inactive)
REMARK    1  A    between atoms: C_6  and  N_7 
REMARK       I    between atoms: N_7  and  C_8 
REMARK    2  A    between atoms: C_8  and  C_9 
REMARK    3  A    between atoms: C_10  and  N_11 
REMARK       I    between atoms: N_11  and  C_12 
REMARK    4  A    between atoms: C_12  and  C_13 
REMARK    5  A    between atoms: C_13  and  N_14 
REMARK    6  A    between atoms: N_14  and  C_17 
REMARK    7  A    between atoms: C_17  and  C_18 
REMARK    8  A    between atoms: C_30  and  C_31 
ROOT
HETATM    1  C   UNL     1      41.785 -13.784   3.375  1.00  0.00     0.073 A 
HETATM    2  C   UNL     1      42.076 -13.450   4.698  1.00  0.00     0.093 A 
HETATM    3  S   UNL     1      42.994 -14.614   5.505  1.00  0.00    -0.075 SA
HETATM    4  C   UNL     1      42.925 -15.670   4.178  1.00  0.00    -0.008 A 
HETATM    5  C   UNL     1      42.233 -15.140   3.102  1.00  0.00    -0.026 A 
HETATM    6  C   UNL     1      42.017 -15.974   1.872  1.00  0.00     0.041 C 
HETATM    7  C   UNL     1      42.202 -17.476   2.141  1.00  0.00     0.010 C 
HETATM    8  C   UNL     1      43.526 -17.769   2.890  1.00  0.00    -0.002 C 
HETATM    9  C   UNL     1      43.512 -17.053   4.268  1.00  0.00     0.052 C 
ENDROOT
BRANCH   2  10
HETATM   10  N   UNL     1      41.626 -12.309   5.347  1.00  0.00    -0.319 N 
HETATM   11  C   UNL     1      40.447 -12.132   6.029  1.00  0.00     0.248 C 
HETATM   12  O   UNL     1      39.630 -12.974   6.389  1.00  0.00    -0.271 OA
HETATM   13  H   UNL     1      42.302 -11.543   5.298  1.00  0.00     0.169 HD
BRANCH  11  14
HETATM   14  C   UNL     1      40.195 -10.675   6.415  1.00  0.00     0.335 C 
BRANCH  14  15
HETATM   15  N   UNL     1      40.971 -10.302   7.651  1.00  0.00    -0.063 N 
HETATM   16  H   UNL     1      40.349  -9.900   8.362  1.00  0.00     0.278 HD
HETATM   17  H   UNL     1      41.336 -11.185   8.046  1.00  0.00     0.278 HD
BRANCH  15  18
HETATM   18  C   UNL     1      42.132  -9.400   7.407  1.00  0.00     0.272 C 
BRANCH  18  19
HETATM   19  C   UNL     1      43.206  -9.608   8.424  1.00  0.00    -0.015 A 
HETATM   20  C   UNL     1      44.241 -10.510   8.199  1.00  0.00     0.125 A 
HETATM   21  N   UNL     1      45.212 -10.773   9.095  1.00  0.00    -0.273 NA
HETATM   22  C   UNL     1      45.176 -10.103  10.267  1.00  0.00     0.116 A 
HETATM   23  C   UNL     1      44.193  -9.183  10.588  1.00  0.00     0.020 A 
HETATM   24  C   UNL     1      43.191  -8.937   9.653  1.00  0.00     0.012 A 
ENDBRANCH  18  19
ENDBRANCH  15  18
ENDBRANCH  14  15
ENDBRANCH  11  14
ENDBRANCH   2  10
BRANCH   1  25
HETATM   25  C   UNL     1      41.077 -12.798   2.524  1.00  0.00     0.259 C 
HETATM   26  N   UNL     1      39.852 -13.181   2.020  1.00  0.00    -0.322 N 
HETATM   27  H   UNL     1      39.390 -13.947   2.476  1.00  0.00     0.169 HD
HETATM   28  O   UNL     1      41.613 -11.710   2.301  1.00  0.00    -0.267 OA
BRANCH  26  29
HETATM   29  C   UNL     1      39.023 -12.403   1.179  1.00  0.00     0.041 A 
HETATM   30  C   UNL     1      39.045 -12.423  -0.226  1.00  0.00    -0.035 A 
HETATM   31  C   UNL     1      38.217 -11.524  -0.930  1.00  0.00     0.015 A 
HETATM   32  C   UNL     1      39.845 -13.391  -1.053  1.00  0.00     0.050 C 
HETATM   33  C   UNL     1      37.326 -10.672  -0.268  1.00  0.00    -0.061 A 
HETATM   34  C   UNL     1      36.485  -9.698  -1.037  1.00  0.00     0.048 C 
HETATM   35  C   UNL     1      37.265 -10.715   1.124  1.00  0.00     0.009 A 
HETATM   36  C   UNL     1      38.093 -11.584   1.837  1.00  0.00     0.030 A 
ENDBRANCH  26  29
ENDBRANCH   1  25
BRANCH   8  37
HETATM   37  C   UNL     1      43.864 -19.304   2.986  1.00  0.00    -0.047 C 
HETATM   38  C   UNL     1      42.786 -20.134   2.253  1.00  0.00     0.015 C 
HETATM   39  C   UNL     1      45.214 -19.601   2.298  1.00  0.00     0.015 C 
HETATM   40  C   UNL     1      43.942 -19.807   4.441  1.00  0.00     0.015 C 
ENDBRANCH   8  37
TORSDOF 8
ENDMDL
MODEL 9
REMARK VINA RESULT:      -8.1      1.881      6.897
REMARK  8 active torsions:
REMARK  status: ('A' for Active; 'I' for Inactive)
REMARK    1  A    between atoms: C_6  and  N_7 
REMARK       I    between atoms: N_7  and  C_8 
REMARK    2  A    between atoms: C_8  and  C_9 
REMARK    3  A    between atoms: C_10  and  N_11 
REMARK       I    between atoms: N_11  and  C_12 
REMARK    4  A    between atoms: C_12  and  C_13 
REMARK    5  A    between atoms: C_13  and  N_14 
REMARK    6  A    between atoms: N_14  and  C_17 
REMARK    7  A    between atoms: C_17  and  C_18 
REMARK    8  A    between atoms: C_30  and  C_31 
ROOT
HETATM    1  C   UNL     1      41.652 -13.858   4.017  1.00  0.00     0.073 A 
HETATM    2  C   UNL     1      41.091 -13.664   2.755  1.00  0.00     0.093 A 
HETATM    3  S   UNL     1      41.138 -15.037   1.773  1.00  0.00    -0.075 SA
HETATM    4  C   UNL     1      42.028 -15.902   2.931  1.00  0.00    -0.008 A 
HETATM    5  C   UNL     1      42.272 -15.171   4.081  1.00  0.00    -0.026 A 
HETATM    6  C   UNL     1      43.109 -15.766   5.178  1.00  0.00     0.041 C 
HETATM    7  C   UNL     1      43.970 -16.941   4.687  1.00  0.00     0.010 C 
HETATM    8  C   UNL     1      43.136 -17.973   3.887  1.00  0.00    -0.002 C 
HETATM    9  C   UNL     1      42.532 -17.288   2.630  1.00  0.00     0.052 C 
ENDROOT
BRANCH   2  10
HETATM   10  N   UNL     1      40.584 -12.459   2.287  1.00  0.00    -0.319 N 
HETATM   11  C   UNL     1      41.262 -11.288   2.056  1.00  0.00     0.248 C 
HETATM   12  O   UNL     1      42.474 -11.093   2.014  1.00  0.00    -0.271 OA
HETATM   13  H   UNL     1      39.582 -12.512   2.087  1.00  0.00     0.169 HD
BRANCH  11  14
HETATM   14  C   UNL     1      40.334 -10.110   1.761  1.00  0.00     0.335 C 
BRANCH  14  15
HETATM   15  N   UNL     1      39.499 -10.375   0.536  1.00  0.00    -0.063 N 
HETATM   16  H   UNL     1      38.936 -11.225   0.657  1.00  0.00     0.278 HD
HETATM   17  H   UNL     1      38.831  -9.589   0.460  1.00  0.00     0.278 HD
BRANCH  15  18
HETATM   18  C   UNL     1      40.269 -10.440  -0.739  1.00  0.00     0.272 C 
BRANCH  18  19
HETATM   19  C   UNL     1      40.106 -11.766  -1.407  1.00  0.00    -0.015 A 
HETATM   20  C   UNL     1      40.844 -12.093  -2.540  1.00  0.00     0.125 A 
HETATM   21  N   UNL     1      40.709 -13.253  -3.211  1.00  0.00    -0.273 NA
HETATM   22  C   UNL     1      39.815 -14.147  -2.736  1.00  0.00     0.116 A 
HETATM   23  C   UNL     1      39.034 -13.921  -1.617  1.00  0.00     0.020 A 
HETATM   24  C   UNL     1      39.179 -12.709  -0.946  1.00  0.00     0.012 A 
ENDBRANCH  18  19
ENDBRANCH  15  18
ENDBRANCH  14  15
ENDBRANCH  11  14
ENDBRANCH   2  10
BRANCH   1  25
HETATM   25  C   UNL     1      41.577 -12.763   5.014  1.00  0.00     0.259 C 
HETATM   26  N   UNL     1      42.681 -11.943   5.119  1.00  0.00    -0.322 N 
HETATM   27  H   UNL     1      43.325 -11.944   4.347  1.00  0.00     0.169 HD
HETATM   28  O   UNL     1      40.556 -12.647   5.696  1.00  0.00    -0.267 OA
BRANCH  26  29
HETATM   29  C   UNL     1      42.823 -10.855   6.011  1.00  0.00     0.041 A 
HETATM   30  C   UNL     1      43.799 -10.752   7.017  1.00  0.00    -0.035 A 
HETATM   31  C   UNL     1      43.760  -9.644   7.889  1.00  0.00     0.015 A 
HETATM   32  C   UNL     1      44.942 -11.712   7.198  1.00  0.00     0.050 C 
HETATM   33  C   UNL     1      42.826  -8.615   7.728  1.00  0.00    -0.061 A 
HETATM   34  C   UNL     1      42.780  -7.467   8.692  1.00  0.00     0.048 C 
HETATM   35  C   UNL     1      41.910  -8.697   6.681  1.00  0.00     0.009 A 
HETATM   36  C   UNL     1      41.920  -9.798   5.822  1.00  0.00     0.030 A 
ENDBRANCH  26  29
ENDBRANCH   1  25
BRANCH   8  37
HETATM   37  C   UNL     1      43.923 -19.297   3.560  1.00  0.00    -0.047 C 
HETATM   38  C   UNL     1      45.395 -18.971   3.219  1.00  0.00     0.015 C 
HETATM   39  C   UNL     1      43.936 -20.231   4.790  1.00  0.00     0.015 C 
HETATM   40  C   UNL     1      43.320 -20.070   2.372  1.00  0.00     0.015 C 
ENDBRANCH   8  37
TORSDOF 8
ENDMDL
MODEL 10
REMARK VINA RESULT:      -7.9      2.867      6.442
REMARK  8 active torsions:
REMARK  status: ('A' for Active; 'I' for Inactive)
REMARK    1  A    between atoms: C_6  and  N_7 
REMARK       I    between atoms: N_7  and  C_8 
REMARK    2  A    between atoms: C_8  and  C_9 
REMARK    3  A    between atoms: C_10  and  N_11 
REMARK       I    between atoms: N_11  and  C_12 
REMARK    4  A    between atoms: C_12  and  C_13 
REMARK    5  A    between atoms: C_13  and  N_14 
REMARK    6  A    between atoms: N_14  and  C_17 
REMARK    7  A    between atoms: C_17  and  C_18 
REMARK    8  A    between atoms: C_30  and  C_31 
ROOT
HETATM    1  C   UNL     1      42.321 -11.113   4.877  1.00  0.00     0.073 A 
HETATM    2  C   UNL     1      43.101 -12.250   4.668  1.00  0.00     0.093 A 
HETATM    3  S   UNL     1      43.958 -12.746   6.035  1.00  0.00    -0.075 SA
HETATM    4  C   UNL     1      43.439 -11.394   6.920  1.00  0.00    -0.008 A 
HETATM    5  C   UNL     1      42.589 -10.571   6.199  1.00  0.00    -0.026 A 
HETATM    6  C   UNL     1      42.095  -9.292   6.812  1.00  0.00     0.041 C 
HETATM    7  C   UNL     1      42.962  -8.835   7.996  1.00  0.00     0.010 C 
HETATM    8  C   UNL     1      43.203  -9.980   9.011  1.00  0.00    -0.002 C 
HETATM    9  C   UNL     1      43.957 -11.144   8.310  1.00  0.00     0.052 C 
ENDROOT
BRANCH   2  10
HETATM   10  N   UNL     1      43.234 -12.909   3.453  1.00  0.00    -0.319 N 
HETATM   11  C   UNL     1      42.588 -14.044   3.030  1.00  0.00     0.248 C 
HETATM   12  O   UNL     1      41.619 -14.612   3.527  1.00  0.00    -0.271 OA
HETATM   13  H   UNL     1      43.892 -12.438   2.827  1.00  0.00     0.169 HD
BRANCH  11  14
HETATM   14  C   UNL     1      43.158 -14.604   1.727  1.00  0.00     0.335 C 
BRANCH  14  15
HETATM   15  N   UNL     1      43.685 -16.001   1.926  1.00  0.00    -0.063 N 
HETATM   16  H   UNL     1      44.358 -16.243   1.189  1.00  0.00     0.278 HD
HETATM   17  H   UNL     1      44.213 -15.992   2.815  1.00  0.00     0.278 HD
BRANCH  15  18
HETATM   18  C   UNL     1      42.633 -17.053   2.034  1.00  0.00     0.272 C 
BRANCH  18  19
HETATM   19  C   UNL     1      43.138 -18.256   2.759  1.00  0.00    -0.015 A 
HETATM   20  C   UNL     1      43.634 -18.156   4.054  1.00  0.00     0.125 A 
HETATM   21  N   UNL     1      44.144 -19.196   4.743  1.00  0.00    -0.273 NA
HETATM   22  C   UNL     1      44.151 -20.402   4.135  1.00  0.00     0.116 A 
HETATM   23  C   UNL     1      43.679 -20.609   2.851  1.00  0.00     0.020 A 
HETATM   24  C   UNL     1      43.170 -19.518   2.152  1.00  0.00     0.012 A 
ENDBRANCH  18  19
ENDBRANCH  15  18
ENDBRANCH  14  15
ENDBRANCH  11  14
ENDBRANCH   2  10
BRANCH   1  25
HETATM   25  C   UNL     1      41.435 -10.638   3.787  1.00  0.00     0.259 C 
HETATM   26  N   UNL     1      40.077 -10.767   3.991  1.00  0.00    -0.322 N 
HETATM   27  H   UNL     1      39.768 -10.890   4.939  1.00  0.00     0.169 HD
HETATM   28  O   UNL     1      41.945 -10.171   2.766  1.00  0.00    -0.267 OA
BRANCH  26  29
HETATM   29  C   UNL     1      39.064 -10.392   3.079  1.00  0.00     0.041 A 
HETATM   30  C   UNL     1      38.580  -9.085   2.895  1.00  0.00    -0.035 A 
HETATM   31  C   UNL     1      37.501  -8.880   2.008  1.00  0.00     0.015 A 
HETATM   32  C   UNL     1      39.176  -7.858   3.527  1.00  0.00     0.050 C 
HETATM   33  C   UNL     1      36.957  -9.928   1.258  1.00  0.00    -0.061 A 
HETATM   34  C   UNL     1      35.786  -9.691   0.352  1.00  0.00     0.048 C 
HETATM   35  C   UNL     1      37.496 -11.206   1.399  1.00  0.00     0.009 A 
HETATM   36  C   UNL     1      38.549 -11.430   2.289  1.00  0.00     0.030 A 
ENDBRANCH  26  29
ENDBRANCH   1  25
BRANCH   8  37
HETATM   37  C   UNL     1      43.892  -9.502  10.344  1.00  0.00    -0.047 C 
HETATM   38  C   UNL     1      43.380  -8.096  10.732  1.00  0.00     0.015 C 
HETATM   39  C   UNL     1      43.534 -10.454  11.505  1.00  0.00     0.015 C 
HETATM   40  C   UNL     1      45.427  -9.433  10.230  1.00  0.00     0.015 C 
ENDBRANCH   8  37
TORSDOF 8
ENDMDL
