MODEL 1
REMARK VINA RESULT:      -8.3      0.000      0.000
REMARK  10 active torsions:
REMARK  status: ('A' for Active; 'I' for Inactive)
REMARK    1  A    between atoms: C_3  and  C_4 
REMARK    2  A    between atoms: C_4  and  C_5 
REMARK       I    between atoms: C_5  and  N_6 
REMARK    3  A    between atoms: N_6  and  C_7 
REMARK    4  A    between atoms: C_7  and  C_8 
REMARK    5  A    between atoms: C_8  and  O_9 
REMARK    6  A    between atoms: C_15  and  N_16 
REMARK    7  A    between atoms: N_16  and  C_17 
REMARK    8  A    between atoms: C_26  and  C_27 
REMARK    9  A    between atoms: C_27  and  O_28 
REMARK   10  A    between atoms: C_30  and  O_31 
ROOT
HETATM    1  C   UNL     1      39.814 -12.700   5.263  1.00  0.00     0.016 C 
HETATM    2  C   UNL     1      40.617 -12.226   4.008  1.00  0.00    -0.030 C 
HETATM    3  C   UNL     1      42.063 -12.896   4.006  1.00  0.00     0.056 C 
HETATM    4  C   UNL     1      41.999 -14.309   3.473  1.00  0.00     0.056 C 
HETATM    5  C   UNL     1      40.880 -14.865   2.893  1.00  0.00     0.012 C 
HETATM    6  S   UNL     1      41.180 -16.477   2.452  1.00  0.00    -0.055 SA
HETATM    7  C   UNL     1      42.856 -16.237   2.799  1.00  0.00     0.172 C 
HETATM    8  N   UNL     1      43.134 -15.098   3.401  1.00  0.00    -0.227 NA
HETATM    9  C   UNL     1      39.589 -14.173   2.644  1.00  0.00     0.055 C 
HETATM   10  C   UNL     1      39.786 -12.632   2.716  1.00  0.00     0.012 C 
HETATM   11  C   UNL     1      40.241 -11.937   1.352  1.00  0.00     0.008 C 
HETATM   12  C   UNL     1      38.954 -11.780   0.488  1.00  0.00     0.020 C 
HETATM   13  C   UNL     1      40.798 -10.502   1.614  1.00  0.00     0.128 C 
HETATM   14  C   UNL     1      40.256  -9.899   2.902  1.00  0.00     0.033 C 
HETATM   15  C   UNL     1      40.742 -10.675   4.126  1.00  0.00     0.013 C 
ENDROOT
BRANCH   3  16
HETATM   16  C   UNL     1      42.740 -12.848   5.388  1.00  0.00     0.114 C 
BRANCH  16  17
HETATM   17  C   UNL     1      43.974 -11.974   5.412  1.00  0.00     0.218 C 
HETATM   18  N   UNL     1      44.716 -12.049   6.565  1.00  0.00    -0.359 N 
HETATM   19  H   UNL     1      44.677 -12.934   7.077  1.00  0.00     0.162 HD
HETATM   20  O   UNL     1      44.241 -11.219   4.478  1.00  0.00    -0.274 OA
BRANCH  18  21
HETATM   21  C   UNL     1      45.901 -11.228   6.739  1.00  0.00     0.148 C 
BRANCH  21  22
HETATM   22  C   UNL     1      45.746 -10.232   7.891  1.00  0.00     0.186 C 
BRANCH  22  23
HETATM   23  O   UNL     1      45.559 -10.878   9.154  1.00  0.00    -0.394 OA
HETATM   24  C   UNL     1      45.178  -9.971  10.181  1.00  0.00     0.201 C 
ENDBRANCH  22  23
ENDBRANCH  21  22
ENDBRANCH  18  21
ENDBRANCH  16  17
ENDBRANCH   3  16
BRANCH  11  25
HETATM   25  C   UNL     1      41.277 -12.716   0.495  1.00  0.00     0.176 C 
BRANCH  25  26
HETATM   26  O   UNL     1      41.367 -12.221  -0.837  1.00  0.00    -0.400 OA
HETATM   27  H   UNL     1      41.479 -13.000  -1.409  1.00  0.00     0.209 HD
ENDBRANCH  25  26
ENDBRANCH  11  25
BRANCH   7  28
HETATM   28  N   UNL     1      43.747 -17.185   2.412  1.00  0.00    -0.334 N 
HETATM   29  H   UNL     1      44.688 -16.829   2.288  1.00  0.00     0.168 HD
BRANCH  28  30
HETATM   30  C   UNL     1      43.793 -18.470   3.009  1.00  0.00     0.051 A 
HETATM   31  C   UNL     1      43.595 -19.675   2.332  1.00  0.00     0.145 A 
HETATM   32  N   UNL     1      43.636 -20.906   2.911  1.00  0.00    -0.271 NA
HETATM   33  C   UNL     1      43.916 -20.947   4.228  1.00  0.00     0.116 A 
HETATM   34  C   UNL     1      44.178 -19.822   4.988  1.00  0.00     0.021 A 
HETATM   35  C   UNL     1      44.130 -18.575   4.364  1.00  0.00     0.032 A 
ENDBRANCH  28  30
ENDBRANCH   7  28
BRANCH  13  36
HETATM   36  O   UNL     1      42.223 -10.512   1.681  1.00  0.00    -0.395 OA
HETATM   37  H   UNL     1      42.549 -11.238   1.118  1.00  0.00     0.210 HD
ENDBRANCH  13  36
TORSDOF 10
ENDMDL
MODEL 2
REMARK VINA RESULT:      -7.3      3.062      6.880
REMARK  10 active torsions:
REMARK  status: ('A' for Active; 'I' for Inactive)
REMARK    1  A    between atoms: C_3  and  C_4 
REMARK    2  A    between atoms: C_4  and  C_5 
REMARK       I    between atoms: C_5  and  N_6 
REMARK    3  A    between atoms: N_6  and  C_7 
REMARK    4  A    between atoms: C_7  and  C_8 
REMARK    5  A    between atoms: C_8  and  O_9 
REMARK    6  A    between atoms: C_15  and  N_16 
REMARK    7  A    between atoms: N_16  and  C_17 
REMARK    8  A    between atoms: C_26  and  C_27 
REMARK    9  A    between atoms: C_27  and  O_28 
REMARK   10  A    between atoms: C_30  and  O_31 
ROOT
HETATM    1  C   UNL     1      40.319 -14.816   6.639  1.00  0.00     0.016 C 
HETATM    2  C   UNL     1      41.487 -14.138   5.851  1.00  0.00    -0.030 C 
HETATM    3  C   UNL     1      41.680 -14.860   4.443  1.00  0.00     0.056 C 
HETATM    4  C   UNL     1      40.667 -14.357   3.439  1.00  0.00     0.056 C 
HETATM    5  C   UNL     1      39.825 -13.289   3.661  1.00  0.00     0.012 C 
HETATM    6  S   UNL     1      38.809 -13.047   2.322  1.00  0.00    -0.055 SA
HETATM    7  C   UNL     1      39.749 -14.192   1.431  1.00  0.00     0.172 C 
HETATM    8  N   UNL     1      40.627 -14.861   2.151  1.00  0.00    -0.227 NA
HETATM    9  C   UNL     1      39.805 -12.428   4.873  1.00  0.00     0.055 C 
HETATM   10  C   UNL     1      41.128 -12.601   5.673  1.00  0.00     0.012 C 
HETATM   11  C   UNL     1      42.331 -11.656   5.215  1.00  0.00     0.008 C 
HETATM   12  C   UNL     1      42.067 -10.263   5.860  1.00  0.00     0.020 C 
HETATM   13  C   UNL     1      43.694 -12.173   5.777  1.00  0.00     0.128 C 
HETATM   14  C   UNL     1      43.517 -13.018   7.031  1.00  0.00     0.033 C 
HETATM   15  C   UNL     1      42.768 -14.314   6.726  1.00  0.00     0.013 C 
ENDROOT
BRANCH   3  16
HETATM   16  C   UNL     1      41.644 -16.395   4.554  1.00  0.00     0.114 C 
BRANCH  16  17
HETATM   17  C   UNL     1      42.913 -17.052   4.056  1.00  0.00     0.218 C 
HETATM   18  N   UNL     1      42.726 -18.035   3.115  1.00  0.00    -0.359 N 
HETATM   19  H   UNL     1      41.899 -17.946   2.518  1.00  0.00     0.162 HD
HETATM   20  O   UNL     1      44.012 -16.751   4.516  1.00  0.00    -0.274 OA
BRANCH  18  21
HETATM   21  C   UNL     1      43.854 -18.780   2.587  1.00  0.00     0.148 C 
BRANCH  21  22
HETATM   22  C   UNL     1      43.436 -20.146   2.036  1.00  0.00     0.186 C 
BRANCH  22  23
HETATM   23  O   UNL     1      43.926 -21.230   2.830  1.00  0.00    -0.394 OA
HETATM   24  C   UNL     1      43.988 -20.911   4.214  1.00  0.00     0.201 C 
ENDBRANCH  22  23
ENDBRANCH  21  22
ENDBRANCH  18  21
ENDBRANCH  16  17
ENDBRANCH   3  16
BRANCH  11  25
HETATM   25  C   UNL     1      42.486 -11.431   3.685  1.00  0.00     0.176 C 
BRANCH  25  26
HETATM   26  O   UNL     1      43.695 -10.757   3.351  1.00  0.00    -0.400 OA
HETATM   27  H   UNL     1      43.759  -9.998   3.958  1.00  0.00     0.209 HD
ENDBRANCH  25  26
ENDBRANCH  11  25
BRANCH   7  28
HETATM   28  N   UNL     1      39.551 -14.299   0.092  1.00  0.00    -0.334 N 
HETATM   29  H   UNL     1      38.585 -14.472  -0.161  1.00  0.00     0.168 HD
BRANCH  28  30
HETATM   30  C   UNL     1      40.138 -13.401  -0.835  1.00  0.00     0.051 A 
HETATM   31  C   UNL     1      40.730 -12.181  -0.503  1.00  0.00     0.145 A 
HETATM   32  N   UNL     1      41.288 -11.320  -1.397  1.00  0.00    -0.271 NA
HETATM   33  C   UNL     1      41.283 -11.702  -2.689  1.00  0.00     0.116 A 
HETATM   34  C   UNL     1      40.769 -12.909  -3.126  1.00  0.00     0.021 A 
HETATM   35  C   UNL     1      40.206 -13.770  -2.184  1.00  0.00     0.032 A 
ENDBRANCH  28  30
ENDBRANCH   7  28
BRANCH  13  36
HETATM   36  O   UNL     1      44.387 -12.948   4.800  1.00  0.00    -0.395 OA
HETATM   37  H   UNL     1      44.980 -12.353   4.305  1.00  0.00     0.210 HD
ENDBRANCH  13  36
TORSDOF 10
ENDMDL
MODEL 3
REMARK VINA RESULT:      -7.3      3.715      8.257
REMARK  10 active torsions:
REMARK  status: ('A' for Active; 'I' for Inactive)
REMARK    1  A    between atoms: C_3  and  C_4 
REMARK    2  A    between atoms: C_4  and  C_5 
REMARK       I    between atoms: C_5  and  N_6 
REMARK    3  A    between atoms: N_6  and  C_7 
REMARK    4  A    between atoms: C_7  and  C_8 
REMARK    5  A    between atoms: C_8  and  O_9 
REMARK    6  A    between atoms: C_15  and  N_16 
REMARK    7  A    between atoms: N_16  and  C_17 
REMARK    8  A    between atoms: C_26  and  C_27 
REMARK    9  A    between atoms: C_27  and  O_28 
REMARK   10  A    between atoms: C_30  and  O_31 
ROOT
HETATM    1  C   UNL     1      43.192 -11.640   3.875  1.00  0.00     0.016 C 
HETATM    2  C   UNL     1      42.088 -11.935   4.942  1.00  0.00    -0.030 C 
HETATM    3  C   UNL     1      42.762 -12.469   6.283  1.00  0.00     0.056 C 
HETATM    4  C   UNL     1      43.299 -11.322   7.108  1.00  0.00     0.056 C 
HETATM    5  C   UNL     1      43.064  -9.993   6.827  1.00  0.00     0.012 C 
HETATM    6  S   UNL     1      43.858  -9.000   7.952  1.00  0.00    -0.055 SA
HETATM    7  C   UNL     1      44.220 -10.400   8.899  1.00  0.00     0.172 C 
HETATM    8  N   UNL     1      43.950 -11.547   8.308  1.00  0.00    -0.227 NA
HETATM    9  C   UNL     1      42.217  -9.470   5.724  1.00  0.00     0.055 C 
HETATM   10  C   UNL     1      41.280 -10.591   5.192  1.00  0.00     0.012 C 
HETATM   11  C   UNL     1      39.894 -10.749   5.970  1.00  0.00     0.008 C 
HETATM   12  C   UNL     1      38.952  -9.636   5.422  1.00  0.00     0.020 C 
HETATM   13  C   UNL     1      39.223 -12.121   5.644  1.00  0.00     0.128 C 
HETATM   14  C   UNL     1      39.679 -12.683   4.305  1.00  0.00     0.033 C 
HETATM   15  C   UNL     1      41.166 -13.034   4.327  1.00  0.00     0.013 C 
ENDROOT
BRANCH   3  16
HETATM   16  C   UNL     1      43.849 -13.527   6.020  1.00  0.00     0.114 C 
BRANCH  16  17
HETATM   17  C   UNL     1      43.462 -14.906   6.506  1.00  0.00     0.218 C 
HETATM   18  N   UNL     1      43.372 -15.863   5.525  1.00  0.00    -0.359 N 
HETATM   19  H   UNL     1      43.967 -15.732   4.703  1.00  0.00     0.162 HD
HETATM   20  O   UNL     1      43.199 -15.116   7.689  1.00  0.00    -0.274 OA
BRANCH  18  21
HETATM   21  C   UNL     1      42.964 -17.218   5.847  1.00  0.00     0.148 C 
BRANCH  21  22
HETATM   22  C   UNL     1      43.960 -18.258   5.326  1.00  0.00     0.186 C 
BRANCH  22  23
HETATM   23  O   UNL     1      43.688 -19.573   5.818  1.00  0.00    -0.394 OA
HETATM   24  C   UNL     1      44.263 -20.590   5.007  1.00  0.00     0.201 C 
ENDBRANCH  22  23
ENDBRANCH  21  22
ENDBRANCH  18  21
ENDBRANCH  16  17
ENDBRANCH   3  16
BRANCH  11  25
HETATM   25  C   UNL     1      39.949 -10.585   7.514  1.00  0.00     0.176 C 
BRANCH  25  26
HETATM   26  O   UNL     1      38.724 -10.943   8.145  1.00  0.00    -0.400 OA
HETATM   27  H   UNL     1      38.115 -10.198   8.001  1.00  0.00     0.209 HD
ENDBRANCH  25  26
ENDBRANCH  11  25
BRANCH   7  28
HETATM   28  N   UNL     1      44.708 -10.233  10.154  1.00  0.00    -0.334 N 
HETATM   29  H   UNL     1      45.585  -9.726  10.183  1.00  0.00     0.168 HD
BRANCH  28  30
HETATM   30  C   UNL     1      43.887  -9.835  11.240  1.00  0.00     0.051 A 
HETATM   31  C   UNL     1      43.085 -10.694  11.994  1.00  0.00     0.145 A 
HETATM   32  N   UNL     1      42.295 -10.306  13.032  1.00  0.00    -0.271 NA
HETATM   33  C   UNL     1      42.323  -8.999  13.359  1.00  0.00     0.116 A 
HETATM   34  C   UNL     1      43.116  -8.068  12.714  1.00  0.00     0.021 A 
HETATM   35  C   UNL     1      43.916  -8.498  11.655  1.00  0.00     0.032 A 
ENDBRANCH  28  30
ENDBRANCH   7  28
BRANCH  13  36
HETATM   36  O   UNL     1      39.507 -13.082   6.660  1.00  0.00    -0.395 OA
HETATM   37  H   UNL     1      39.547 -12.616   7.516  1.00  0.00     0.210 HD
ENDBRANCH  13  36
TORSDOF 10
ENDMDL
MODEL 4
REMARK VINA RESULT:      -7.3      5.421      9.650
REMARK  10 active torsions:
REMARK  status: ('A' for Active; 'I' for Inactive)
REMARK    1  A    between atoms: C_3  and  C_4 
REMARK    2  A    between atoms: C_4  and  C_5 
REMARK       I    between atoms: C_5  and  N_6 
REMARK    3  A    between atoms: N_6  and  C_7 
REMARK    4  A    between atoms: C_7  and  C_8 
REMARK    5  A    between atoms: C_8  and  O_9 
REMARK    6  A    between atoms: C_15  and  N_16 
REMARK    7  A    between atoms: N_16  and  C_17 
REMARK    8  A    between atoms: C_26  and  C_27 
REMARK    9  A    between atoms: C_27  and  O_28 
REMARK   10  A    between atoms: C_30  and  O_31 
ROOT
HETATM    1  C   UNL     1      42.370  -5.712  10.924  1.00  0.00     0.016 C 
HETATM    2  C   UNL     1      41.409  -6.892  11.282  1.00  0.00    -0.030 C 
HETATM    3  C   UNL     1      41.225  -7.843  10.017  1.00  0.00     0.056 C 
HETATM    4  C   UNL     1      42.395  -8.791   9.883  1.00  0.00     0.056 C 
HETATM    5  C   UNL     1      43.381  -8.938  10.834  1.00  0.00     0.012 C 
HETATM    6  S   UNL     1      44.540 -10.066  10.316  1.00  0.00    -0.055 SA
HETATM    7  C   UNL     1      43.505 -10.491   8.998  1.00  0.00     0.172 C 
HETATM    8  N   UNL     1      42.465  -9.697   8.839  1.00  0.00    -0.227 NA
HETATM    9  C   UNL     1      43.437  -8.249  12.150  1.00  0.00     0.055 C 
HETATM   10  C   UNL     1      42.038  -7.676  12.513  1.00  0.00     0.012 C 
HETATM   11  C   UNL     1      41.058  -8.690  13.263  1.00  0.00     0.008 C 
HETATM   12  C   UNL     1      41.495  -8.699  14.758  1.00  0.00     0.020 C 
HETATM   13  C   UNL     1      39.583  -8.179  13.218  1.00  0.00     0.128 C 
HETATM   14  C   UNL     1      39.500  -6.670  13.036  1.00  0.00     0.033 C 
HETATM   15  C   UNL     1      40.044  -6.244  11.673  1.00  0.00     0.013 C 
ENDROOT
BRANCH   3  16
HETATM   16  C   UNL     1      40.990  -7.057   8.714  1.00  0.00     0.114 C 
BRANCH  16  17
HETATM   17  C   UNL     1      39.708  -7.446   8.012  1.00  0.00     0.218 C 
HETATM   18  N   UNL     1      39.715  -7.268   6.650  1.00  0.00    -0.359 N 
HETATM   19  H   UNL     1      40.623  -7.338   6.184  1.00  0.00     0.162 HD
HETATM   20  O   UNL     1      38.728  -7.838   8.642  1.00  0.00    -0.274 OA
BRANCH  18  21
HETATM   21  C   UNL     1      38.534  -7.558   5.858  1.00  0.00     0.148 C 
BRANCH  21  22
HETATM   22  C   UNL     1      38.611  -8.933   5.191  1.00  0.00     0.186 C 
BRANCH  22  23
HETATM   23  O   UNL     1      37.974  -9.955   5.962  1.00  0.00    -0.394 OA
HETATM   24  C   UNL     1      38.900 -10.893   6.498  1.00  0.00     0.201 C 
ENDBRANCH  22  23
ENDBRANCH  21  22
ENDBRANCH  18  21
ENDBRANCH  16  17
ENDBRANCH   3  16
BRANCH  11  25
HETATM   25  C   UNL     1      41.082 -10.163  12.769  1.00  0.00     0.176 C 
BRANCH  25  26
HETATM   26  O   UNL     1      40.077 -10.962  13.384  1.00  0.00    -0.400 OA
HETATM   27  H   UNL     1      39.446 -11.195  12.680  1.00  0.00     0.209 HD
ENDBRANCH  25  26
ENDBRANCH  11  25
BRANCH   7  28
HETATM   28  N   UNL     1      43.801 -11.592   8.262  1.00  0.00    -0.334 N 
HETATM   29  H   UNL     1      43.363 -12.439   8.608  1.00  0.00     0.168 HD
BRANCH  28  30
HETATM   30  C   UNL     1      43.782 -11.584   6.845  1.00  0.00     0.051 A 
HETATM   31  C   UNL     1      44.867 -11.254   6.031  1.00  0.00     0.145 A 
HETATM   32  N   UNL     1      44.842 -11.243   4.670  1.00  0.00    -0.271 NA
HETATM   33  C   UNL     1      43.685 -11.607   4.083  1.00  0.00     0.116 A 
HETATM   34  C   UNL     1      42.563 -12.000   4.788  1.00  0.00     0.021 A 
HETATM   35  C   UNL     1      42.621 -12.002   6.182  1.00  0.00     0.032 A 
ENDBRANCH  28  30
ENDBRANCH   7  28
BRANCH  13  36
HETATM   36  O   UNL     1      38.859  -8.805  12.159  1.00  0.00    -0.395 OA
HETATM   37  H   UNL     1      37.913  -8.801  12.394  1.00  0.00     0.210 HD
ENDBRANCH  13  36
TORSDOF 10
ENDMDL
MODEL 5
REMARK VINA RESULT:      -7.1      3.662      7.930
REMARK  10 active torsions:
REMARK  status: ('A' for Active; 'I' for Inactive)
REMARK    1  A    between atoms: C_3  and  C_4 
REMARK    2  A    between atoms: C_4  and  C_5 
REMARK       I    between atoms: C_5  and  N_6 
REMARK    3  A    between atoms: N_6  and  C_7 
REMARK    4  A    between atoms: C_7  and  C_8 
REMARK    5  A    between atoms: C_8  and  O_9 
REMARK    6  A    between atoms: C_15  and  N_16 
REMARK    7  A    between atoms: N_16  and  C_17 
REMARK    8  A    between atoms: C_26  and  C_27 
REMARK    9  A    between atoms: C_27  and  O_28 
REMARK   10  A    between atoms: C_30  and  O_31 
ROOT
HETATM    1  C   UNL     1      42.398  -6.864   7.837  1.00  0.00     0.016 C 
HETATM    2  C   UNL     1      41.959  -7.959   8.862  1.00  0.00    -0.030 C 
HETATM    3  C   UNL     1      41.664  -9.327   8.100  1.00  0.00     0.056 C 
HETATM    4  C   UNL     1      42.950 -10.067   7.808  1.00  0.00     0.056 C 
HETATM    5  C   UNL     1      44.182  -9.699   8.305  1.00  0.00     0.012 C 
HETATM    6  S   UNL     1      45.389 -10.747   7.732  1.00  0.00    -0.055 SA
HETATM    7  C   UNL     1      44.158 -11.782   7.099  1.00  0.00     0.172 C 
HETATM    8  N   UNL     1      42.943 -11.273   7.129  1.00  0.00    -0.227 NA
HETATM    9  C   UNL     1      44.448  -8.572   9.236  1.00  0.00     0.055 C 
HETATM   10  C   UNL     1      43.127  -8.126   9.926  1.00  0.00     0.012 C 
HETATM   11  C   UNL     1      42.746  -8.927  11.254  1.00  0.00     0.008 C 
HETATM   12  C   UNL     1      43.607  -8.315  12.400  1.00  0.00     0.020 C 
HETATM   13  C   UNL     1      41.248  -8.701  11.634  1.00  0.00     0.128 C 
HETATM   14  C   UNL     1      40.700  -7.399  11.069  1.00  0.00     0.033 C 
HETATM   15  C   UNL     1      40.657  -7.430   9.541  1.00  0.00     0.013 C 
ENDROOT
BRANCH   3  16
HETATM   16  C   UNL     1      40.832  -9.125   6.820  1.00  0.00     0.114 C 
BRANCH  16  17
HETATM   17  C   UNL     1      39.835 -10.238   6.582  1.00  0.00     0.218 C 
HETATM   18  N   UNL     1      40.274 -11.242   5.755  1.00  0.00    -0.359 N 
HETATM   19  H   UNL     1      41.283 -11.415   5.739  1.00  0.00     0.162 HD
HETATM   20  O   UNL     1      38.704 -10.195   7.060  1.00  0.00    -0.274 OA
BRANCH  18  21
HETATM   21  C   UNL     1      39.402 -12.349   5.405  1.00  0.00     0.148 C 
BRANCH  21  22
HETATM   22  C   UNL     1      39.492 -12.705   3.919  1.00  0.00     0.186 C 
BRANCH  22  23
HETATM   23  O   UNL     1      39.504 -11.550   3.077  1.00  0.00    -0.394 OA
HETATM   24  C   UNL     1      38.420 -11.534   2.155  1.00  0.00     0.201 C 
ENDBRANCH  22  23
ENDBRANCH  21  22
ENDBRANCH  18  21
ENDBRANCH  16  17
ENDBRANCH   3  16
BRANCH  11  25
HETATM   25  C   UNL     1      43.023 -10.456  11.240  1.00  0.00     0.176 C 
BRANCH  25  26
HETATM   26  O   UNL     1      42.825 -11.060  12.513  1.00  0.00    -0.400 OA
HETATM   27  H   UNL     1      41.986 -10.703  12.856  1.00  0.00     0.209 HD
ENDBRANCH  25  26
ENDBRANCH  11  25
BRANCH   7  28
HETATM   28  N   UNL     1      44.506 -13.019   6.659  1.00  0.00    -0.334 N 
HETATM   29  H   UNL     1      45.285 -13.423   7.165  1.00  0.00     0.168 HD
BRANCH  28  30
HETATM   30  C   UNL     1      43.543 -14.021   6.377  1.00  0.00     0.051 A 
HETATM   31  C   UNL     1      42.944 -14.229   5.133  1.00  0.00     0.145 A 
HETATM   32  N   UNL     1      42.017 -15.189   4.869  1.00  0.00    -0.271 NA
HETATM   33  C   UNL     1      41.686 -16.007   5.887  1.00  0.00     0.116 A 
HETATM   34  C   UNL     1      42.251 -15.925   7.146  1.00  0.00     0.021 A 
HETATM   35  C   UNL     1      43.199 -14.931   7.385  1.00  0.00     0.032 A 
ENDBRANCH  28  30
ENDBRANCH   7  28
BRANCH  13  36
HETATM   36  O   UNL     1      40.436  -9.777  11.166  1.00  0.00    -0.395 OA
HETATM   37  H   UNL     1      39.636  -9.399  10.757  1.00  0.00     0.210 HD
ENDBRANCH  13  36
TORSDOF 10
ENDMDL
MODEL 6
REMARK VINA RESULT:      -7.1      4.658      8.775
REMARK  10 active torsions:
REMARK  status: ('A' for Active; 'I' for Inactive)
REMARK    1  A    between atoms: C_3  and  C_4 
REMARK    2  A    between atoms: C_4  and  C_5 
REMARK       I    between atoms: C_5  and  N_6 
REMARK    3  A    between atoms: N_6  and  C_7 
REMARK    4  A    between atoms: C_7  and  C_8 
REMARK    5  A    between atoms: C_8  and  O_9 
REMARK    6  A    between atoms: C_15  and  N_16 
REMARK    7  A    between atoms: N_16  and  C_17 
REMARK    8  A    between atoms: C_26  and  C_27 
REMARK    9  A    between atoms: C_27  and  O_28 
REMARK   10  A    between atoms: C_30  and  O_31 
ROOT
HETATM    1  C   UNL     1      40.489  -6.485   9.621  1.00  0.00     0.016 C 
HETATM    2  C   UNL     1      40.621  -7.875  10.324  1.00  0.00    -0.030 C 
HETATM    3  C   UNL     1      40.828  -9.017   9.233  1.00  0.00     0.056 C 
HETATM    4  C   UNL     1      42.270  -9.072   8.781  1.00  0.00     0.056 C 
HETATM    5  C   UNL     1      43.292  -8.363   9.373  1.00  0.00     0.012 C 
HETATM    6  S   UNL     1      44.759  -8.654   8.569  1.00  0.00    -0.055 SA
HETATM    7  C   UNL     1      43.991  -9.917   7.673  1.00  0.00     0.172 C 
HETATM    8  N   UNL     1      42.682  -9.974   7.815  1.00  0.00    -0.227 NA
HETATM    9  C   UNL     1      43.170  -7.485  10.567  1.00  0.00     0.055 C 
HETATM   10  C   UNL     1      41.851  -7.799  11.328  1.00  0.00     0.012 C 
HETATM   11  C   UNL     1      41.945  -8.978  12.400  1.00  0.00     0.008 C 
HETATM   12  C   UNL     1      42.591  -8.361  13.677  1.00  0.00     0.020 C 
HETATM   13  C   UNL     1      40.523  -9.483  12.803  1.00  0.00     0.128 C 
HETATM   14  C   UNL     1      39.451  -8.426  12.582  1.00  0.00     0.033 C 
HETATM   15  C   UNL     1      39.284  -8.104  11.097  1.00  0.00     0.013 C 
ENDROOT
BRANCH   3  16
HETATM   16  C   UNL     1      39.871  -8.873   8.036  1.00  0.00     0.114 C 
BRANCH  16  17
HETATM   17  C   UNL     1      39.262 -10.189   7.604  1.00  0.00     0.218 C 
HETATM   18  N   UNL     1      39.438 -10.502   6.279  1.00  0.00    -0.359 N 
HETATM   19  H   UNL     1      40.274 -10.126   5.826  1.00  0.00     0.162 HD
HETATM   20  O   UNL     1      38.616 -10.881   8.388  1.00  0.00    -0.274 OA
BRANCH  18  21
HETATM   21  C   UNL     1      38.864 -11.714   5.722  1.00  0.00     0.148 C 
BRANCH  21  22
HETATM   22  C   UNL     1      39.888 -12.850   5.637  1.00  0.00     0.186 C 
BRANCH  22  23
HETATM   23  O   UNL     1      39.762 -13.783   6.713  1.00  0.00    -0.394 OA
HETATM   24  C   UNL     1      40.111 -15.108   6.331  1.00  0.00     0.201 C 
ENDBRANCH  22  23
ENDBRANCH  21  22
ENDBRANCH  18  21
ENDBRANCH  16  17
ENDBRANCH   3  16
BRANCH  11  25
HETATM   25  C   UNL     1      42.806 -10.207  11.998  1.00  0.00     0.176 C 
BRANCH  25  26
HETATM   26  O   UNL     1      42.701 -11.277  12.932  1.00  0.00    -0.400 OA
HETATM   27  H   UNL     1      42.073 -11.913  12.547  1.00  0.00     0.209 HD
ENDBRANCH  25  26
ENDBRANCH  11  25
BRANCH   7  28
HETATM   28  N   UNL     1      44.761 -10.758   6.937  1.00  0.00    -0.334 N 
HETATM   29  H   UNL     1      45.555 -11.130   7.446  1.00  0.00     0.168 HD
BRANCH  28  30
HETATM   30  C   UNL     1      44.205 -11.766   6.110  1.00  0.00     0.051 A 
HETATM   31  C   UNL     1      43.891 -11.611   4.758  1.00  0.00     0.145 A 
HETATM   32  N   UNL     1      43.353 -12.580   3.970  1.00  0.00    -0.271 NA
HETATM   33  C   UNL     1      43.140 -13.780   4.545  1.00  0.00     0.116 A 
HETATM   34  C   UNL     1      43.459 -14.062   5.861  1.00  0.00     0.021 A 
HETATM   35  C   UNL     1      44.010 -13.047   6.642  1.00  0.00     0.032 A 
ENDBRANCH  28  30
ENDBRANCH   7  28
BRANCH  13  36
HETATM   36  O   UNL     1      40.168 -10.651  12.063  1.00  0.00    -0.395 OA
HETATM   37  H   UNL     1      39.294 -10.501  11.659  1.00  0.00     0.210 HD
ENDBRANCH  13  36
TORSDOF 10
ENDMDL
MODEL 7
REMARK VINA RESULT:      -7.0      8.646     13.892
REMARK  10 active torsions:
REMARK  status: ('A' for Active; 'I' for Inactive)
REMARK    1  A    between atoms: C_3  and  C_4 
REMARK    2  A    between atoms: C_4  and  C_5 
REMARK       I    between atoms: C_5  and  N_6 
REMARK    3  A    between atoms: N_6  and  C_7 
REMARK    4  A    between atoms: C_7  and  C_8 
REMARK    5  A    between atoms: C_8  and  O_9 
REMARK    6  A    between atoms: C_15  and  N_16 
REMARK    7  A    between atoms: N_16  and  C_17 
REMARK    8  A    between atoms: C_26  and  C_27 
REMARK    9  A    between atoms: C_27  and  O_28 
REMARK   10  A    between atoms: C_30  and  O_31 
ROOT
HETATM    1  C   UNL     1      42.152  -4.929  11.707  1.00  0.00     0.016 C 
HETATM    2  C   UNL     1      41.081  -5.950  12.212  1.00  0.00    -0.030 C 
HETATM    3  C   UNL     1      41.709  -6.877  13.345  1.00  0.00     0.056 C 
HETATM    4  C   UNL     1      41.710  -6.167  14.680  1.00  0.00     0.056 C 
HETATM    5  C   UNL     1      41.080  -4.964  14.914  1.00  0.00     0.012 C 
HETATM    6  S   UNL     1      41.332  -4.465  16.518  1.00  0.00    -0.055 SA
HETATM    7  C   UNL     1      42.015  -6.014  16.868  1.00  0.00     0.172 C 
HETATM    8  N   UNL     1      42.232  -6.770  15.811  1.00  0.00    -0.227 NA
HETATM    9  C   UNL     1      40.261  -4.201  13.936  1.00  0.00     0.055 C 
HETATM   10  C   UNL     1      39.839  -5.123  12.758  1.00  0.00     0.012 C 
HETATM   11  C   UNL     1      38.498  -5.958  12.990  1.00  0.00     0.008 C 
HETATM   12  C   UNL     1      37.317  -4.981  12.711  1.00  0.00     0.020 C 
HETATM   13  C   UNL     1      38.381  -7.127  11.961  1.00  0.00     0.128 C 
HETATM   14  C   UNL     1      39.176  -6.859  10.691  1.00  0.00     0.033 C 
HETATM   15  C   UNL     1      40.677  -6.811  10.974  1.00  0.00     0.013 C 
ENDROOT
BRANCH   3  16
HETATM   16  C   UNL     1      43.115  -7.387  12.982  1.00  0.00     0.114 C 
BRANCH  16  17
HETATM   17  C   UNL     1      43.123  -8.836  12.546  1.00  0.00     0.218 C 
HETATM   18  N   UNL     1      43.965  -9.122  11.499  1.00  0.00    -0.359 N 
HETATM   19  H   UNL     1      44.793  -8.529  11.402  1.00  0.00     0.162 HD
HETATM   20  O   UNL     1      42.381  -9.665  13.068  1.00  0.00    -0.274 OA
BRANCH  18  21
HETATM   21  C   UNL     1      44.035 -10.464  10.950  1.00  0.00     0.148 C 
BRANCH  21  22
HETATM   22  C   UNL     1      43.729 -10.490   9.450  1.00  0.00     0.186 C 
BRANCH  22  23
HETATM   23  O   UNL     1      44.647 -11.305   8.716  1.00  0.00    -0.394 OA
HETATM   24  C   UNL     1      45.783 -10.578   8.265  1.00  0.00     0.201 C 
ENDBRANCH  22  23
ENDBRANCH  21  22
ENDBRANCH  18  21
ENDBRANCH  16  17
ENDBRANCH   3  16
BRANCH  11  25
HETATM   25  C   UNL     1      38.286  -6.538  14.416  1.00  0.00     0.176 C 
BRANCH  25  26
HETATM   26  O   UNL     1      37.571  -5.649  15.267  1.00  0.00    -0.400 OA
HETATM   27  H   UNL     1      36.877  -6.181  15.695  1.00  0.00     0.209 HD
ENDBRANCH  25  26
ENDBRANCH  11  25
BRANCH   7  28
HETATM   28  N   UNL     1      42.245  -6.350  18.163  1.00  0.00    -0.334 N 
HETATM   29  H   UNL     1      42.343  -5.549  18.777  1.00  0.00     0.168 HD
BRANCH  28  30
HETATM   30  C   UNL     1      41.517  -7.374  18.820  1.00  0.00     0.051 A 
HETATM   31  C   UNL     1      42.060  -8.289  19.724  1.00  0.00     0.145 A 
HETATM   32  N   UNL     1      41.358  -9.273  20.349  1.00  0.00    -0.271 NA
HETATM   33  C   UNL     1      40.039  -9.336  20.085  1.00  0.00     0.116 A 
HETATM   34  C   UNL     1      39.385  -8.453  19.246  1.00  0.00     0.021 A 
HETATM   35  C   UNL     1      40.133  -7.454  18.622  1.00  0.00     0.032 A 
ENDBRANCH  28  30
ENDBRANCH   7  28
BRANCH  13  36
HETATM   36  O   UNL     1      38.834  -8.354  12.530  1.00  0.00    -0.395 OA
HETATM   37  H   UNL     1      39.348  -8.832  11.853  1.00  0.00     0.210 HD
ENDBRANCH  13  36
TORSDOF 10
ENDMDL
MODEL 8
REMARK VINA RESULT:      -6.8      6.102     10.136
REMARK  10 active torsions:
REMARK  status: ('A' for Active; 'I' for Inactive)
REMARK    1  A    between atoms: C_3  and  C_4 
REMARK    2  A    between atoms: C_4  and  C_5 
REMARK       I    between atoms: C_5  and  N_6 
REMARK    3  A    between atoms: N_6  and  C_7 
REMARK    4  A    between atoms: C_7  and  C_8 
REMARK    5  A    between atoms: C_8  and  O_9 
REMARK    6  A    between atoms: C_15  and  N_16 
REMARK    7  A    between atoms: N_16  and  C_17 
REMARK    8  A    between atoms: C_26  and  C_27 
REMARK    9  A    between atoms: C_27  and  O_28 
REMARK   10  A    between atoms: C_30  and  O_31 
ROOT
HETATM    1  C   UNL     1      42.725  -6.305  13.582  1.00  0.00     0.016 C 
HETATM    2  C   UNL     1      41.614  -6.884  12.648  1.00  0.00    -0.030 C 
HETATM    3  C   UNL     1      42.029  -6.681  11.123  1.00  0.00     0.056 C 
HETATM    4  C   UNL     1      43.002  -7.751  10.684  1.00  0.00     0.056 C 
HETATM    5  C   UNL     1      43.330  -8.854  11.443  1.00  0.00     0.012 C 
HETATM    6  S   UNL     1      44.478  -9.809  10.636  1.00  0.00    -0.055 SA
HETATM    7  C   UNL     1      44.248  -8.848   9.218  1.00  0.00     0.172 C 
HETATM    8  N   UNL     1      43.522  -7.763   9.402  1.00  0.00    -0.227 NA
HETATM    9  C   UNL     1      42.755  -9.206  12.768  1.00  0.00     0.055 C 
HETATM   10  C   UNL     1      41.432  -8.422  13.001  1.00  0.00     0.012 C 
HETATM   11  C   UNL     1      40.116  -9.116  12.423  1.00  0.00     0.008 C 
HETATM   12  C   UNL     1      39.705 -10.210  13.453  1.00  0.00     0.020 C 
HETATM   13  C   UNL     1      38.935  -8.097  12.340  1.00  0.00     0.128 C 
HETATM   14  C   UNL     1      39.100  -6.943  13.318  1.00  0.00     0.033 C 
HETATM   15  C   UNL     1      40.312  -6.082  12.963  1.00  0.00     0.013 C 
ENDROOT
BRANCH   3  16
HETATM   16  C   UNL     1      42.582  -5.272  10.842  1.00  0.00     0.114 C 
BRANCH  16  17
HETATM   17  C   UNL     1      41.677  -4.448   9.952  1.00  0.00     0.218 C 
HETATM   18  N   UNL     1      40.557  -5.102   9.500  1.00  0.00    -0.359 N 
HETATM   19  H   UNL     1      40.187  -5.845  10.098  1.00  0.00     0.162 HD
HETATM   20  O   UNL     1      41.973  -3.300   9.628  1.00  0.00    -0.274 OA
BRANCH  18  21
HETATM   21  C   UNL     1      39.627  -4.444   8.600  1.00  0.00     0.148 C 
BRANCH  21  22
HETATM   22  C   UNL     1      38.287  -4.144   9.276  1.00  0.00     0.186 C 
BRANCH  22  23
HETATM   23  O   UNL     1      38.087  -4.915  10.464  1.00  0.00    -0.394 OA
HETATM   24  C   UNL     1      37.296  -4.234  11.430  1.00  0.00     0.201 C 
ENDBRANCH  22  23
ENDBRANCH  21  22
ENDBRANCH  18  21
ENDBRANCH  16  17
ENDBRANCH   3  16
BRANCH  11  25
HETATM   25  C   UNL     1      40.256  -9.816  11.043  1.00  0.00     0.176 C 
BRANCH  25  26
HETATM   26  O   UNL     1      39.074 -10.510  10.658  1.00  0.00    -0.400 OA
HETATM   27  H   UNL     1      38.732 -10.932  11.466  1.00  0.00     0.209 HD
ENDBRANCH  25  26
ENDBRANCH  11  25
BRANCH   7  28
HETATM   28  N   UNL     1      44.780  -9.275   8.045  1.00  0.00    -0.334 N 
HETATM   29  H   UNL     1      45.793  -9.316   8.052  1.00  0.00     0.168 HD
BRANCH  28  30
HETATM   30  C   UNL     1      44.259 -10.386   7.335  1.00  0.00     0.051 A 
HETATM   31  C   UNL     1      43.039 -10.401   6.656  1.00  0.00     0.145 A 
HETATM   32  N   UNL     1      42.541 -11.472   5.980  1.00  0.00    -0.271 NA
HETATM   33  C   UNL     1      43.306 -12.580   5.952  1.00  0.00     0.116 A 
HETATM   34  C   UNL     1      44.552 -12.662   6.547  1.00  0.00     0.021 A 
HETATM   35  C   UNL     1      45.035 -11.547   7.231  1.00  0.00     0.032 A 
ENDBRANCH  28  30
ENDBRANCH   7  28
BRANCH  13  36
HETATM   36  O   UNL     1      38.815  -7.562  11.022  1.00  0.00    -0.395 OA
HETATM   37  H   UNL     1      38.872  -6.591  11.082  1.00  0.00     0.210 HD
ENDBRANCH  13  36
TORSDOF 10
ENDMDL
MODEL 9
REMARK VINA RESULT:      -6.7      1.846      2.165
REMARK  10 active torsions:
REMARK  status: ('A' for Active; 'I' for Inactive)
REMARK    1  A    between atoms: C_3  and  C_4 
REMARK    2  A    between atoms: C_4  and  C_5 
REMARK       I    between atoms: C_5  and  N_6 
REMARK    3  A    between atoms: N_6  and  C_7 
REMARK    4  A    between atoms: C_7  and  C_8 
REMARK    5  A    between atoms: C_8  and  O_9 
REMARK    6  A    between atoms: C_15  and  N_16 
REMARK    7  A    between atoms: N_16  and  C_17 
REMARK    8  A    between atoms: C_26  and  C_27 
REMARK    9  A    between atoms: C_27  and  O_28 
REMARK   10  A    between atoms: C_30  and  O_31 
ROOT
HETATM    1  C   UNL     1      38.736 -11.781   4.651  1.00  0.00     0.016 C 
HETATM    2  C   UNL     1      40.127 -11.723   3.940  1.00  0.00    -0.030 C 
HETATM    3  C   UNL     1      41.281 -12.091   4.976  1.00  0.00     0.056 C 
HETATM    4  C   UNL     1      41.393 -13.589   5.145  1.00  0.00     0.056 C 
HETATM    5  C   UNL     1      40.721 -14.506   4.366  1.00  0.00     0.012 C 
HETATM    6  S   UNL     1      41.071 -16.087   4.876  1.00  0.00    -0.055 SA
HETATM    7  C   UNL     1      42.307 -15.457   5.906  1.00  0.00     0.172 C 
HETATM    8  N   UNL     1      42.313 -14.143   6.017  1.00  0.00    -0.227 NA
HETATM    9  C   UNL     1      39.835 -14.191   3.214  1.00  0.00     0.055 C 
HETATM   10  C   UNL     1      40.095 -12.740   2.720  1.00  0.00     0.012 C 
HETATM   11  C   UNL     1      41.272 -12.582   1.654  1.00  0.00     0.008 C 
HETATM   12  C   UNL     1      40.676 -12.996   0.275  1.00  0.00     0.020 C 
HETATM   13  C   UNL     1      41.721 -11.091   1.532  1.00  0.00     0.128 C 
HETATM   14  C   UNL     1      40.624 -10.123   1.950  1.00  0.00     0.033 C 
HETATM   15  C   UNL     1      40.302 -10.255   3.438  1.00  0.00     0.013 C 
ENDROOT
BRANCH   3  16
HETATM   16  C   UNL     1      41.105 -11.386   6.334  1.00  0.00     0.114 C 
BRANCH  16  17
HETATM   17  C   UNL     1      42.298 -10.541   6.720  1.00  0.00     0.218 C 
HETATM   18  N   UNL     1      42.567 -10.496   8.066  1.00  0.00    -0.359 N 
HETATM   19  H   UNL     1      42.290 -11.314   8.615  1.00  0.00     0.162 HD
HETATM   20  O   UNL     1      42.931  -9.906   5.878  1.00  0.00    -0.274 OA
BRANCH  18  21
HETATM   21  C   UNL     1      43.656  -9.685   8.578  1.00  0.00     0.148 C 
BRANCH  21  22
HETATM   22  C   UNL     1      44.942 -10.496   8.761  1.00  0.00     0.186 C 
BRANCH  22  23
HETATM   23  O   UNL     1      45.313 -10.634  10.135  1.00  0.00    -0.394 OA
HETATM   24  C   UNL     1      44.309 -10.158  11.023  1.00  0.00     0.201 C 
ENDBRANCH  22  23
ENDBRANCH  21  22
ENDBRANCH  18  21
ENDBRANCH  16  17
ENDBRANCH   3  16
BRANCH  11  25
HETATM   25  C   UNL     1      42.535 -13.457   1.888  1.00  0.00     0.176 C 
BRANCH  25  26
HETATM   26  O   UNL     1      42.571 -14.603   1.045  1.00  0.00    -0.400 OA
HETATM   27  H   UNL     1      42.665 -15.372   1.634  1.00  0.00     0.209 HD
ENDBRANCH  25  26
ENDBRANCH  11  25
BRANCH   7  28
HETATM   28  N   UNL     1      43.180 -16.320   6.485  1.00  0.00    -0.334 N 
HETATM   29  H   UNL     1      43.011 -16.463   7.475  1.00  0.00     0.168 HD
BRANCH  28  30
HETATM   30  C   UNL     1      43.546 -17.548   5.878  1.00  0.00     0.051 A 
HETATM   31  C   UNL     1      44.223 -17.670   4.663  1.00  0.00     0.145 A 
HETATM   32  N   UNL     1      44.568 -18.852   4.082  1.00  0.00    -0.271 NA
HETATM   33  C   UNL     1      44.249 -19.974   4.756  1.00  0.00     0.116 A 
HETATM   34  C   UNL     1      43.623 -19.971   5.989  1.00  0.00     0.021 A 
HETATM   35  C   UNL     1      43.284 -18.744   6.559  1.00  0.00     0.032 A 
ENDBRANCH  28  30
ENDBRANCH   7  28
BRANCH  13  36
HETATM   36  O   UNL     1      42.877 -10.840   2.331  1.00  0.00    -0.395 OA
HETATM   37  H   UNL     1      43.228  -9.963   2.091  1.00  0.00     0.210 HD
ENDBRANCH  13  36
TORSDOF 10
ENDMDL
MODEL 10
REMARK VINA RESULT:      -6.7      3.485      6.637
REMARK  10 active torsions:
REMARK  status: ('A' for Active; 'I' for Inactive)
REMARK    1  A    between atoms: C_3  and  C_4 
REMARK    2  A    between atoms: C_4  and  C_5 
REMARK       I    between atoms: C_5  and  N_6 
REMARK    3  A    between atoms: N_6  and  C_7 
REMARK    4  A    between atoms: C_7  and  C_8 
REMARK    5  A    between atoms: C_8  and  O_9 
REMARK    6  A    between atoms: C_15  and  N_16 
REMARK    7  A    between atoms: N_16  and  C_17 
REMARK    8  A    between atoms: C_26  and  C_27 
REMARK    9  A    between atoms: C_27  and  O_28 
REMARK   10  A    between atoms: C_30  and  O_31 
ROOT
HETATM    1  C   UNL     1      44.182 -11.902   3.791  1.00  0.00     0.016 C 
HETATM    2  C   UNL     1      43.072 -12.720   4.528  1.00  0.00    -0.030 C 
HETATM    3  C   UNL     1      41.660 -12.007   4.340  1.00  0.00     0.056 C 
HETATM    4  C   UNL     1      41.062 -12.347   2.993  1.00  0.00     0.056 C 
HETATM    5  C   UNL     1      41.581 -13.293   2.135  1.00  0.00     0.012 C 
HETATM    6  S   UNL     1      40.661 -13.368   0.710  1.00  0.00    -0.055 SA
HETATM    7  C   UNL     1      39.476 -12.349   1.447  1.00  0.00     0.172 C 
HETATM    8  N   UNL     1      39.845 -11.821   2.597  1.00  0.00    -0.227 NA
HETATM    9  C   UNL     1      42.756 -14.164   2.401  1.00  0.00     0.055 C 
HETATM   10  C   UNL     1      43.068 -14.189   3.925  1.00  0.00     0.012 C 
HETATM   11  C   UNL     1      42.266 -15.283   4.768  1.00  0.00     0.008 C 
HETATM   12  C   UNL     1      43.003 -16.638   4.545  1.00  0.00     0.020 C 
HETATM   13  C   UNL     1      42.331 -14.970   6.296  1.00  0.00     0.128 C 
HETATM   14  C   UNL     1      43.547 -14.131   6.662  1.00  0.00     0.033 C 
HETATM   15  C   UNL     1      43.470 -12.738   6.037  1.00  0.00     0.013 C 
ENDROOT
BRANCH   3  16
HETATM   16  C   UNL     1      41.731 -10.484   4.552  1.00  0.00     0.114 C 
BRANCH  16  17
HETATM   17  C   UNL     1      41.259 -10.056   5.924  1.00  0.00     0.218 C 
HETATM   18  N   UNL     1      42.194  -9.386   6.676  1.00  0.00    -0.359 N 
HETATM   19  H   UNL     1      42.897  -8.851   6.161  1.00  0.00     0.162 HD
HETATM   20  O   UNL     1      40.138 -10.347   6.334  1.00  0.00    -0.274 OA
BRANCH  18  21
HETATM   21  C   UNL     1      41.888  -8.959   8.029  1.00  0.00     0.148 C 
BRANCH  21  22
HETATM   22  C   UNL     1      43.042  -9.241   8.996  1.00  0.00     0.186 C 
BRANCH  22  23
HETATM   23  O   UNL     1      43.636 -10.524   8.783  1.00  0.00    -0.394 OA
HETATM   24  C   UNL     1      45.050 -10.457   8.649  1.00  0.00     0.201 C 
ENDBRANCH  22  23
ENDBRANCH  21  22
ENDBRANCH  18  21
ENDBRANCH  16  17
ENDBRANCH   3  16
BRANCH  11  25
HETATM   25  C   UNL     1      40.779 -15.500   4.375  1.00  0.00     0.176 C 
BRANCH  25  26
HETATM   26  O   UNL     1      40.102 -16.384   5.263  1.00  0.00    -0.400 OA
HETATM   27  H   UNL     1      40.674 -17.165   5.357  1.00  0.00     0.209 HD
ENDBRANCH  25  26
ENDBRANCH  11  25
BRANCH   7  28
HETATM   28  N   UNL     1      38.276 -12.192   0.834  1.00  0.00    -0.334 N 
HETATM   29  H   UNL     1      37.550 -11.843   1.450  1.00  0.00     0.168 HD
BRANCH  28  30
HETATM   30  C   UNL     1      38.151 -11.592  -0.445  1.00  0.00     0.051 A 
HETATM   31  C   UNL     1      38.612 -10.317  -0.780  1.00  0.00     0.145 A 
HETATM   32  N   UNL     1      38.486  -9.744  -2.007  1.00  0.00    -0.271 NA
HETATM   33  C   UNL     1      37.893 -10.485  -2.964  1.00  0.00     0.116 A 
HETATM   34  C   UNL     1      37.443 -11.776  -2.758  1.00  0.00     0.021 A 
HETATM   35  C   UNL     1      37.589 -12.336  -1.489  1.00  0.00     0.032 A 
ENDBRANCH  28  30
ENDBRANCH   7  28
BRANCH  13  36
HETATM   36  O   UNL     1      41.158 -14.280   6.726  1.00  0.00    -0.395 OA
HETATM   37  H   UNL     1      41.343 -13.876   7.593  1.00  0.00     0.210 HD
ENDBRANCH  13  36
TORSDOF 10
ENDMDL
