MODEL 1
REMARK VINA RESULT:     -10.3      0.000      0.000
REMARK  5 active torsions:
REMARK  status: ('A' for Active; 'I' for Inactive)
REMARK    1  A    between atoms: N_4  and  C_5 
REMARK    2  A    between atoms: C_15  and  N_16 
REMARK       I    between atoms: N_16  and  C_17 
REMARK    3  A    between atoms: C_17  and  C_18 
REMARK    4  A    between atoms: C_20  and  C_21 
REMARK    5  A    between atoms: C_26  and  C_27 
ROOT
HETATM    1  N   UNL     1      41.025 -15.393   1.664  1.00  0.00    -0.307 N 
HETATM    2  C   UNL     1      42.389 -15.424   1.912  1.00  0.00     0.257 C 
HETATM    3  O   UNL     1      43.197 -14.571   1.560  1.00  0.00    -0.267 OA
HETATM    4  H   UNL     1      40.402 -15.977   2.206  1.00  0.00     0.170 HD
ENDROOT
BRANCH   1   5
HETATM    5  C   UNL     1      40.458 -14.347   0.952  1.00  0.00     0.152 C 
HETATM    6  N   UNL     1      40.070 -13.104   1.449  1.00  0.00    -0.045 N 
HETATM    7  N   UNL     1      39.261 -12.449   0.545  1.00  0.00    -0.156 NA
HETATM    8  C   UNL     1      39.408 -13.146  -0.588  1.00  0.00     0.055 C 
HETATM    9  C   UNL     1      38.753 -12.687  -1.838  1.00  0.00     0.072 C 
HETATM   10  C   UNL     1      40.180 -14.312  -0.395  1.00  0.00     0.079 C 
BRANCH   6  11
HETATM   11  C   UNL     1      40.530 -12.381   2.572  1.00  0.00     0.732 A 
HETATM   12  N   UNL     1      39.816 -12.127   3.630  1.00  0.00    -0.067 NA
HETATM   13  C   UNL     1      40.487 -11.453   4.611  1.00  0.00     0.065 A 
HETATM   14  C   UNL     1      41.763 -11.069   4.570  1.00  0.00     0.036 A 
HETATM   15  C   UNL     1      39.856 -11.090   5.912  1.00  0.00     0.061 C 
HETATM   16  C   UNL     1      42.222 -10.388   5.800  1.00  0.00     0.047 C 
HETATM   17  C   UNL     1      42.561 -11.382   3.387  1.00  0.00     0.268 A 
HETATM   18  C   UNL     1      40.901 -10.160   6.547  1.00  0.00     0.011 C 
HETATM   19  O   UNL     1      43.745 -11.087   3.294  1.00  0.00    -0.267 OA
HETATM   20  N   UNL     1      41.860 -12.045   2.422  1.00  0.00    -0.152 N 
HETATM   21  H   UNL     1      42.341 -12.337   1.578  1.00  0.00     0.188 HD
ENDBRANCH   6  11
ENDBRANCH   1   5
BRANCH   2  22
HETATM   22  C   UNL     1      42.882 -16.563   2.735  1.00  0.00     0.034 A 
HETATM   23  C   UNL     1      43.133 -16.331   4.094  1.00  0.00     0.033 A 
HETATM   24  C   UNL     1      43.564 -17.370   4.932  1.00  0.00     0.049 A 
HETATM   25  C   UNL     1      43.735 -18.654   4.387  1.00  0.00     0.032 A 
HETATM   26  C   UNL     1      43.479 -18.907   3.029  1.00  0.00     0.049 A 
HETATM   27  C   UNL     1      43.041 -17.852   2.209  1.00  0.00     0.033 A 
BRANCH  24  28
HETATM   28  C   UNL     1      43.828 -17.131   6.401  1.00  0.00     0.417 C 
HETATM   29  F   UNL     1      45.083 -16.680   6.668  1.00  0.00    -0.166 F 
HETATM   30  F   UNL     1      42.975 -16.214   6.933  1.00  0.00    -0.166 F 
HETATM   31  F   UNL     1      43.671 -18.263   7.141  1.00  0.00    -0.166 F 
ENDBRANCH  24  28
BRANCH  26  32
HETATM   32  C   UNL     1      43.624 -20.298   2.453  1.00  0.00     0.417 C 
HETATM   33  F   UNL     1      44.675 -20.425   1.600  1.00  0.00    -0.166 F 
HETATM   34  F   UNL     1      43.800 -21.238   3.419  1.00  0.00    -0.166 F 
HETATM   35  F   UNL     1      42.520 -20.682   1.753  1.00  0.00    -0.166 F 
ENDBRANCH  26  32
ENDBRANCH   2  22
TORSDOF 5
ENDMDL
MODEL 2
REMARK VINA RESULT:     -10.1      0.471      3.091
REMARK  5 active torsions:
REMARK  status: ('A' for Active; 'I' for Inactive)
REMARK    1  A    between atoms: N_4  and  C_5 
REMARK    2  A    between atoms: C_15  and  N_16 
REMARK       I    between atoms: N_16  and  C_17 
REMARK    3  A    between atoms: C_17  and  C_18 
REMARK    4  A    between atoms: C_20  and  C_21 
REMARK    5  A    between atoms: C_26  and  C_27 
ROOT
HETATM    1  N   UNL     1      40.906 -15.366   1.485  1.00  0.00    -0.307 N 
HETATM    2  C   UNL     1      42.257 -15.324   1.791  1.00  0.00     0.257 C 
HETATM    3  O   UNL     1      43.048 -14.464   1.415  1.00  0.00    -0.267 OA
HETATM    4  H   UNL     1      40.282 -15.936   2.039  1.00  0.00     0.170 HD
ENDROOT
BRANCH   1   5
HETATM    5  C   UNL     1      40.331 -14.393   0.680  1.00  0.00     0.152 C 
HETATM    6  N   UNL     1      39.868 -13.139   1.075  1.00  0.00    -0.045 N 
HETATM    7  N   UNL     1      39.079 -12.580   0.093  1.00  0.00    -0.156 NA
HETATM    8  C   UNL     1      39.309 -13.341  -0.983  1.00  0.00     0.055 C 
HETATM    9  C   UNL     1      38.698 -12.993  -2.289  1.00  0.00     0.072 C 
HETATM   10  C   UNL     1      40.118 -14.457  -0.678  1.00  0.00     0.079 C 
BRANCH   6  11
HETATM   11  C   UNL     1      40.244 -12.326   2.167  1.00  0.00     0.732 A 
HETATM   12  N   UNL     1      39.447 -11.978   3.137  1.00  0.00    -0.067 NA
HETATM   13  C   UNL     1      40.043 -11.227   4.110  1.00  0.00     0.065 A 
HETATM   14  C   UNL     1      41.323 -10.856   4.144  1.00  0.00     0.036 A 
HETATM   15  C   UNL     1      39.311 -10.750   5.319  1.00  0.00     0.061 C 
HETATM   16  C   UNL     1      41.687 -10.076   5.347  1.00  0.00     0.047 C 
HETATM   17  C   UNL     1      42.213 -11.273   3.064  1.00  0.00     0.268 A 
HETATM   18  C   UNL     1      40.311  -9.777   5.958  1.00  0.00     0.011 C 
HETATM   19  O   UNL     1      43.404 -10.996   3.046  1.00  0.00    -0.267 OA
HETATM   20  N   UNL     1      41.586 -12.013   2.102  1.00  0.00    -0.152 N 
HETATM   21  H   UNL     1      42.131 -12.378   1.329  1.00  0.00     0.188 HD
ENDBRANCH   6  11
ENDBRANCH   1   5
BRANCH   2  22
HETATM   22  C   UNL     1      42.756 -16.385   2.709  1.00  0.00     0.034 A 
HETATM   23  C   UNL     1      42.872 -17.687   2.205  1.00  0.00     0.033 A 
HETATM   24  C   UNL     1      43.370 -18.725   3.007  1.00  0.00     0.049 A 
HETATM   25  C   UNL     1      43.759 -18.437   4.326  1.00  0.00     0.032 A 
HETATM   26  C   UNL     1      43.658 -17.135   4.845  1.00  0.00     0.049 A 
HETATM   27  C   UNL     1      43.163 -16.109   4.021  1.00  0.00     0.033 A 
BRANCH  24  28
HETATM   28  C   UNL     1      43.508 -20.131   2.469  1.00  0.00     0.417 C 
HETATM   29  F   UNL     1      43.751 -21.065   3.427  1.00  0.00    -0.166 F 
HETATM   30  F   UNL     1      42.388 -20.543   1.814  1.00  0.00    -0.166 F 
HETATM   31  F   UNL     1      44.527 -20.240   1.573  1.00  0.00    -0.166 F 
ENDBRANCH  24  28
BRANCH  26  32
HETATM   32  C   UNL     1      44.115 -16.818   6.251  1.00  0.00     0.417 C 
HETATM   33  F   UNL     1      43.442 -15.781   6.819  1.00  0.00    -0.166 F 
HETATM   34  F   UNL     1      43.966 -17.876   7.091  1.00  0.00    -0.166 F 
HETATM   35  F   UNL     1      45.435 -16.483   6.300  1.00  0.00    -0.166 F 
ENDBRANCH  26  32
ENDBRANCH   2  22
TORSDOF 5
ENDMDL
MODEL 3
REMARK VINA RESULT:      -9.6      1.805      2.082
REMARK  5 active torsions:
REMARK  status: ('A' for Active; 'I' for Inactive)
REMARK    1  A    between atoms: N_4  and  C_5 
REMARK    2  A    between atoms: C_15  and  N_16 
REMARK       I    between atoms: N_16  and  C_17 
REMARK    3  A    between atoms: C_17  and  C_18 
REMARK    4  A    between atoms: C_20  and  C_21 
REMARK    5  A    between atoms: C_26  and  C_27 
ROOT
HETATM    1  N   UNL     1      41.368 -14.408   1.298  1.00  0.00    -0.307 N 
HETATM    2  C   UNL     1      40.885 -15.600   1.816  1.00  0.00     0.257 C 
HETATM    3  O   UNL     1      39.750 -16.038   1.659  1.00  0.00    -0.267 OA
HETATM    4  H   UNL     1      42.364 -14.251   1.243  1.00  0.00     0.170 HD
ENDROOT
BRANCH   1   5
HETATM    5  C   UNL     1      40.551 -13.584   0.537  1.00  0.00     0.152 C 
HETATM    6  N   UNL     1      39.534 -12.749   0.997  1.00  0.00    -0.045 N 
HETATM    7  N   UNL     1      38.734 -12.336  -0.046  1.00  0.00    -0.156 NA
HETATM    8  C   UNL     1      39.429 -12.666  -1.140  1.00  0.00     0.055 C 
HETATM    9  C   UNL     1      38.927 -12.292  -2.486  1.00  0.00     0.072 C 
HETATM   10  C   UNL     1      40.590 -13.405  -0.827  1.00  0.00     0.079 C 
BRANCH   6  11
HETATM   11  C   UNL     1      39.351 -12.137   2.257  1.00  0.00     0.732 A 
HETATM   12  N   UNL     1      39.710 -12.662   3.393  1.00  0.00    -0.067 NA
HETATM   13  C   UNL     1      39.476 -11.866   4.478  1.00  0.00     0.065 A 
HETATM   14  C   UNL     1      38.946 -10.643   4.457  1.00  0.00     0.036 A 
HETATM   15  C   UNL     1      39.839 -12.273   5.866  1.00  0.00     0.061 C 
HETATM   16  C   UNL     1      38.849 -10.011   5.790  1.00  0.00     0.047 C 
HETATM   17  C   UNL     1      38.570 -10.054   3.174  1.00  0.00     0.268 A 
HETATM   18  C   UNL     1      39.171 -11.187   6.722  1.00  0.00     0.011 C 
HETATM   19  O   UNL     1      38.108  -8.925   3.077  1.00  0.00    -0.267 OA
HETATM   20  N   UNL     1      38.806 -10.878   2.111  1.00  0.00    -0.152 N 
HETATM   21  H   UNL     1      38.611 -10.540   1.175  1.00  0.00     0.188 HD
ENDBRANCH   6  11
ENDBRANCH   1   5
BRANCH   2  22
HETATM   22  C   UNL     1      41.864 -16.434   2.568  1.00  0.00     0.034 A 
HETATM   23  C   UNL     1      42.386 -15.916   3.761  1.00  0.00     0.033 A 
HETATM   24  C   UNL     1      43.284 -16.665   4.536  1.00  0.00     0.049 A 
HETATM   25  C   UNL     1      43.648 -17.950   4.099  1.00  0.00     0.032 A 
HETATM   26  C   UNL     1      43.127 -18.489   2.911  1.00  0.00     0.049 A 
HETATM   27  C   UNL     1      42.223 -17.722   2.154  1.00  0.00     0.033 A 
BRANCH  24  28
HETATM   28  C   UNL     1      43.845 -16.120   5.829  1.00  0.00     0.417 C 
HETATM   29  F   UNL     1      45.148 -16.448   6.045  1.00  0.00    -0.166 F 
HETATM   30  F   UNL     1      43.783 -14.761   5.883  1.00  0.00    -0.166 F 
HETATM   31  F   UNL     1      43.159 -16.569   6.916  1.00  0.00    -0.166 F 
ENDBRANCH  24  28
BRANCH  26  32
HETATM   32  C   UNL     1      43.488 -19.887   2.463  1.00  0.00     0.417 C 
HETATM   33  F   UNL     1      43.760 -20.733   3.492  1.00  0.00    -0.166 F 
HETATM   34  F   UNL     1      42.492 -20.469   1.743  1.00  0.00    -0.166 F 
HETATM   35  F   UNL     1      44.589 -19.903   1.661  1.00  0.00    -0.166 F 
ENDBRANCH  26  32
ENDBRANCH   2  22
TORSDOF 5
ENDMDL
MODEL 4
REMARK VINA RESULT:      -9.2      3.353      5.539
REMARK  5 active torsions:
REMARK  status: ('A' for Active; 'I' for Inactive)
REMARK    1  A    between atoms: N_4  and  C_5 
REMARK    2  A    between atoms: C_15  and  N_16 
REMARK       I    between atoms: N_16  and  C_17 
REMARK    3  A    between atoms: C_17  and  C_18 
REMARK    4  A    between atoms: C_20  and  C_21 
REMARK    5  A    between atoms: C_26  and  C_27 
ROOT
HETATM    1  N   UNL     1      43.587 -13.163   5.223  1.00  0.00    -0.307 N 
HETATM    2  C   UNL     1      42.680 -14.172   5.512  1.00  0.00     0.257 C 
HETATM    3  O   UNL     1      42.042 -14.280   6.554  1.00  0.00    -0.267 OA
HETATM    4  H   UNL     1      43.861 -12.994   4.265  1.00  0.00     0.170 HD
ENDROOT
BRANCH   1   5
HETATM    5  C   UNL     1      43.855 -12.165   6.147  1.00  0.00     0.152 C 
HETATM    6  N   UNL     1      43.222 -10.929   6.259  1.00  0.00    -0.045 N 
HETATM    7  N   UNL     1      43.950 -10.079   7.064  1.00  0.00    -0.156 NA
HETATM    8  C   UNL     1      44.837 -10.880   7.664  1.00  0.00     0.055 C 
HETATM    9  C   UNL     1      45.756 -10.339   8.695  1.00  0.00     0.072 C 
HETATM   10  C   UNL     1      44.787 -12.198   7.160  1.00  0.00     0.079 C 
BRANCH   6  11
HETATM   11  C   UNL     1      41.925 -10.524   5.870  1.00  0.00     0.732 A 
HETATM   12  N   UNL     1      41.668  -9.732   4.869  1.00  0.00    -0.067 NA
HETATM   13  C   UNL     1      40.337  -9.518   4.651  1.00  0.00     0.065 A 
HETATM   14  C   UNL     1      39.330 -10.050   5.345  1.00  0.00     0.036 A 
HETATM   15  C   UNL     1      39.832  -8.663   3.538  1.00  0.00     0.061 C 
HETATM   16  C   UNL     1      37.992  -9.661   4.849  1.00  0.00     0.047 C 
HETATM   17  C   UNL     1      39.631 -10.958   6.449  1.00  0.00     0.268 A 
HETATM   18  C   UNL     1      38.335  -8.542   3.856  1.00  0.00     0.011 C 
HETATM   19  O   UNL     1      38.757 -11.505   7.108  1.00  0.00    -0.267 OA
HETATM   20  N   UNL     1      40.969 -11.142   6.649  1.00  0.00    -0.152 N 
HETATM   21  H   UNL     1      41.274 -11.785   7.371  1.00  0.00     0.188 HD
ENDBRANCH   6  11
ENDBRANCH   1   5
BRANCH   2  22
HETATM   22  C   UNL     1      42.426 -15.158   4.425  1.00  0.00     0.034 A 
HETATM   23  C   UNL     1      41.528 -14.800   3.411  1.00  0.00     0.033 A 
HETATM   24  C   UNL     1      41.271 -15.668   2.339  1.00  0.00     0.049 A 
HETATM   25  C   UNL     1      41.937 -16.905   2.294  1.00  0.00     0.032 A 
HETATM   26  C   UNL     1      42.847 -17.277   3.298  1.00  0.00     0.049 A 
HETATM   27  C   UNL     1      43.094 -16.388   4.359  1.00  0.00     0.033 A 
BRANCH  24  28
HETATM   28  C   UNL     1      40.312 -15.286   1.236  1.00  0.00     0.417 C 
HETATM   29  F   UNL     1      39.475 -16.292   0.862  1.00  0.00    -0.166 F 
HETATM   30  F   UNL     1      39.513 -14.242   1.588  1.00  0.00    -0.166 F 
HETATM   31  F   UNL     1      40.960 -14.898   0.104  1.00  0.00    -0.166 F 
ENDBRANCH  24  28
BRANCH  26  32
HETATM   32  C   UNL     1      43.593 -18.590   3.227  1.00  0.00     0.417 C 
HETATM   33  F   UNL     1      44.860 -18.470   2.748  1.00  0.00    -0.166 F 
HETATM   34  F   UNL     1      43.700 -19.187   4.444  1.00  0.00    -0.166 F 
HETATM   35  F   UNL     1      42.970 -19.493   2.420  1.00  0.00    -0.166 F 
ENDBRANCH  26  32
ENDBRANCH   2  22
TORSDOF 5
ENDMDL
MODEL 5
REMARK VINA RESULT:      -9.1      3.635      5.309
REMARK  5 active torsions:
REMARK  status: ('A' for Active; 'I' for Inactive)
REMARK    1  A    between atoms: N_4  and  C_5 
REMARK    2  A    between atoms: C_15  and  N_16 
REMARK       I    between atoms: N_16  and  C_17 
REMARK    3  A    between atoms: C_17  and  C_18 
REMARK    4  A    between atoms: C_20  and  C_21 
REMARK    5  A    between atoms: C_26  and  C_27 
ROOT
HETATM    1  N   UNL     1      41.104 -11.855   5.372  1.00  0.00    -0.307 N 
HETATM    2  C   UNL     1      40.540 -13.081   5.692  1.00  0.00     0.257 C 
HETATM    3  O   UNL     1      39.434 -13.247   6.196  1.00  0.00    -0.267 OA
HETATM    4  H   UNL     1      41.881 -11.813   4.728  1.00  0.00     0.170 HD
ENDROOT
BRANCH   1   5
HETATM    5  C   UNL     1      40.422 -10.674   5.625  1.00  0.00     0.152 C 
HETATM    6  N   UNL     1      40.462  -9.912   6.791  1.00  0.00    -0.045 N 
HETATM    7  N   UNL     1      39.429  -9.000   6.812  1.00  0.00    -0.156 NA
HETATM    8  C   UNL     1      38.965  -9.005   5.558  1.00  0.00     0.055 C 
HETATM    9  C   UNL     1      37.889  -8.065   5.155  1.00  0.00     0.072 C 
HETATM   10  C   UNL     1      39.582 -10.000   4.769  1.00  0.00     0.079 C 
BRANCH   6  11
HETATM   11  C   UNL     1      41.464  -9.803   7.781  1.00  0.00     0.732 A 
HETATM   12  N   UNL     1      42.742  -9.905   7.553  1.00  0.00    -0.067 NA
HETATM   13  C   UNL     1      43.525  -9.717   8.656  1.00  0.00     0.065 A 
HETATM   14  C   UNL     1      43.097  -9.435   9.886  1.00  0.00     0.036 A 
HETATM   15  C   UNL     1      45.015  -9.767   8.601  1.00  0.00     0.061 C 
HETATM   16  C   UNL     1      44.186  -9.251  10.870  1.00  0.00     0.047 C 
HETATM   17  C   UNL     1      41.662  -9.299  10.125  1.00  0.00     0.268 A 
HETATM   18  C   UNL     1      45.408  -9.745  10.086  1.00  0.00     0.011 C 
HETATM   19  O   UNL     1      41.201  -9.011  11.221  1.00  0.00    -0.267 OA
HETATM   20  N   UNL     1      40.906  -9.502   9.007  1.00  0.00    -0.152 N 
HETATM   21  H   UNL     1      39.900  -9.393   9.066  1.00  0.00     0.188 HD
ENDBRANCH   6  11
ENDBRANCH   1   5
BRANCH   2  22
HETATM   22  C   UNL     1      41.334 -14.286   5.324  1.00  0.00     0.034 A 
HETATM   23  C   UNL     1      42.117 -14.885   6.320  1.00  0.00     0.033 A 
HETATM   24  C   UNL     1      42.861 -16.043   6.049  1.00  0.00     0.049 A 
HETATM   25  C   UNL     1      42.802 -16.601   4.761  1.00  0.00     0.032 A 
HETATM   26  C   UNL     1      42.015 -16.019   3.752  1.00  0.00     0.049 A 
HETATM   27  C   UNL     1      41.273 -14.862   4.049  1.00  0.00     0.033 A 
BRANCH  24  28
HETATM   28  C   UNL     1      43.700 -16.702   7.119  1.00  0.00     0.417 C 
HETATM   29  F   UNL     1      43.468 -18.036   7.257  1.00  0.00    -0.166 F 
HETATM   30  F   UNL     1      45.033 -16.572   6.879  1.00  0.00    -0.166 F 
HETATM   31  F   UNL     1      43.486 -16.155   8.348  1.00  0.00    -0.166 F 
ENDBRANCH  24  28
BRANCH  26  32
HETATM   32  C   UNL     1      41.921 -16.643   2.378  1.00  0.00     0.417 C 
HETATM   33  F   UNL     1      42.822 -16.141   1.492  1.00  0.00    -0.166 F 
HETATM   34  F   UNL     1      42.122 -17.987   2.409  1.00  0.00    -0.166 F 
HETATM   35  F   UNL     1      40.694 -16.460   1.813  1.00  0.00    -0.166 F 
ENDBRANCH  26  32
ENDBRANCH   2  22
TORSDOF 5
ENDMDL
MODEL 6
REMARK VINA RESULT:      -9.1      3.603      5.834
REMARK  5 active torsions:
REMARK  status: ('A' for Active; 'I' for Inactive)
REMARK    1  A    between atoms: N_4  and  C_5 
REMARK    2  A    between atoms: C_15  and  N_16 
REMARK       I    between atoms: N_16  and  C_17 
REMARK    3  A    between atoms: C_17  and  C_18 
REMARK    4  A    between atoms: C_20  and  C_21 
REMARK    5  A    between atoms: C_26  and  C_27 
ROOT
HETATM    1  N   UNL     1      41.073 -11.976   5.364  1.00  0.00    -0.307 N 
HETATM    2  C   UNL     1      40.511 -13.173   5.781  1.00  0.00     0.257 C 
HETATM    3  O   UNL     1      39.422 -13.297   6.332  1.00  0.00    -0.267 OA
HETATM    4  H   UNL     1      41.828 -11.983   4.692  1.00  0.00     0.170 HD
ENDROOT
BRANCH   1   5
HETATM    5  C   UNL     1      40.409 -10.775   5.564  1.00  0.00     0.152 C 
HETATM    6  N   UNL     1      40.450  -9.969   6.700  1.00  0.00    -0.045 N 
HETATM    7  N   UNL     1      39.433  -9.039   6.674  1.00  0.00    -0.156 NA
HETATM    8  C   UNL     1      38.982  -9.085   5.416  1.00  0.00     0.055 C 
HETATM    9  C   UNL     1      37.927  -8.144   4.965  1.00  0.00     0.072 C 
HETATM   10  C   UNL     1      39.590 -10.120   4.673  1.00  0.00     0.079 C 
BRANCH   6  11
HETATM   11  C   UNL     1      41.443  -9.839   7.696  1.00  0.00     0.732 A 
HETATM   12  N   UNL     1      42.722  -9.958   7.484  1.00  0.00    -0.067 NA
HETATM   13  C   UNL     1      43.496  -9.744   8.588  1.00  0.00     0.065 A 
HETATM   14  C   UNL     1      43.058  -9.422   9.806  1.00  0.00     0.036 A 
HETATM   15  C   UNL     1      44.986  -9.807   8.550  1.00  0.00     0.061 C 
HETATM   16  C   UNL     1      44.139  -9.217  10.795  1.00  0.00     0.047 C 
HETATM   17  C   UNL     1      41.623  -9.266  10.026  1.00  0.00     0.268 A 
HETATM   18  C   UNL     1      45.365  -9.744  10.038  1.00  0.00     0.011 C 
HETATM   19  O   UNL     1      41.153  -8.942  11.108  1.00  0.00    -0.267 OA
HETATM   20  N   UNL     1      40.876  -9.497   8.907  1.00  0.00    -0.152 N 
HETATM   21  H   UNL     1      39.870  -9.378   8.953  1.00  0.00     0.188 HD
ENDBRANCH   6  11
ENDBRANCH   1   5
BRANCH   2  22
HETATM   22  C   UNL     1      41.283 -14.407   5.464  1.00  0.00     0.034 A 
HETATM   23  C   UNL     1      41.191 -14.923   4.165  1.00  0.00     0.033 A 
HETATM   24  C   UNL     1      41.920 -16.061   3.790  1.00  0.00     0.049 A 
HETATM   25  C   UNL     1      42.754 -16.675   4.740  1.00  0.00     0.032 A 
HETATM   26  C   UNL     1      42.867 -16.166   6.046  1.00  0.00     0.049 A 
HETATM   27  C   UNL     1      42.131 -15.020   6.396  1.00  0.00     0.033 A 
BRANCH  24  28
HETATM   28  C   UNL     1      41.834 -16.619   2.388  1.00  0.00     0.417 C 
HETATM   29  F   UNL     1      40.629 -16.418   1.789  1.00  0.00    -0.166 F 
HETATM   30  F   UNL     1      42.764 -16.071   1.560  1.00  0.00    -0.166 F 
HETATM   31  F   UNL     1      42.049 -17.963   2.356  1.00  0.00    -0.166 F 
ENDBRANCH  24  28
BRANCH  26  32
HETATM   32  C   UNL     1      43.795 -16.803   7.055  1.00  0.00     0.417 C 
HETATM   33  F   UNL     1      43.620 -16.339   8.321  1.00  0.00    -0.166 F 
HETATM   34  F   UNL     1      43.639 -18.152   7.116  1.00  0.00    -0.166 F 
HETATM   35  F   UNL     1      45.106 -16.590   6.753  1.00  0.00    -0.166 F 
ENDBRANCH  26  32
ENDBRANCH   2  22
TORSDOF 5
ENDMDL
MODEL 7
REMARK VINA RESULT:      -9.1      2.165      5.520
REMARK  5 active torsions:
REMARK  status: ('A' for Active; 'I' for Inactive)
REMARK    1  A    between atoms: N_4  and  C_5 
REMARK    2  A    between atoms: C_15  and  N_16 
REMARK       I    between atoms: N_16  and  C_17 
REMARK    3  A    between atoms: C_17  and  C_18 
REMARK    4  A    between atoms: C_20  and  C_21 
REMARK    5  A    between atoms: C_26  and  C_27 
ROOT
HETATM    1  N   UNL     1      40.252 -13.191   4.034  1.00  0.00    -0.307 N 
HETATM    2  C   UNL     1      41.626 -13.219   4.214  1.00  0.00     0.257 C 
HETATM    3  O   UNL     1      42.362 -12.237   4.247  1.00  0.00    -0.267 OA
HETATM    4  H   UNL     1      39.696 -13.997   4.284  1.00  0.00     0.170 HD
ENDROOT
BRANCH   1   5
HETATM    5  C   UNL     1      39.585 -11.988   3.859  1.00  0.00     0.152 C 
HETATM    6  N   UNL     1      39.283 -11.360   2.651  1.00  0.00    -0.045 N 
HETATM    7  N   UNL     1      38.912 -10.050   2.863  1.00  0.00    -0.156 NA
HETATM    8  C   UNL     1      38.703  -9.979   4.182  1.00  0.00     0.055 C 
HETATM    9  C   UNL     1      38.193  -8.727   4.792  1.00  0.00     0.072 C 
HETATM   10  C   UNL     1      39.065 -11.174   4.840  1.00  0.00     0.079 C 
BRANCH   6  11
HETATM   11  C   UNL     1      39.105 -11.900   1.358  1.00  0.00     0.732 A 
HETATM   12  N   UNL     1      39.667 -12.993   0.930  1.00  0.00    -0.067 NA
HETATM   13  C   UNL     1      39.312 -13.347  -0.340  1.00  0.00     0.065 A 
HETATM   14  C   UNL     1      38.460 -12.693  -1.130  1.00  0.00     0.036 A 
HETATM   15  C   UNL     1      39.824 -14.580  -1.005  1.00  0.00     0.061 C 
HETATM   16  C   UNL     1      38.245 -13.339  -2.443  1.00  0.00     0.047 C 
HETATM   17  C   UNL     1      37.816 -11.480  -0.630  1.00  0.00     0.268 A 
HETATM   18  C   UNL     1      39.348 -14.406  -2.455  1.00  0.00     0.011 C 
HETATM   19  O   UNL     1      37.001 -10.847  -1.288  1.00  0.00    -0.267 OA
HETATM   20  N   UNL     1      38.200 -11.148   0.637  1.00  0.00    -0.152 N 
HETATM   21  H   UNL     1      37.778 -10.340   1.083  1.00  0.00     0.188 HD
ENDBRANCH   6  11
ENDBRANCH   1   5
BRANCH   2  22
HETATM   22  C   UNL     1      42.231 -14.559   4.451  1.00  0.00     0.034 A 
HETATM   23  C   UNL     1      42.390 -15.411   3.350  1.00  0.00     0.033 A 
HETATM   24  C   UNL     1      42.985 -16.673   3.498  1.00  0.00     0.049 A 
HETATM   25  C   UNL     1      43.428 -17.068   4.771  1.00  0.00     0.032 A 
HETATM   26  C   UNL     1      43.286 -16.223   5.885  1.00  0.00     0.049 A 
HETATM   27  C   UNL     1      42.692 -14.960   5.711  1.00  0.00     0.033 A 
BRANCH  24  28
HETATM   28  C   UNL     1      43.169 -17.594   2.314  1.00  0.00     0.417 C 
HETATM   29  F   UNL     1      44.224 -18.445   2.439  1.00  0.00    -0.166 F 
HETATM   30  F   UNL     1      42.076 -18.376   2.096  1.00  0.00    -0.166 F 
HETATM   31  F   UNL     1      43.376 -16.908   1.157  1.00  0.00    -0.166 F 
ENDBRANCH  24  28
BRANCH  26  32
HETATM   32  C   UNL     1      43.800 -16.633   7.247  1.00  0.00     0.417 C 
HETATM   33  F   UNL     1      43.238 -15.937   8.271  1.00  0.00    -0.166 F 
HETATM   34  F   UNL     1      43.572 -17.947   7.508  1.00  0.00    -0.166 F 
HETATM   35  F   UNL     1      45.146 -16.455   7.363  1.00  0.00    -0.166 F 
ENDBRANCH  26  32
ENDBRANCH   2  22
TORSDOF 5
ENDMDL
MODEL 8
REMARK VINA RESULT:      -9.1      4.808      8.246
REMARK  5 active torsions:
REMARK  status: ('A' for Active; 'I' for Inactive)
REMARK    1  A    between atoms: N_4  and  C_5 
REMARK    2  A    between atoms: C_15  and  N_16 
REMARK       I    between atoms: N_16  and  C_17 
REMARK    3  A    between atoms: C_17  and  C_18 
REMARK    4  A    between atoms: C_20  and  C_21 
REMARK    5  A    between atoms: C_26  and  C_27 
ROOT
HETATM    1  N   UNL     1      42.688 -12.287   2.886  1.00  0.00    -0.307 N 
HETATM    2  C   UNL     1      41.352 -12.331   2.518  1.00  0.00     0.257 C 
HETATM    3  O   UNL     1      40.403 -12.429   3.289  1.00  0.00    -0.267 OA
HETATM    4  H   UNL     1      43.378 -11.941   2.233  1.00  0.00     0.170 HD
ENDROOT
BRANCH   1   5
HETATM    5  C   UNL     1      43.059 -12.369   4.220  1.00  0.00     0.152 C 
HETATM    6  N   UNL     1      43.068 -13.507   5.023  1.00  0.00    -0.045 N 
HETATM    7  N   UNL     1      43.177 -13.163   6.354  1.00  0.00    -0.156 NA
HETATM    8  C   UNL     1      43.531 -11.874   6.329  1.00  0.00     0.055 C 
HETATM    9  C   UNL     1      43.838 -11.158   7.592  1.00  0.00     0.072 C 
HETATM   10  C   UNL     1      43.514 -11.345   5.020  1.00  0.00     0.079 C 
BRANCH   6  11
HETATM   11  C   UNL     1      43.191 -14.872   4.678  1.00  0.00     0.732 A 
HETATM   12  N   UNL     1      43.126 -15.335   3.464  1.00  0.00    -0.067 NA
HETATM   13  C   UNL     1      43.321 -16.683   3.366  1.00  0.00     0.065 A 
HETATM   14  C   UNL     1      43.576 -17.516   4.376  1.00  0.00     0.036 A 
HETATM   15  C   UNL     1      43.312 -17.405   2.061  1.00  0.00     0.061 C 
HETATM   16  C   UNL     1      43.777 -18.920   3.956  1.00  0.00     0.047 C 
HETATM   17  C   UNL     1      43.671 -16.981   5.731  1.00  0.00     0.268 A 
HETATM   18  C   UNL     1      43.326 -18.880   2.489  1.00  0.00     0.011 C 
HETATM   19  O   UNL     1      43.933 -17.681   6.700  1.00  0.00    -0.267 OA
HETATM   20  N   UNL     1      43.462 -15.633   5.796  1.00  0.00    -0.152 N 
HETATM   21  H   UNL     1      43.544 -15.166   6.693  1.00  0.00     0.188 HD
ENDBRANCH   6  11
ENDBRANCH   1   5
BRANCH   2  22
HETATM   22  C   UNL     1      41.065 -12.177   1.065  1.00  0.00     0.034 A 
HETATM   23  C   UNL     1      40.387 -13.219   0.416  1.00  0.00     0.033 A 
HETATM   24  C   UNL     1      40.054 -13.122  -0.943  1.00  0.00     0.049 A 
HETATM   25  C   UNL     1      40.405 -11.956  -1.645  1.00  0.00     0.032 A 
HETATM   26  C   UNL     1      41.076 -10.898  -1.010  1.00  0.00     0.049 A 
HETATM   27  C   UNL     1      41.394 -11.015   0.355  1.00  0.00     0.033 A 
BRANCH  24  28
HETATM   28  C   UNL     1      39.315 -14.235  -1.648  1.00  0.00     0.417 C 
HETATM   29  F   UNL     1      39.852 -14.577  -2.851  1.00  0.00    -0.166 F 
HETATM   30  F   UNL     1      39.282 -15.378  -0.910  1.00  0.00    -0.166 F 
HETATM   31  F   UNL     1      38.016 -13.912  -1.896  1.00  0.00    -0.166 F 
ENDBRANCH  24  28
BRANCH  26  32
HETATM   32  C   UNL     1      41.417  -9.628  -1.756  1.00  0.00     0.417 C 
HETATM   33  F   UNL     1      42.674  -9.173  -1.508  1.00  0.00    -0.166 F 
HETATM   34  F   UNL     1      41.326  -9.785  -3.104  1.00  0.00    -0.166 F 
HETATM   35  F   UNL     1      40.575  -8.604  -1.440  1.00  0.00    -0.166 F 
ENDBRANCH  26  32
ENDBRANCH   2  22
TORSDOF 5
ENDMDL
MODEL 9
REMARK VINA RESULT:      -9.0      3.362      5.634
REMARK  5 active torsions:
REMARK  status: ('A' for Active; 'I' for Inactive)
REMARK    1  A    between atoms: N_4  and  C_5 
REMARK    2  A    between atoms: C_15  and  N_16 
REMARK       I    between atoms: N_16  and  C_17 
REMARK    3  A    between atoms: C_17  and  C_18 
REMARK    4  A    between atoms: C_20  and  C_21 
REMARK    5  A    between atoms: C_26  and  C_27 
ROOT
HETATM    1  N   UNL     1      43.464 -13.033   5.145  1.00  0.00    -0.307 N 
HETATM    2  C   UNL     1      42.848 -14.236   5.456  1.00  0.00     0.257 C 
HETATM    3  O   UNL     1      42.483 -14.582   6.575  1.00  0.00    -0.267 OA
HETATM    4  H   UNL     1      43.488 -12.714   4.187  1.00  0.00     0.170 HD
ENDROOT
BRANCH   1   5
HETATM    5  C   UNL     1      43.732 -12.099   6.134  1.00  0.00     0.152 C 
HETATM    6  N   UNL     1      43.109 -10.866   6.320  1.00  0.00    -0.045 N 
HETATM    7  N   UNL     1      43.838 -10.077   7.183  1.00  0.00    -0.156 NA
HETATM    8  C   UNL     1      44.713 -10.923   7.738  1.00  0.00     0.055 C 
HETATM    9  C   UNL     1      45.627 -10.457   8.810  1.00  0.00     0.072 C 
HETATM   10  C   UNL     1      44.655 -12.205   7.150  1.00  0.00     0.079 C 
BRANCH   6  11
HETATM   11  C   UNL     1      41.820 -10.426   5.947  1.00  0.00     0.732 A 
HETATM   12  N   UNL     1      41.466 -10.122   4.731  1.00  0.00    -0.067 NA
HETATM   13  C   UNL     1      40.154  -9.766   4.601  1.00  0.00     0.065 A 
HETATM   14  C   UNL     1      39.249  -9.725   5.579  1.00  0.00     0.036 A 
HETATM   15  C   UNL     1      39.545  -9.407   3.287  1.00  0.00     0.061 C 
HETATM   16  C   UNL     1      37.896  -9.337   5.125  1.00  0.00     0.047 C 
HETATM   17  C   UNL     1      39.651 -10.093   6.934  1.00  0.00     0.268 A 
HETATM   18  C   UNL     1      38.167  -8.863   3.691  1.00  0.00     0.011 C 
HETATM   19  O   UNL     1      38.867 -10.108   7.874  1.00  0.00    -0.267 OA
HETATM   20  N   UNL     1      40.970 -10.433   7.034  1.00  0.00    -0.152 N 
HETATM   21  H   UNL     1      41.333 -10.738   7.930  1.00  0.00     0.188 HD
ENDBRANCH   6  11
ENDBRANCH   1   5
BRANCH   2  22
HETATM   22  C   UNL     1      42.555 -15.140   4.309  1.00  0.00     0.034 A 
HETATM   23  C   UNL     1      43.198 -16.385   4.274  1.00  0.00     0.033 A 
HETATM   24  C   UNL     1      42.940 -17.298   3.241  1.00  0.00     0.049 A 
HETATM   25  C   UNL     1      42.017 -16.947   2.241  1.00  0.00     0.032 A 
HETATM   26  C   UNL     1      41.356 -15.707   2.264  1.00  0.00     0.049 A 
HETATM   27  C   UNL     1      41.627 -14.810   3.314  1.00  0.00     0.033 A 
BRANCH  24  28
HETATM   28  C   UNL     1      43.620 -18.646   3.201  1.00  0.00     0.417 C 
HETATM   29  F   UNL     1      42.985 -19.560   2.418  1.00  0.00    -0.166 F 
HETATM   30  F   UNL     1      44.894 -18.565   2.729  1.00  0.00    -0.166 F 
HETATM   31  F   UNL     1      43.713 -19.211   4.436  1.00  0.00    -0.166 F 
ENDBRANCH  24  28
BRANCH  26  32
HETATM   32  C   UNL     1      40.334 -15.347   1.210  1.00  0.00     0.417 C 
HETATM   33  F   UNL     1      40.885 -14.952   0.032  1.00  0.00    -0.166 F 
HETATM   34  F   UNL     1      39.510 -16.388   0.917  1.00  0.00    -0.166 F 
HETATM   35  F   UNL     1      39.523 -14.327   1.608  1.00  0.00    -0.166 F 
ENDBRANCH  26  32
ENDBRANCH   2  22
TORSDOF 5
ENDMDL
MODEL 10
REMARK VINA RESULT:      -9.0      4.622      7.441
REMARK  5 active torsions:
REMARK  status: ('A' for Active; 'I' for Inactive)
REMARK    1  A    between atoms: N_4  and  C_5 
REMARK    2  A    between atoms: C_15  and  N_16 
REMARK       I    between atoms: N_16  and  C_17 
REMARK    3  A    between atoms: C_17  and  C_18 
REMARK    4  A    between atoms: C_20  and  C_21 
REMARK    5  A    between atoms: C_26  and  C_27 
ROOT
HETATM    1  N   UNL     1      42.290 -15.649   1.295  1.00  0.00    -0.307 N 
HETATM    2  C   UNL     1      40.965 -15.240   1.296  1.00  0.00     0.257 C 
HETATM    3  O   UNL     1      40.128 -15.535   2.144  1.00  0.00    -0.267 OA
HETATM    4  H   UNL     1      42.967 -15.158   0.728  1.00  0.00     0.170 HD
ENDROOT
BRANCH   1   5
HETATM    5  C   UNL     1      42.778 -16.472   2.299  1.00  0.00     0.152 C 
HETATM    6  N   UNL     1      43.376 -16.078   3.494  1.00  0.00    -0.045 N 
HETATM    7  N   UNL     1      44.021 -17.141   4.089  1.00  0.00    -0.156 NA
HETATM    8  C   UNL     1      43.567 -18.210   3.427  1.00  0.00     0.055 C 
HETATM    9  C   UNL     1      43.968 -19.576   3.847  1.00  0.00     0.072 C 
HETATM   10  C   UNL     1      42.754 -17.848   2.331  1.00  0.00     0.079 C 
BRANCH   6  11
HETATM   11  C   UNL     1      43.241 -14.883   4.236  1.00  0.00     0.732 A 
HETATM   12  N   UNL     1      42.973 -13.719   3.719  1.00  0.00    -0.067 NA
HETATM   13  C   UNL     1      42.842 -12.715   4.635  1.00  0.00     0.065 A 
HETATM   14  C   UNL     1      42.950 -12.839   5.959  1.00  0.00     0.036 A 
HETATM   15  C   UNL     1      42.509 -11.313   4.250  1.00  0.00     0.061 C 
HETATM   16  C   UNL     1      42.721 -11.578   6.697  1.00  0.00     0.047 C 
HETATM   17  C   UNL     1      43.227 -14.155   6.529  1.00  0.00     0.268 A 
HETATM   18  C   UNL     1      42.714 -10.543   5.563  1.00  0.00     0.011 C 
HETATM   19  O   UNL     1      43.308 -14.347   7.735  1.00  0.00    -0.267 OA
HETATM   20  N   UNL     1      43.362 -15.134   5.587  1.00  0.00    -0.152 N 
HETATM   21  H   UNL     1      43.521 -16.089   5.890  1.00  0.00     0.188 HD
ENDBRANCH   6  11
ENDBRANCH   1   5
BRANCH   2  22
HETATM   22  C   UNL     1      40.563 -14.312   0.203  1.00  0.00     0.034 A 
HETATM   23  C   UNL     1      39.692 -14.797  -0.782  1.00  0.00     0.033 A 
HETATM   24  C   UNL     1      39.246 -13.964  -1.819  1.00  0.00     0.049 A 
HETATM   25  C   UNL     1      39.681 -12.628  -1.850  1.00  0.00     0.032 A 
HETATM   26  C   UNL     1      40.546 -12.122  -0.866  1.00  0.00     0.049 A 
HETATM   27  C   UNL     1      40.975 -12.974   0.168  1.00  0.00     0.033 A 
BRANCH  24  28
HETATM   28  C   UNL     1      38.300 -14.475  -2.880  1.00  0.00     0.417 C 
HETATM   29  F   UNL     1      37.062 -13.912  -2.831  1.00  0.00    -0.166 F 
HETATM   30  F   UNL     1      38.768 -14.250  -4.138  1.00  0.00    -0.166 F 
HETATM   31  F   UNL     1      38.104 -15.819  -2.789  1.00  0.00    -0.166 F 
ENDBRANCH  24  28
BRANCH  26  32
HETATM   32  C   UNL     1      40.981 -10.674  -0.878  1.00  0.00     0.417 C 
HETATM   33  F   UNL     1      41.635 -10.313  -2.013  1.00  0.00    -0.166 F 
HETATM   34  F   UNL     1      39.929  -9.821  -0.755  1.00  0.00    -0.166 F 
HETATM   35  F   UNL     1      41.823 -10.381   0.152  1.00  0.00    -0.166 F 
ENDBRANCH  26  32
ENDBRANCH   2  22
TORSDOF 5
ENDMDL
