MODEL 1
REMARK VINA RESULT:      -7.1      0.000      0.000
REMARK  3 active torsions:
REMARK  status: ('A' for Active; 'I' for Inactive)
REMARK    1  A    between atoms: O_2  and  C_3 
REMARK    2  A    between atoms: C_4  and  C_5 
REMARK    3  A    between atoms: C_16  and  N_17 
ROOT
HETATM    1  C   UNL     1      43.084 -13.785   5.734  1.00  0.00     0.246 A 
HETATM    2  N   UNL     1      42.228 -14.687   4.994  1.00  0.00    -0.151 N 
HETATM    3  C   UNL     1      41.763 -15.844   5.565  1.00  0.00     0.734 A 
HETATM    4  N   UNL     1      41.030 -16.501   4.692  1.00  0.00    -0.060 NA
HETATM    5  C   UNL     1      41.059 -15.768   3.532  1.00  0.00     0.103 A 
HETATM    6  C   UNL     1      41.825 -14.618   3.688  1.00  0.00     0.083 A 
HETATM    7  C   UNL     1      40.453 -16.030   2.294  1.00  0.00     0.034 A 
HETATM    8  C   UNL     1      40.643 -15.120   1.248  1.00  0.00     0.002 A 
HETATM    9  C   UNL     1      41.419 -13.973   1.430  1.00  0.00     0.002 A 
HETATM   10  C   UNL     1      42.031 -13.693   2.658  1.00  0.00     0.033 A 
HETATM   11  N   UNL     1      42.059 -16.205   6.835  1.00  0.00    -0.033 NA
HETATM   12  C   UNL     1      42.878 -15.483   7.510  1.00  0.00     0.193 A 
HETATM   13  N   UNL     1      43.473 -14.309   7.041  1.00  0.00    -0.338 N 
HETATM   14  H   UNL     1      44.060 -13.736   7.628  1.00  0.00     0.164 HD
ENDROOT
BRANCH   1  15
HETATM   15  C   UNL     1      42.476 -12.410   5.970  1.00  0.00     0.020 A 
HETATM   16  C   UNL     1      43.332 -11.327   6.265  1.00  0.00     0.078 A 
HETATM   17  C   UNL     1      42.801 -10.059   6.524  1.00  0.00     0.039 A 
HETATM   18  C   UNL     1      41.420  -9.852   6.484  1.00  0.00     0.022 A 
HETATM   19  C   UNL     1      40.570 -10.914   6.204  1.00  0.00     0.011 A 
HETATM   20  C   UNL     1      41.084 -12.188   5.963  1.00  0.00     0.033 A 
HETATM   21 BR   UNL     1      38.701 -10.633   6.157  1.00  0.00    -0.051 Br
BRANCH  16  22
HETATM   22  O   UNL     1      44.669 -11.629   6.322  1.00  0.00    -0.355 OA
HETATM   23  C   UNL     1      45.389 -11.141   7.453  1.00  0.00     0.210 C 
ENDBRANCH  16  22
ENDBRANCH   1  15
BRANCH  12  24
HETATM   24  N   UNL     1      43.252 -15.784   8.771  1.00  0.00    -0.272 NA
HETATM   25  H   UNL     1      42.550 -16.360   9.230  1.00  0.00     0.127 HD
HETATM   26  H   UNL     1      44.177 -16.177   8.885  1.00  0.00     0.127 HD
ENDBRANCH  12  24
TORSDOF 3
ENDMDL
MODEL 2
REMARK VINA RESULT:      -7.0      2.861      4.402
REMARK  3 active torsions:
REMARK  status: ('A' for Active; 'I' for Inactive)
REMARK    1  A    between atoms: O_2  and  C_3 
REMARK    2  A    between atoms: C_4  and  C_5 
REMARK    3  A    between atoms: C_16  and  N_17 
ROOT
HETATM    1  C   UNL     1      41.236 -14.365   4.588  1.00  0.00     0.246 A 
HETATM    2  N   UNL     1      41.620 -15.481   3.751  1.00  0.00    -0.151 N 
HETATM    3  C   UNL     1      40.943 -15.757   2.591  1.00  0.00     0.734 A 
HETATM    4  N   UNL     1      41.461 -16.825   2.024  1.00  0.00    -0.060 NA
HETATM    5  C   UNL     1      42.462 -17.260   2.856  1.00  0.00     0.103 A 
HETATM    6  C   UNL     1      42.576 -16.436   3.971  1.00  0.00     0.083 A 
HETATM    7  C   UNL     1      43.316 -18.364   2.726  1.00  0.00     0.034 A 
HETATM    8  C   UNL     1      44.263 -18.603   3.729  1.00  0.00     0.002 A 
HETATM    9  C   UNL     1      44.356 -17.761   4.840  1.00  0.00     0.002 A 
HETATM   10  C   UNL     1      43.512 -16.653   4.988  1.00  0.00     0.033 A 
HETATM   11  N   UNL     1      39.902 -15.012   2.155  1.00  0.00    -0.033 NA
HETATM   12  C   UNL     1      39.467 -14.058   2.898  1.00  0.00     0.193 A 
HETATM   13  N   UNL     1      40.021 -13.697   4.128  1.00  0.00    -0.338 N 
HETATM   14  H   UNL     1      39.690 -12.899   4.649  1.00  0.00     0.164 HD
ENDROOT
BRANCH   1  15
HETATM   15  C   UNL     1      42.309 -13.292   4.718  1.00  0.00     0.020 A 
HETATM   16  C   UNL     1      42.788 -12.660   3.550  1.00  0.00     0.078 A 
HETATM   17  C   UNL     1      43.799 -11.698   3.635  1.00  0.00     0.039 A 
HETATM   18  C   UNL     1      44.336 -11.346   4.875  1.00  0.00     0.022 A 
HETATM   19  C   UNL     1      43.877 -11.969   6.029  1.00  0.00     0.011 A 
HETATM   20  C   UNL     1      42.884 -12.946   5.958  1.00  0.00     0.033 A 
HETATM   21 BR   UNL     1      44.610 -11.498   7.705  1.00  0.00    -0.051 Br
BRANCH  16  22
HETATM   22  O   UNL     1      42.232 -13.094   2.373  1.00  0.00    -0.355 OA
HETATM   23  C   UNL     1      41.861 -12.089   1.431  1.00  0.00     0.210 C 
ENDBRANCH  16  22
ENDBRANCH   1  15
BRANCH  12  24
HETATM   24  N   UNL     1      38.416 -13.285   2.556  1.00  0.00    -0.272 NA
HETATM   25  H   UNL     1      38.722 -12.464   2.039  1.00  0.00     0.127 HD
HETATM   26  H   UNL     1      37.650 -13.749   2.084  1.00  0.00     0.127 HD
ENDBRANCH  12  24
TORSDOF 3
ENDMDL
MODEL 3
REMARK VINA RESULT:      -7.0      4.381      6.308
REMARK  3 active torsions:
REMARK  status: ('A' for Active; 'I' for Inactive)
REMARK    1  A    between atoms: O_2  and  C_3 
REMARK    2  A    between atoms: C_4  and  C_5 
REMARK    3  A    between atoms: C_16  and  N_17 
ROOT
HETATM    1  C   UNL     1      41.063 -12.126   1.510  1.00  0.00     0.246 A 
HETATM    2  N   UNL     1      40.970 -13.372   2.240  1.00  0.00    -0.151 N 
HETATM    3  C   UNL     1      40.003 -13.557   3.195  1.00  0.00     0.734 A 
HETATM    4  N   UNL     1      40.138 -14.751   3.729  1.00  0.00    -0.060 NA
HETATM    5  C   UNL     1      41.233 -15.324   3.132  1.00  0.00     0.103 A 
HETATM    6  C   UNL     1      41.793 -14.465   2.192  1.00  0.00     0.083 A 
HETATM    7  C   UNL     1      41.815 -16.581   3.348  1.00  0.00     0.034 A 
HETATM    8  C   UNL     1      42.949 -16.933   2.607  1.00  0.00     0.002 A 
HETATM    9  C   UNL     1      43.493 -16.051   1.671  1.00  0.00     0.002 A 
HETATM   10  C   UNL     1      42.927 -14.791   1.439  1.00  0.00     0.033 A 
HETATM   11  N   UNL     1      39.086 -12.612   3.502  1.00  0.00    -0.033 NA
HETATM   12  C   UNL     1      39.171 -11.459   2.943  1.00  0.00     0.193 A 
HETATM   13  N   UNL     1      40.134 -11.108   1.994  1.00  0.00    -0.338 N 
HETATM   14  H   UNL     1      40.125 -10.213   1.530  1.00  0.00     0.164 HD
ENDROOT
BRANCH   1  15
HETATM   15  C   UNL     1      40.826 -12.267   0.013  1.00  0.00     0.020 A 
HETATM   16  C   UNL     1      41.330 -11.274  -0.855  1.00  0.00     0.078 A 
HETATM   17  C   UNL     1      41.096 -11.356  -2.231  1.00  0.00     0.039 A 
HETATM   18  C   UNL     1      40.371 -12.426  -2.760  1.00  0.00     0.022 A 
HETATM   19  C   UNL     1      39.863 -13.403  -1.913  1.00  0.00     0.011 A 
HETATM   20  C   UNL     1      40.071 -13.324  -0.536  1.00  0.00     0.033 A 
HETATM   21 BR   UNL     1      38.876 -14.846  -2.630  1.00  0.00    -0.051 Br
BRANCH  16  22
HETATM   22  O   UNL     1      41.996 -10.241  -0.246  1.00  0.00    -0.355 OA
HETATM   23  C   UNL     1      42.019  -8.995  -0.941  1.00  0.00     0.210 C 
ENDBRANCH  16  22
ENDBRANCH   1  15
BRANCH  12  24
HETATM   24  N   UNL     1      38.317 -10.450   3.213  1.00  0.00    -0.272 NA
HETATM   25  H   UNL     1      38.318  -9.763   2.461  1.00  0.00     0.127 HD
HETATM   26  H   UNL     1      37.374 -10.713   3.465  1.00  0.00     0.127 HD
ENDBRANCH  12  24
TORSDOF 3
ENDMDL
MODEL 4
REMARK VINA RESULT:      -6.9     16.647     18.787
REMARK  3 active torsions:
REMARK  status: ('A' for Active; 'I' for Inactive)
REMARK    1  A    between atoms: O_2  and  C_3 
REMARK    2  A    between atoms: C_4  and  C_5 
REMARK    3  A    between atoms: C_16  and  N_17 
ROOT
HETATM    1  C   UNL     1      46.230 -29.099  -0.241  1.00  0.00     0.246 A 
HETATM    2  N   UNL     1      47.464 -29.633   0.291  1.00  0.00    -0.151 N 
HETATM    3  C   UNL     1      47.622 -29.833   1.639  1.00  0.00     0.734 A 
HETATM    4  N   UNL     1      48.829 -30.300   1.875  1.00  0.00    -0.060 NA
HETATM    5  C   UNL     1      49.466 -30.363   0.661  1.00  0.00     0.103 A 
HETATM    6  C   UNL     1      48.630 -29.930  -0.363  1.00  0.00     0.083 A 
HETATM    7  C   UNL     1      50.771 -30.776   0.356  1.00  0.00     0.034 A 
HETATM    8  C   UNL     1      51.192 -30.739  -0.978  1.00  0.00     0.002 A 
HETATM    9  C   UNL     1      50.334 -30.299  -1.987  1.00  0.00     0.002 A 
HETATM   10  C   UNL     1      49.027 -29.882  -1.704  1.00  0.00     0.033 A 
HETATM   11  N   UNL     1      46.649 -29.562   2.538  1.00  0.00    -0.033 NA
HETATM   12  C   UNL     1      45.563 -29.012   2.131  1.00  0.00     0.193 A 
HETATM   13  N   UNL     1      45.284 -28.700   0.798  1.00  0.00    -0.338 N 
HETATM   14  H   UNL     1      44.391 -28.329   0.512  1.00  0.00     0.164 HD
ENDROOT
BRANCH   1  15
HETATM   15  C   UNL     1      45.492 -30.055  -1.168  1.00  0.00     0.020 A 
HETATM   16  C   UNL     1      45.379 -29.727  -2.537  1.00  0.00     0.078 A 
HETATM   17  C   UNL     1      44.675 -30.567  -3.406  1.00  0.00     0.039 A 
HETATM   18  C   UNL     1      44.086 -31.741  -2.930  1.00  0.00     0.022 A 
HETATM   19  C   UNL     1      44.185 -32.067  -1.583  1.00  0.00     0.011 A 
HETATM   20  C   UNL     1      44.866 -31.229  -0.700  1.00  0.00     0.033 A 
HETATM   21 BR   UNL     1      43.382 -33.652  -0.940  1.00  0.00    -0.051 Br
BRANCH  16  22
HETATM   22  O   UNL     1      45.952 -28.539  -2.909  1.00  0.00    -0.355 OA
HETATM   23  C   UNL     1      45.198 -27.712  -3.795  1.00  0.00     0.210 C 
ENDBRANCH  16  22
ENDBRANCH   1  15
BRANCH  12  24
HETATM   24  N   UNL     1      44.553 -28.680   2.963  1.00  0.00    -0.272 NA
HETATM   25  H   UNL     1      44.617 -27.703   3.239  1.00  0.00     0.127 HD
HETATM   26  H   UNL     1      43.619 -28.911   2.651  1.00  0.00     0.127 HD
ENDBRANCH  12  24
TORSDOF 3
ENDMDL
MODEL 5
REMARK VINA RESULT:      -6.8      2.748      4.648
REMARK  3 active torsions:
REMARK  status: ('A' for Active; 'I' for Inactive)
REMARK    1  A    between atoms: O_2  and  C_3 
REMARK    2  A    between atoms: C_4  and  C_5 
REMARK    3  A    between atoms: C_16  and  N_17 
ROOT
HETATM    1  C   UNL     1      41.300 -13.933   3.925  1.00  0.00     0.246 A 
HETATM    2  N   UNL     1      42.177 -15.083   3.871  1.00  0.00    -0.151 N 
HETATM    3  C   UNL     1      42.728 -15.492   2.684  1.00  0.00     0.734 A 
HETATM    4  N   UNL     1      43.464 -16.564   2.889  1.00  0.00    -0.060 NA
HETATM    5  C   UNL     1      43.349 -16.865   4.223  1.00  0.00     0.103 A 
HETATM    6  C   UNL     1      42.524 -15.951   4.870  1.00  0.00     0.083 A 
HETATM    7  C   UNL     1      43.920 -17.917   4.954  1.00  0.00     0.034 A 
HETATM    8  C   UNL     1      43.638 -18.013   6.322  1.00  0.00     0.002 A 
HETATM    9  C   UNL     1      42.805 -17.084   6.949  1.00  0.00     0.002 A 
HETATM   10  C   UNL     1      42.226 -16.027   6.236  1.00  0.00     0.033 A 
HETATM   11  N   UNL     1      42.504 -14.855   1.513  1.00  0.00    -0.033 NA
HETATM   12  C   UNL     1      41.670 -13.878   1.488  1.00  0.00     0.193 A 
HETATM   13  N   UNL     1      40.992 -13.386   2.606  1.00  0.00    -0.338 N 
HETATM   14  H   UNL     1      40.397 -12.574   2.554  1.00  0.00     0.164 HD
ENDROOT
BRANCH   1  15
HETATM   15  C   UNL     1      41.837 -12.785   4.767  1.00  0.00     0.020 A 
HETATM   16  C   UNL     1      40.941 -11.789   5.214  1.00  0.00     0.078 A 
HETATM   17  C   UNL     1      41.410 -10.702   5.958  1.00  0.00     0.039 A 
HETATM   18  C   UNL     1      42.767 -10.596   6.273  1.00  0.00     0.022 A 
HETATM   19  C   UNL     1      43.657 -11.566   5.830  1.00  0.00     0.011 A 
HETATM   20  C   UNL     1      43.207 -12.646   5.070  1.00  0.00     0.033 A 
HETATM   21 BR   UNL     1      45.493 -11.418   6.251  1.00  0.00    -0.051 Br
BRANCH  16  22
HETATM   22  O   UNL     1      39.635 -11.952   4.827  1.00  0.00    -0.355 OA
HETATM   23  C   UNL     1      38.985 -10.811   4.268  1.00  0.00     0.210 C 
ENDBRANCH  16  22
ENDBRANCH   1  15
BRANCH  12  24
HETATM   24  N   UNL     1      41.364 -13.206   0.359  1.00  0.00    -0.272 NA
HETATM   25  H   UNL     1      42.082 -13.339  -0.350  1.00  0.00     0.127 HD
HETATM   26  H   UNL     1      40.440 -13.365  -0.023  1.00  0.00     0.127 HD
ENDBRANCH  12  24
TORSDOF 3
ENDMDL
MODEL 6
REMARK VINA RESULT:      -6.8      6.591      9.672
REMARK  3 active torsions:
REMARK  status: ('A' for Active; 'I' for Inactive)
REMARK    1  A    between atoms: O_2  and  C_3 
REMARK    2  A    between atoms: C_4  and  C_5 
REMARK    3  A    between atoms: C_16  and  N_17 
ROOT
HETATM    1  C   UNL     1      40.067  -8.943  11.256  1.00  0.00     0.246 A 
HETATM    2  N   UNL     1      40.504  -8.142  12.377  1.00  0.00    -0.151 N 
HETATM    3  C   UNL     1      40.515  -8.656  13.649  1.00  0.00     0.734 A 
HETATM    4  N   UNL     1      40.928  -7.734  14.492  1.00  0.00    -0.060 NA
HETATM    5  C   UNL     1      41.149  -6.600  13.750  1.00  0.00     0.103 A 
HETATM    6  C   UNL     1      40.873  -6.823  12.405  1.00  0.00     0.083 A 
HETATM    7  C   UNL     1      41.582  -5.332  14.163  1.00  0.00     0.034 A 
HETATM    8  C   UNL     1      41.724  -4.325  13.202  1.00  0.00     0.002 A 
HETATM    9  C   UNL     1      41.438  -4.574  11.857  1.00  0.00     0.002 A 
HETATM   10  C   UNL     1      41.004  -5.833  11.425  1.00  0.00     0.033 A 
HETATM   11  N   UNL     1      40.136  -9.923  13.930  1.00  0.00    -0.033 NA
HETATM   12  C   UNL     1      39.662 -10.653  12.985  1.00  0.00     0.193 A 
HETATM   13  N   UNL     1      39.541 -10.247  11.654  1.00  0.00    -0.338 N 
HETATM   14  H   UNL     1      39.225 -10.874  10.931  1.00  0.00     0.164 HD
ENDROOT
BRANCH   1  15
HETATM   15  C   UNL     1      41.151  -9.201  10.219  1.00  0.00     0.020 A 
HETATM   16  C   UNL     1      40.796  -9.233   8.853  1.00  0.00     0.078 A 
HETATM   17  C   UNL     1      41.763  -9.505   7.880  1.00  0.00     0.039 A 
HETATM   18  C   UNL     1      43.089  -9.737   8.250  1.00  0.00     0.022 A 
HETATM   19  C   UNL     1      43.446  -9.716   9.592  1.00  0.00     0.011 A 
HETATM   20  C   UNL     1      42.489  -9.467  10.576  1.00  0.00     0.033 A 
HETATM   21 BR   UNL     1      45.241 -10.037  10.092  1.00  0.00    -0.051 Br
BRANCH  16  22
HETATM   22  O   UNL     1      39.466  -9.033   8.583  1.00  0.00    -0.355 OA
HETATM   23  C   UNL     1      39.136  -7.894   7.790  1.00  0.00     0.210 C 
ENDBRANCH  16  22
ENDBRANCH   1  15
BRANCH  12  24
HETATM   24  N   UNL     1      39.233 -11.917  13.182  1.00  0.00    -0.272 NA
HETATM   25  H   UNL     1      38.560 -11.957  13.944  1.00  0.00     0.127 HD
HETATM   26  H   UNL     1      38.890 -12.408  12.366  1.00  0.00     0.127 HD
ENDBRANCH  12  24
TORSDOF 3
ENDMDL
MODEL 7
REMARK VINA RESULT:      -6.5      3.097      6.248
REMARK  3 active torsions:
REMARK  status: ('A' for Active; 'I' for Inactive)
REMARK    1  A    between atoms: O_2  and  C_3 
REMARK    2  A    between atoms: C_4  and  C_5 
REMARK    3  A    between atoms: C_16  and  N_17 
ROOT
HETATM    1  C   UNL     1      42.427 -11.642   4.585  1.00  0.00     0.246 A 
HETATM    2  N   UNL     1      42.686 -11.004   5.857  1.00  0.00    -0.151 N 
HETATM    3  C   UNL     1      41.682 -10.370   6.544  1.00  0.00     0.734 A 
HETATM    4  N   UNL     1      42.167  -9.852   7.652  1.00  0.00    -0.060 NA
HETATM    5  C   UNL     1      43.512 -10.127   7.653  1.00  0.00     0.103 A 
HETATM    6  C   UNL     1      43.874 -10.844   6.517  1.00  0.00     0.083 A 
HETATM    7  C   UNL     1      44.493  -9.788   8.595  1.00  0.00     0.034 A 
HETATM    8  C   UNL     1      45.815 -10.183   8.360  1.00  0.00     0.002 A 
HETATM    9  C   UNL     1      46.154 -10.901   7.211  1.00  0.00     0.002 A 
HETATM   10  C   UNL     1      45.188 -11.250   6.258  1.00  0.00     0.033 A 
HETATM   11  N   UNL     1      40.408 -10.312   6.093  1.00  0.00    -0.033 NA
HETATM   12  C   UNL     1      40.138 -10.792   4.933  1.00  0.00     0.193 A 
HETATM   13  N   UNL     1      41.068 -11.416   4.098  1.00  0.00    -0.338 N 
HETATM   14  H   UNL     1      40.800 -11.838   3.222  1.00  0.00     0.164 HD
ENDROOT
BRANCH   1  15
HETATM   15  C   UNL     1      42.650 -13.148   4.592  1.00  0.00     0.020 A 
HETATM   16  C   UNL     1      42.763 -13.826   3.359  1.00  0.00     0.078 A 
HETATM   17  C   UNL     1      42.932 -15.215   3.332  1.00  0.00     0.039 A 
HETATM   18  C   UNL     1      43.000 -15.939   4.524  1.00  0.00     0.022 A 
HETATM   19  C   UNL     1      42.881 -15.281   5.741  1.00  0.00     0.011 A 
HETATM   20  C   UNL     1      42.692 -13.900   5.783  1.00  0.00     0.033 A 
HETATM   21 BR   UNL     1      42.967 -16.265   7.353  1.00  0.00    -0.051 Br
BRANCH  16  22
HETATM   22  O   UNL     1      42.646 -13.042   2.240  1.00  0.00    -0.355 OA
HETATM   23  C   UNL     1      41.685 -13.451   1.268  1.00  0.00     0.210 C 
ENDBRANCH  16  22
ENDBRANCH   1  15
BRANCH  12  24
HETATM   24  N   UNL     1      38.903 -10.750   4.392  1.00  0.00    -0.272 NA
HETATM   25  H   UNL     1      38.188 -10.807   5.115  1.00  0.00     0.127 HD
HETATM   26  H   UNL     1      38.716  -9.988   3.754  1.00  0.00     0.127 HD
ENDBRANCH  12  24
TORSDOF 3
ENDMDL
MODEL 8
REMARK VINA RESULT:      -6.5      7.080      9.722
REMARK  3 active torsions:
REMARK  status: ('A' for Active; 'I' for Inactive)
REMARK    1  A    between atoms: O_2  and  C_3 
REMARK    2  A    between atoms: C_4  and  C_5 
REMARK    3  A    between atoms: C_16  and  N_17 
ROOT
HETATM    1  C   UNL     1      37.510 -12.486  -2.264  1.00  0.00     0.246 A 
HETATM    2  N   UNL     1      38.514 -12.964  -1.339  1.00  0.00    -0.151 N 
HETATM    3  C   UNL     1      39.253 -14.084  -1.620  1.00  0.00     0.734 A 
HETATM    4  N   UNL     1      40.077 -14.327  -0.623  1.00  0.00    -0.060 NA
HETATM    5  C   UNL     1      39.832 -13.367   0.327  1.00  0.00     0.103 A 
HETATM    6  C   UNL     1      38.833 -12.495  -0.093  1.00  0.00     0.083 A 
HETATM    7  C   UNL     1      40.426 -13.180   1.583  1.00  0.00     0.034 A 
HETATM    8  C   UNL     1      39.989 -12.115   2.380  1.00  0.00     0.002 A 
HETATM    9  C   UNL     1      38.982 -11.255   1.937  1.00  0.00     0.002 A 
HETATM   10  C   UNL     1      38.377 -11.425   0.685  1.00  0.00     0.033 A 
HETATM   11  N   UNL     1      39.104 -14.794  -2.760  1.00  0.00    -0.033 NA
HETATM   12  C   UNL     1      38.172 -14.463  -3.580  1.00  0.00     0.193 A 
HETATM   13  N   UNL     1      37.308 -13.381  -3.402  1.00  0.00    -0.338 N 
HETATM   14  H   UNL     1      36.633 -13.115  -4.102  1.00  0.00     0.164 HD
ENDROOT
BRANCH   1  15
HETATM   15  C   UNL     1      37.800 -11.104  -2.834  1.00  0.00     0.020 A 
HETATM   16  C   UNL     1      36.717 -10.268  -3.180  1.00  0.00     0.078 A 
HETATM   17  C   UNL     1      36.952  -9.008  -3.740  1.00  0.00     0.039 A 
HETATM   18  C   UNL     1      38.258  -8.563  -3.952  1.00  0.00     0.022 A 
HETATM   19  C   UNL     1      39.330  -9.383  -3.622  1.00  0.00     0.011 A 
HETATM   20  C   UNL     1      39.111 -10.650  -3.082  1.00  0.00     0.033 A 
HETATM   21 BR   UNL     1      41.098  -8.782  -3.916  1.00  0.00    -0.051 Br
BRANCH  16  22
HETATM   22  O   UNL     1      35.470 -10.800  -2.975  1.00  0.00    -0.355 OA
HETATM   23  C   UNL     1      34.621 -10.907  -4.117  1.00  0.00     0.210 C 
ENDBRANCH  16  22
ENDBRANCH   1  15
BRANCH  12  24
HETATM   24  N   UNL     1      37.933 -15.134  -4.726  1.00  0.00    -0.272 NA
HETATM   25  H   UNL     1      38.149 -14.557  -5.536  1.00  0.00     0.127 HD
HETATM   26  H   UNL     1      38.354 -16.050  -4.808  1.00  0.00     0.127 HD
ENDBRANCH  12  24
TORSDOF 3
ENDMDL
MODEL 9
REMARK VINA RESULT:      -6.4      2.602      3.617
REMARK  3 active torsions:
REMARK  status: ('A' for Active; 'I' for Inactive)
REMARK    1  A    between atoms: O_2  and  C_3 
REMARK    2  A    between atoms: C_4  and  C_5 
REMARK    3  A    between atoms: C_16  and  N_17 
ROOT
HETATM    1  C   UNL     1      43.200 -13.315   4.467  1.00  0.00     0.246 A 
HETATM    2  N   UNL     1      43.333 -14.732   4.724  1.00  0.00    -0.151 N 
HETATM    3  C   UNL     1      43.578 -15.198   5.990  1.00  0.00     0.734 A 
HETATM    4  N   UNL     1      43.680 -16.509   5.963  1.00  0.00    -0.060 NA
HETATM    5  C   UNL     1      43.534 -16.883   4.651  1.00  0.00     0.103 A 
HETATM    6  C   UNL     1      43.328 -15.775   3.837  1.00  0.00     0.083 A 
HETATM    7  C   UNL     1      43.573 -18.162   4.076  1.00  0.00     0.034 A 
HETATM    8  C   UNL     1      43.402 -18.281   2.692  1.00  0.00     0.002 A 
HETATM    9  C   UNL     1      43.199 -17.152   1.896  1.00  0.00     0.002 A 
HETATM   10  C   UNL     1      43.157 -15.866   2.451  1.00  0.00     0.033 A 
HETATM   11  N   UNL     1      43.698 -14.381   7.061  1.00  0.00    -0.033 NA
HETATM   12  C   UNL     1      43.669 -13.110   6.879  1.00  0.00     0.193 A 
HETATM   13  N   UNL     1      43.482 -12.491   5.641  1.00  0.00    -0.338 N 
HETATM   14  H   UNL     1      43.399 -11.491   5.551  1.00  0.00     0.164 HD
ENDROOT
BRANCH   1  15
HETATM   15  C   UNL     1      41.825 -12.904   3.958  1.00  0.00     0.020 A 
HETATM   16  C   UNL     1      40.705 -13.085   4.798  1.00  0.00     0.078 A 
HETATM   17  C   UNL     1      39.424 -12.752   4.345  1.00  0.00     0.039 A 
HETATM   18  C   UNL     1      39.244 -12.229   3.062  1.00  0.00     0.022 A 
HETATM   19  C   UNL     1      40.340 -12.057   2.226  1.00  0.00     0.011 A 
HETATM   20  C   UNL     1      41.620 -12.404   2.656  1.00  0.00     0.033 A 
HETATM   21 BR   UNL     1      40.093 -11.357   0.488  1.00  0.00    -0.051 Br
BRANCH  16  22
HETATM   22  O   UNL     1      40.968 -13.639   6.025  1.00  0.00    -0.355 OA
HETATM   23  C   UNL     1      40.190 -14.775   6.396  1.00  0.00     0.210 C 
ENDBRANCH  16  22
ENDBRANCH   1  15
BRANCH  12  24
HETATM   24  N   UNL     1      43.811 -12.223   7.885  1.00  0.00    -0.272 NA
HETATM   25  H   UNL     1      42.919 -12.044   8.340  1.00  0.00     0.127 HD
HETATM   26  H   UNL     1      44.533 -12.424   8.565  1.00  0.00     0.127 HD
ENDBRANCH  12  24
TORSDOF 3
ENDMDL
MODEL 10
REMARK VINA RESULT:      -6.4     17.242     19.545
REMARK  3 active torsions:
REMARK  status: ('A' for Active; 'I' for Inactive)
REMARK    1  A    between atoms: O_2  and  C_3 
REMARK    2  A    between atoms: C_4  and  C_5 
REMARK    3  A    between atoms: C_16  and  N_17 
ROOT
HETATM    1  C   UNL     1      48.640 -29.326  -1.252  1.00  0.00     0.246 A 
HETATM    2  N   UNL     1      48.186 -29.082   0.099  1.00  0.00    -0.151 N 
HETATM    3  C   UNL     1      47.003 -28.431   0.338  1.00  0.00     0.734 A 
HETATM    4  N   UNL     1      46.823 -28.310   1.635  1.00  0.00    -0.060 NA
HETATM    5  C   UNL     1      47.928 -28.860   2.234  1.00  0.00     0.103 A 
HETATM    6  C   UNL     1      48.820 -29.344   1.284  1.00  0.00     0.083 A 
HETATM    7  C   UNL     1      48.243 -28.975   3.596  1.00  0.00     0.034 A 
HETATM    8  C   UNL     1      49.454 -29.577   3.957  1.00  0.00     0.002 A 
HETATM    9  C   UNL     1      50.334 -30.054   2.983  1.00  0.00     0.002 A 
HETATM   10  C   UNL     1      50.038 -29.949   1.618  1.00  0.00     0.033 A 
HETATM   11  N   UNL     1      46.194 -27.995  -0.654  1.00  0.00    -0.033 NA
HETATM   12  C   UNL     1      46.585 -28.113  -1.871  1.00  0.00     0.193 A 
HETATM   13  N   UNL     1      47.788 -28.704  -2.263  1.00  0.00    -0.338 N 
HETATM   14  H   UNL     1      48.027 -28.836  -3.234  1.00  0.00     0.164 HD
ENDROOT
BRANCH   1  15
HETATM   15  C   UNL     1      48.748 -30.802  -1.611  1.00  0.00     0.020 A 
HETATM   16  C   UNL     1      50.018 -31.340  -1.912  1.00  0.00     0.078 A 
HETATM   17  C   UNL     1      50.144 -32.683  -2.281  1.00  0.00     0.039 A 
HETATM   18  C   UNL     1      49.018 -33.505  -2.347  1.00  0.00     0.022 A 
HETATM   19  C   UNL     1      47.762 -32.982  -2.062  1.00  0.00     0.011 A 
HETATM   20  C   UNL     1      47.618 -31.639  -1.712  1.00  0.00     0.033 A 
HETATM   21 BR   UNL     1      46.238 -34.094  -2.158  1.00  0.00    -0.051 Br
BRANCH  16  22
HETATM   22  O   UNL     1      51.063 -30.453  -1.860  1.00  0.00    -0.355 OA
HETATM   23  C   UNL     1      52.277 -30.854  -2.495  1.00  0.00     0.210 C 
ENDBRANCH  16  22
ENDBRANCH   1  15
BRANCH  12  24
HETATM   24  N   UNL     1      45.856 -27.678  -2.920  1.00  0.00    -0.272 NA
HETATM   25  H   UNL     1      46.427 -27.123  -3.554  1.00  0.00     0.127 HD
HETATM   26  H   UNL     1      45.328 -28.380  -3.423  1.00  0.00     0.127 HD
ENDBRANCH  12  24
TORSDOF 3
ENDMDL
