MODEL 1
REMARK VINA RESULT:     -10.4      0.000      0.000
REMARK  7 active torsions:
REMARK  status: ('A' for Active; 'I' for Inactive)
REMARK    1  A    between atoms: C_4  and  N_5 
REMARK       I    between atoms: N_5  and  C_6 
REMARK    2  A    between atoms: C_6  and  C_7 
REMARK    3  A    between atoms: C_7  and  N_8 
REMARK    4  A    between atoms: N_11  and  C_12 
REMARK    5  A    between atoms: C_12  and  C_13 
REMARK    6  A    between atoms: C_28  and  C_29 
REMARK       I    between atoms: C_29  and  N_30 
REMARK    7  A    between atoms: N_30  and  C_31 
ROOT
HETATM    1  N   UNL     1      40.777 -12.936   4.335  1.00  0.00    -0.290 N 
HETATM    2  C   UNL     1      40.791 -13.392   3.020  1.00  0.00     0.332 C 
HETATM    3  O   UNL     1      40.573 -14.585   2.780  1.00  0.00    -0.246 OA
HETATM    4  N   UNL     1      41.105 -12.476   2.028  1.00  0.00    -0.261 N 
HETATM    5  C   UNL     1      41.520 -11.180   2.303  1.00  0.00     0.264 C 
HETATM    6  O   UNL     1      42.164 -10.474   1.532  1.00  0.00    -0.267 OA
HETATM    7  C   UNL     1      41.232 -10.663   3.648  1.00  0.00     0.059 A 
HETATM    8  C   UNL     1      40.897 -11.559   4.660  1.00  0.00     0.056 A 
HETATM    9  C   UNL     1      41.406  -9.301   3.913  1.00  0.00     0.020 A 
HETATM   10  C   UNL     1      41.280  -8.830   5.216  1.00  0.00     0.018 A 
HETATM   11  C   UNL     1      40.972  -9.709   6.264  1.00  0.00     0.034 A 
HETATM   12  C   UNL     1      40.740 -11.066   5.970  1.00  0.00     0.048 A 
ENDROOT
BRANCH   1  13
HETATM   13  C   UNL     1      40.807 -13.957   5.386  1.00  0.00     0.237 C 
BRANCH  13  14
HETATM   14  C   UNL     1      42.056 -14.840   5.391  1.00  0.00     0.240 C 
HETATM   15  N   UNL     1      41.762 -16.180   5.203  1.00  0.00    -0.325 N 
HETATM   16  H   UNL     1      40.784 -16.440   5.338  1.00  0.00     0.169 HD
HETATM   17  O   UNL     1      43.169 -14.339   5.528  1.00  0.00    -0.271 OA
BRANCH  15  18
HETATM   18  C   UNL     1      42.643 -17.219   4.826  1.00  0.00     0.041 A 
HETATM   19  C   UNL     1      42.731 -17.669   3.501  1.00  0.00     0.037 A 
HETATM   20  C   UNL     1      43.531 -18.769   3.158  1.00  0.00    -0.060 A 
HETATM   21  C   UNL     1      43.561 -19.290   1.751  1.00  0.00     0.048 C 
HETATM   22  C   UNL     1      44.255 -19.423   4.157  1.00  0.00     0.007 A 
HETATM   23  C   UNL     1      44.190 -18.975   5.476  1.00  0.00     0.009 A 
HETATM   24  C   UNL     1      43.391 -17.874   5.826  1.00  0.00    -0.035 A 
HETATM   25  C   UNL     1      43.358 -17.446   7.269  1.00  0.00     0.050 C 
ENDBRANCH  15  18
ENDBRANCH  13  14
ENDBRANCH   1  13
BRANCH   4  26
HETATM   26  C   UNL     1      41.419 -13.006   0.704  1.00  0.00     0.175 C 
BRANCH  26  27
HETATM   27  C   UNL     1      40.236 -13.125  -0.234  1.00  0.00    -0.037 A 
HETATM   28  C   UNL     1      40.230 -14.074  -1.267  1.00  0.00     0.048 A 
HETATM   29  C   UNL     1      39.145 -14.094  -2.121  1.00  0.00     0.105 A 
HETATM   30  C   UNL     1      38.087 -13.228  -1.975  1.00  0.00     0.105 A 
HETATM   31  O   UNL     1      38.985 -14.927  -3.184  1.00  0.00    -0.323 OA
HETATM   32  O   UNL     1      37.129 -13.407  -2.925  1.00  0.00    -0.323 OA
HETATM   33  C   UNL     1      38.048 -12.293  -0.968  1.00  0.00     0.040 A 
HETATM   34  C   UNL     1      37.715 -14.473  -3.699  1.00  0.00     0.352 A 
HETATM   35  C   UNL     1      39.135 -12.242  -0.094  1.00  0.00     0.012 A 
ENDBRANCH  26  27
ENDBRANCH   4  26
BRANCH  11  36
HETATM   36  C   UNL     1      41.026  -9.149   7.652  1.00  0.00     0.252 C 
HETATM   37  N   UNL     1      41.981  -9.639   8.522  1.00  0.00    -0.352 N 
HETATM   38  H   UNL     1      42.604 -10.377   8.235  1.00  0.00     0.163 HD
HETATM   39  O   UNL     1      40.278  -8.223   7.953  1.00  0.00    -0.268 OA
BRANCH  37  40
HETATM   40  C   UNL     1      42.404  -8.849   9.678  1.00  0.00     0.084 C 
HETATM   41  C   UNL     1      42.656  -9.736  10.901  1.00  0.00     0.025 C 
HETATM   42  C   UNL     1      43.918 -10.588  10.773  1.00  0.00     0.002 C 
HETATM   43  C   UNL     1      45.140  -9.747  10.416  1.00  0.00     0.000 C 
HETATM   44  C   UNL     1      44.900  -8.898   9.171  1.00  0.00     0.002 C 
HETATM   45  C   UNL     1      43.652  -8.026   9.320  1.00  0.00     0.025 C 
ENDBRANCH  37  40
ENDBRANCH  11  36
TORSDOF 7
ENDMDL
MODEL 2
REMARK VINA RESULT:     -10.3      1.548      1.727
REMARK  7 active torsions:
REMARK  status: ('A' for Active; 'I' for Inactive)
REMARK    1  A    between atoms: C_4  and  N_5 
REMARK       I    between atoms: N_5  and  C_6 
REMARK    2  A    between atoms: C_6  and  C_7 
REMARK    3  A    between atoms: C_7  and  N_8 
REMARK    4  A    between atoms: N_11  and  C_12 
REMARK    5  A    between atoms: C_12  and  C_13 
REMARK    6  A    between atoms: C_28  and  C_29 
REMARK       I    between atoms: C_29  and  N_30 
REMARK    7  A    between atoms: N_30  and  C_31 
ROOT
HETATM    1  N   UNL     1      41.280 -12.414   3.899  1.00  0.00    -0.290 N 
HETATM    2  C   UNL     1      41.308 -12.469   2.507  1.00  0.00     0.332 C 
HETATM    3  O   UNL     1      41.979 -13.338   1.940  1.00  0.00    -0.246 OA
HETATM    4  N   UNL     1      40.606 -11.495   1.815  1.00  0.00    -0.261 N 
HETATM    5  C   UNL     1      39.994 -10.418   2.440  1.00  0.00     0.264 C 
HETATM    6  O   UNL     1      39.710  -9.358   1.888  1.00  0.00    -0.267 OA
HETATM    7  C   UNL     1      39.752 -10.539   3.884  1.00  0.00     0.059 A 
HETATM    8  C   UNL     1      40.430 -11.521   4.604  1.00  0.00     0.056 A 
HETATM    9  C   UNL     1      38.935  -9.604   4.526  1.00  0.00     0.020 A 
HETATM   10  C   UNL     1      38.821  -9.623   5.913  1.00  0.00     0.018 A 
HETATM   11  C   UNL     1      39.513 -10.579   6.670  1.00  0.00     0.034 A 
HETATM   12  C   UNL     1      40.282 -11.551   6.004  1.00  0.00     0.048 A 
ENDROOT
BRANCH   1  13
HETATM   13  C   UNL     1      42.293 -13.199   4.609  1.00  0.00     0.237 C 
BRANCH  13  14
HETATM   14  C   UNL     1      42.113 -14.715   4.519  1.00  0.00     0.240 C 
HETATM   15  N   UNL     1      43.181 -15.343   3.902  1.00  0.00    -0.325 N 
HETATM   16  H   UNL     1      43.806 -14.733   3.375  1.00  0.00     0.169 HD
HETATM   17  O   UNL     1      41.111 -15.249   4.989  1.00  0.00    -0.271 OA
BRANCH  15  18
HETATM   18  C   UNL     1      43.520 -16.714   3.934  1.00  0.00     0.041 A 
HETATM   19  C   UNL     1      43.222 -17.575   2.868  1.00  0.00     0.037 A 
HETATM   20  C   UNL     1      43.470 -18.953   2.954  1.00  0.00    -0.060 A 
HETATM   21  C   UNL     1      43.079 -19.877   1.837  1.00  0.00     0.048 C 
HETATM   22  C   UNL     1      44.026 -19.473   4.123  1.00  0.00     0.007 A 
HETATM   23  C   UNL     1      44.344 -18.627   5.184  1.00  0.00     0.009 A 
HETATM   24  C   UNL     1      44.099 -17.246   5.105  1.00  0.00    -0.035 A 
HETATM   25  C   UNL     1      44.457 -16.388   6.289  1.00  0.00     0.050 C 
ENDBRANCH  15  18
ENDBRANCH  13  14
ENDBRANCH   1  13
BRANCH   4  26
HETATM   26  C   UNL     1      40.879 -11.365   0.385  1.00  0.00     0.175 C 
BRANCH  26  27
HETATM   27  C   UNL     1      39.872 -12.041  -0.522  1.00  0.00    -0.037 A 
HETATM   28  C   UNL     1      40.257 -13.093  -1.366  1.00  0.00     0.048 A 
HETATM   29  C   UNL     1      39.303 -13.629  -2.208  1.00  0.00     0.105 A 
HETATM   30  C   UNL     1      38.006 -13.171  -2.226  1.00  0.00     0.105 A 
HETATM   31  O   UNL     1      39.507 -14.632  -3.105  1.00  0.00    -0.323 OA
HETATM   32  O   UNL     1      37.232 -13.826  -3.133  1.00  0.00    -0.323 OA
HETATM   33  C   UNL     1      37.585 -12.152  -1.405  1.00  0.00     0.040 A 
HETATM   34  C   UNL     1      38.195 -14.738  -3.699  1.00  0.00     0.352 A 
HETATM   35  C   UNL     1      38.530 -11.583  -0.549  1.00  0.00     0.012 A 
ENDBRANCH  26  27
ENDBRANCH   4  26
BRANCH  11  36
HETATM   36  C   UNL     1      39.470 -10.418   8.158  1.00  0.00     0.252 C 
HETATM   37  N   UNL     1      40.495  -9.727   8.775  1.00  0.00    -0.352 N 
HETATM   38  H   UNL     1      41.266  -9.367   8.237  1.00  0.00     0.163 HD
HETATM   39  O   UNL     1      38.495 -10.836   8.778  1.00  0.00    -0.268 OA
BRANCH  37  40
HETATM   40  C   UNL     1      40.295  -9.131  10.096  1.00  0.00     0.084 C 
HETATM   41  C   UNL     1      41.267  -9.714  11.126  1.00  0.00     0.025 C 
HETATM   42  C   UNL     1      42.709  -9.252  10.918  1.00  0.00     0.002 C 
HETATM   43  C   UNL     1      42.814  -7.733  10.830  1.00  0.00     0.000 C 
HETATM   44  C   UNL     1      41.876  -7.160   9.772  1.00  0.00     0.002 C 
HETATM   45  C   UNL     1      40.430  -7.602  10.006  1.00  0.00     0.025 C 
ENDBRANCH  37  40
ENDBRANCH  11  36
TORSDOF 7
ENDMDL
MODEL 3
REMARK VINA RESULT:     -10.2      4.149      9.679
REMARK  7 active torsions:
REMARK  status: ('A' for Active; 'I' for Inactive)
REMARK    1  A    between atoms: C_4  and  N_5 
REMARK       I    between atoms: N_5  and  C_6 
REMARK    2  A    between atoms: C_6  and  C_7 
REMARK    3  A    between atoms: C_7  and  N_8 
REMARK    4  A    between atoms: N_11  and  C_12 
REMARK    5  A    between atoms: C_12  and  C_13 
REMARK    6  A    between atoms: C_28  and  C_29 
REMARK       I    between atoms: C_29  and  N_30 
REMARK    7  A    between atoms: N_30  and  C_31 
ROOT
HETATM    1  N   UNL     1      42.489 -11.486   5.504  1.00  0.00    -0.290 N 
HETATM    2  C   UNL     1      41.536 -10.472   5.475  1.00  0.00     0.332 C 
HETATM    3  O   UNL     1      41.894  -9.291   5.400  1.00  0.00    -0.246 OA
HETATM    4  N   UNL     1      40.205 -10.842   5.586  1.00  0.00    -0.261 N 
HETATM    5  C   UNL     1      39.803 -12.146   5.844  1.00  0.00     0.264 C 
HETATM    6  O   UNL     1      38.719 -12.461   6.325  1.00  0.00    -0.267 OA
HETATM    7  C   UNL     1      40.791 -13.205   5.596  1.00  0.00     0.059 A 
HETATM    8  C   UNL     1      42.134 -12.860   5.464  1.00  0.00     0.056 A 
HETATM    9  C   UNL     1      40.383 -14.542   5.607  1.00  0.00     0.020 A 
HETATM   10  C   UNL     1      41.333 -15.555   5.522  1.00  0.00     0.018 A 
HETATM   11  C   UNL     1      42.697 -15.244   5.417  1.00  0.00     0.034 A 
HETATM   12  C   UNL     1      43.085 -13.893   5.346  1.00  0.00     0.048 A 
ENDROOT
BRANCH   1  13
HETATM   13  C   UNL     1      43.875 -11.079   5.753  1.00  0.00     0.237 C 
BRANCH  13  14
HETATM   14  C   UNL     1      44.243 -10.912   7.227  1.00  0.00     0.240 C 
HETATM   15  N   UNL     1      43.720  -9.755   7.779  1.00  0.00    -0.325 N 
HETATM   16  H   UNL     1      43.390  -9.058   7.111  1.00  0.00     0.169 HD
HETATM   17  O   UNL     1      44.915 -11.766   7.799  1.00  0.00    -0.271 OA
BRANCH  15  18
HETATM   18  C   UNL     1      43.568  -9.436   9.147  1.00  0.00     0.041 A 
HETATM   19  C   UNL     1      43.637 -10.416  10.147  1.00  0.00     0.037 A 
HETATM   20  C   UNL     1      43.381 -10.105  11.491  1.00  0.00    -0.060 A 
HETATM   21  C   UNL     1      43.385 -11.175  12.544  1.00  0.00     0.048 C 
HETATM   22  C   UNL     1      43.055  -8.792  11.835  1.00  0.00     0.007 A 
HETATM   23  C   UNL     1      42.999  -7.804  10.854  1.00  0.00     0.009 A 
HETATM   24  C   UNL     1      43.254  -8.109   9.506  1.00  0.00    -0.035 A 
HETATM   25  C   UNL     1      43.170  -6.997   8.494  1.00  0.00     0.050 C 
ENDBRANCH  15  18
ENDBRANCH  13  14
ENDBRANCH   1  13
BRANCH   4  26
HETATM   26  C   UNL     1      39.237  -9.783   5.863  1.00  0.00     0.175 C 
BRANCH  26  27
HETATM   27  C   UNL     1      39.351  -9.156   7.236  1.00  0.00    -0.037 A 
HETATM   28  C   UNL     1      39.417  -9.955   8.388  1.00  0.00     0.048 A 
HETATM   29  C   UNL     1      39.464  -9.321   9.614  1.00  0.00     0.105 A 
HETATM   30  C   UNL     1      39.462  -7.950   9.725  1.00  0.00     0.105 A 
HETATM   31  O   UNL     1      39.506  -9.935  10.827  1.00  0.00    -0.323 OA
HETATM   32  O   UNL     1      39.504  -7.530  11.018  1.00  0.00    -0.323 OA
HETATM   33  C   UNL     1      39.414  -7.132   8.621  1.00  0.00     0.040 A 
HETATM   34  C   UNL     1      39.512  -8.794  11.711  1.00  0.00     0.352 A 
HETATM   35  C   UNL     1      39.355  -7.745   7.368  1.00  0.00     0.012 A 
ENDBRANCH  26  27
ENDBRANCH   4  26
BRANCH  11  36
HETATM   36  C   UNL     1      43.657 -16.389   5.505  1.00  0.00     0.252 C 
HETATM   37  N   UNL     1      43.470 -17.470   4.666  1.00  0.00    -0.352 N 
HETATM   38  H   UNL     1      42.688 -17.497   4.032  1.00  0.00     0.163 HD
HETATM   39  O   UNL     1      44.622 -16.304   6.261  1.00  0.00    -0.268 OA
BRANCH  37  40
HETATM   40  C   UNL     1      44.583 -18.369   4.357  1.00  0.00     0.084 C 
HETATM   41  C   UNL     1      44.470 -19.686   5.131  1.00  0.00     0.025 C 
HETATM   42  C   UNL     1      43.345 -20.585   4.622  1.00  0.00     0.002 C 
HETATM   43  C   UNL     1      43.433 -20.813   3.116  1.00  0.00     0.000 C 
HETATM   44  C   UNL     1      43.501 -19.498   2.347  1.00  0.00     0.002 C 
HETATM   45  C   UNL     1      44.649 -18.617   2.841  1.00  0.00     0.025 C 
ENDBRANCH  37  40
ENDBRANCH  11  36
TORSDOF 7
ENDMDL
MODEL 4
REMARK VINA RESULT:     -10.0      1.761      2.328
REMARK  7 active torsions:
REMARK  status: ('A' for Active; 'I' for Inactive)
REMARK    1  A    between atoms: C_4  and  N_5 
REMARK       I    between atoms: N_5  and  C_6 
REMARK    2  A    between atoms: C_6  and  C_7 
REMARK    3  A    between atoms: C_7  and  N_8 
REMARK    4  A    between atoms: N_11  and  C_12 
REMARK    5  A    between atoms: C_12  and  C_13 
REMARK    6  A    between atoms: C_28  and  C_29 
REMARK       I    between atoms: C_29  and  N_30 
REMARK    7  A    between atoms: N_30  and  C_31 
ROOT
HETATM    1  N   UNL     1      42.271 -11.034   4.804  1.00  0.00    -0.290 N 
HETATM    2  C   UNL     1      42.385 -11.290   3.440  1.00  0.00     0.332 C 
HETATM    3  O   UNL     1      43.397 -11.847   3.000  1.00  0.00    -0.246 OA
HETATM    4  N   UNL     1      41.357 -10.852   2.619  1.00  0.00    -0.261 N 
HETATM    5  C   UNL     1      40.303 -10.076   3.080  1.00  0.00     0.264 C 
HETATM    6  O   UNL     1      39.604  -9.355   2.372  1.00  0.00    -0.267 OA
HETATM    7  C   UNL     1      40.074 -10.062   4.531  1.00  0.00     0.059 A 
HETATM    8  C   UNL     1      41.082 -10.513   5.379  1.00  0.00     0.056 A 
HETATM    9  C   UNL     1      38.898  -9.500   5.036  1.00  0.00     0.020 A 
HETATM   10  C   UNL     1      38.740  -9.348   6.410  1.00  0.00     0.018 A 
HETATM   11  C   UNL     1      39.748  -9.764   7.293  1.00  0.00     0.034 A 
HETATM   12  C   UNL     1      40.898 -10.384   6.770  1.00  0.00     0.048 A 
ENDROOT
BRANCH   1  13
HETATM   13  C   UNL     1      43.493 -11.164   5.602  1.00  0.00     0.237 C 
BRANCH  13  14
HETATM   14  C   UNL     1      43.903 -12.601   5.924  1.00  0.00     0.240 C 
HETATM   15  N   UNL     1      42.955 -13.528   5.525  1.00  0.00    -0.325 N 
HETATM   16  H   UNL     1      42.032 -13.150   5.313  1.00  0.00     0.169 HD
HETATM   17  O   UNL     1      44.985 -12.832   6.459  1.00  0.00    -0.271 OA
BRANCH  15  18
HETATM   18  C   UNL     1      43.119 -14.921   5.355  1.00  0.00     0.041 A 
HETATM   19  C   UNL     1      43.242 -15.501   4.085  1.00  0.00     0.037 A 
HETATM   20  C   UNL     1      43.300 -16.894   3.923  1.00  0.00    -0.060 A 
HETATM   21  C   UNL     1      43.357 -17.508   2.554  1.00  0.00     0.048 C 
HETATM   22  C   UNL     1      43.237 -17.713   5.051  1.00  0.00     0.007 A 
HETATM   23  C   UNL     1      43.132 -17.149   6.321  1.00  0.00     0.009 A 
HETATM   24  C   UNL     1      43.074 -15.756   6.491  1.00  0.00    -0.035 A 
HETATM   25  C   UNL     1      42.953 -15.211   7.889  1.00  0.00     0.050 C 
ENDBRANCH  15  18
ENDBRANCH  13  14
ENDBRANCH   1  13
BRANCH   4  26
HETATM   26  C   UNL     1      41.609 -10.842   1.180  1.00  0.00     0.175 C 
BRANCH  26  27
HETATM   27  C   UNL     1      40.967 -11.977   0.410  1.00  0.00    -0.037 A 
HETATM   28  C   UNL     1      40.482 -11.779  -0.891  1.00  0.00     0.048 A 
HETATM   29  C   UNL     1      39.858 -12.840  -1.518  1.00  0.00     0.105 A 
HETATM   30  C   UNL     1      39.717 -14.065  -0.908  1.00  0.00     0.105 A 
HETATM   31  O   UNL     1      39.310 -12.818  -2.763  1.00  0.00    -0.323 OA
HETATM   32  O   UNL     1      39.066 -14.966  -1.692  1.00  0.00    -0.323 OA
HETATM   33  C   UNL     1      40.191 -14.304   0.359  1.00  0.00     0.040 A 
HETATM   34  C   UNL     1      38.795 -14.163  -2.858  1.00  0.00     0.352 A 
HETATM   35  C   UNL     1      40.818 -13.247   1.022  1.00  0.00     0.012 A 
ENDBRANCH  26  27
ENDBRANCH   4  26
BRANCH  11  36
HETATM   36  C   UNL     1      39.570  -9.407   8.736  1.00  0.00     0.252 C 
HETATM   37  N   UNL     1      40.583  -9.720   9.621  1.00  0.00    -0.352 N 
HETATM   38  H   UNL     1      41.407 -10.205   9.305  1.00  0.00     0.163 HD
HETATM   39  O   UNL     1      38.569  -8.782   9.078  1.00  0.00    -0.268 OA
BRANCH  37  40
HETATM   40  C   UNL     1      40.700  -9.008  10.894  1.00  0.00     0.084 C 
HETATM   41  C   UNL     1      41.365  -9.880  11.963  1.00  0.00     0.025 C 
HETATM   42  C   UNL     1      42.858 -10.093  11.720  1.00  0.00     0.002 C 
HETATM   43  C   UNL     1      43.597  -8.773  11.518  1.00  0.00     0.000 C 
HETATM   44  C   UNL     1      42.957  -7.928  10.421  1.00  0.00     0.002 C 
HETATM   45  C   UNL     1      41.470  -7.694  10.688  1.00  0.00     0.025 C 
ENDBRANCH  37  40
ENDBRANCH  11  36
TORSDOF 7
ENDMDL
MODEL 5
REMARK VINA RESULT:     -10.0      3.716      9.936
REMARK  7 active torsions:
REMARK  status: ('A' for Active; 'I' for Inactive)
REMARK    1  A    between atoms: C_4  and  N_5 
REMARK       I    between atoms: N_5  and  C_6 
REMARK    2  A    between atoms: C_6  and  C_7 
REMARK    3  A    between atoms: C_7  and  N_8 
REMARK    4  A    between atoms: N_11  and  C_12 
REMARK    5  A    between atoms: C_12  and  C_13 
REMARK    6  A    between atoms: C_28  and  C_29 
REMARK       I    between atoms: C_29  and  N_30 
REMARK    7  A    between atoms: N_30  and  C_31 
ROOT
HETATM    1  N   UNL     1      43.305 -10.218   8.091  1.00  0.00    -0.290 N 
HETATM    2  C   UNL     1      43.660 -10.367   9.430  1.00  0.00     0.332 C 
HETATM    3  O   UNL     1      44.729 -10.911   9.725  1.00  0.00    -0.246 OA
HETATM    4  N   UNL     1      42.753  -9.933  10.384  1.00  0.00    -0.261 N 
HETATM    5  C   UNL     1      41.480  -9.481  10.065  1.00  0.00     0.264 C 
HETATM    6  O   UNL     1      40.531  -9.458  10.843  1.00  0.00    -0.267 OA
HETATM    7  C   UNL     1      41.248  -9.085   8.669  1.00  0.00     0.059 A 
HETATM    8  C   UNL     1      42.152  -9.492   7.691  1.00  0.00     0.056 A 
HETATM    9  C   UNL     1      40.074  -8.404   8.333  1.00  0.00     0.020 A 
HETATM   10  C   UNL     1      39.777  -8.157   6.997  1.00  0.00     0.018 A 
HETATM   11  C   UNL     1      40.651  -8.579   5.984  1.00  0.00     0.034 A 
HETATM   12  C   UNL     1      41.857  -9.208   6.343  1.00  0.00     0.048 A 
ENDROOT
BRANCH   1  13
HETATM   13  C   UNL     1      44.078 -10.990   7.115  1.00  0.00     0.237 C 
BRANCH  13  14
HETATM   14  C   UNL     1      43.503 -12.367   6.782  1.00  0.00     0.240 C 
HETATM   15  N   UNL     1      42.781 -12.372   5.601  1.00  0.00    -0.325 N 
HETATM   16  H   UNL     1      42.511 -11.454   5.246  1.00  0.00     0.169 HD
HETATM   17  O   UNL     1      43.721 -13.325   7.520  1.00  0.00    -0.271 OA
BRANCH  15  18
HETATM   18  C   UNL     1      42.396 -13.486   4.822  1.00  0.00     0.041 A 
HETATM   19  C   UNL     1      43.151 -13.914   3.720  1.00  0.00     0.037 A 
HETATM   20  C   UNL     1      42.705 -14.955   2.892  1.00  0.00    -0.060 A 
HETATM   21  C   UNL     1      43.483 -15.356   1.673  1.00  0.00     0.048 C 
HETATM   22  C   UNL     1      41.488 -15.577   3.176  1.00  0.00     0.007 A 
HETATM   23  C   UNL     1      40.736 -15.174   4.278  1.00  0.00     0.009 A 
HETATM   24  C   UNL     1      41.176 -14.131   5.111  1.00  0.00    -0.035 A 
HETATM   25  C   UNL     1      40.313 -13.739   6.280  1.00  0.00     0.050 C 
ENDBRANCH  15  18
ENDBRANCH  13  14
ENDBRANCH   1  13
BRANCH   4  26
HETATM   26  C   UNL     1      42.979 -10.360  11.763  1.00  0.00     0.175 C 
BRANCH  26  27
HETATM   27  C   UNL     1      42.812  -9.273  12.804  1.00  0.00    -0.037 A 
HETATM   28  C   UNL     1      41.940  -9.446  13.890  1.00  0.00     0.048 A 
HETATM   29  C   UNL     1      41.792  -8.395  14.774  1.00  0.00     0.105 A 
HETATM   30  C   UNL     1      42.477  -7.212  14.621  1.00  0.00     0.105 A 
HETATM   31  O   UNL     1      40.976  -8.380  15.862  1.00  0.00    -0.323 OA
HETATM   32  O   UNL     1      42.180  -6.307  15.592  1.00  0.00    -0.323 OA
HETATM   33  C   UNL     1      43.351  -7.009  13.580  1.00  0.00     0.040 A 
HETATM   34  C   UNL     1      41.214  -7.048  16.364  1.00  0.00     0.352 A 
HETATM   35  C   UNL     1      43.514  -8.050  12.664  1.00  0.00     0.012 A 
ENDBRANCH  26  27
ENDBRANCH   4  26
BRANCH  11  36
HETATM   36  C   UNL     1      40.171  -8.426   4.574  1.00  0.00     0.252 C 
HETATM   37  N   UNL     1      40.671  -9.283   3.613  1.00  0.00    -0.352 N 
HETATM   38  H   UNL     1      41.364  -9.973   3.853  1.00  0.00     0.163 HD
HETATM   39  O   UNL     1      39.297  -7.600   4.325  1.00  0.00    -0.268 OA
BRANCH  37  40
HETATM   40  C   UNL     1      39.933  -9.514   2.371  1.00  0.00     0.084 C 
HETATM   41  C   UNL     1      40.855 -10.018   1.257  1.00  0.00     0.025 C 
HETATM   42  C   UNL     1      41.327 -11.455   1.474  1.00  0.00     0.002 C 
HETATM   43  C   UNL     1      40.161 -12.407   1.725  1.00  0.00     0.000 C 
HETATM   44  C   UNL     1      39.270 -11.923   2.865  1.00  0.00     0.002 C 
HETATM   45  C   UNL     1      38.777 -10.495   2.624  1.00  0.00     0.025 C 
ENDBRANCH  37  40
ENDBRANCH  11  36
TORSDOF 7
ENDMDL
MODEL 6
REMARK VINA RESULT:      -9.8      2.305      8.601
REMARK  7 active torsions:
REMARK  status: ('A' for Active; 'I' for Inactive)
REMARK    1  A    between atoms: C_4  and  N_5 
REMARK       I    between atoms: N_5  and  C_6 
REMARK    2  A    between atoms: C_6  and  C_7 
REMARK    3  A    between atoms: C_7  and  N_8 
REMARK    4  A    between atoms: N_11  and  C_12 
REMARK    5  A    between atoms: C_12  and  C_13 
REMARK    6  A    between atoms: C_28  and  C_29 
REMARK       I    between atoms: C_29  and  N_30 
REMARK    7  A    between atoms: N_30  and  C_31 
ROOT
HETATM    1  N   UNL     1      39.675 -12.146   4.059  1.00  0.00    -0.290 N 
HETATM    2  C   UNL     1      39.560 -12.053   5.444  1.00  0.00     0.332 C 
HETATM    3  O   UNL     1      39.824 -13.031   6.151  1.00  0.00    -0.246 OA
HETATM    4  N   UNL     1      39.096 -10.856   5.968  1.00  0.00    -0.261 N 
HETATM    5  C   UNL     1      38.634  -9.814   5.175  1.00  0.00     0.264 C 
HETATM    6  O   UNL     1      37.877  -8.927   5.559  1.00  0.00    -0.267 OA
HETATM    7  C   UNL     1      39.021  -9.838   3.758  1.00  0.00     0.059 A 
HETATM    8  C   UNL     1      39.506 -11.022   3.208  1.00  0.00     0.056 A 
HETATM    9  C   UNL     1      38.793  -8.710   2.964  1.00  0.00     0.020 A 
HETATM   10  C   UNL     1      39.018  -8.774   1.593  1.00  0.00     0.018 A 
HETATM   11  C   UNL     1      39.479  -9.959   1.002  1.00  0.00     0.034 A 
HETATM   12  C   UNL     1      39.760 -11.066   1.824  1.00  0.00     0.048 A 
ENDROOT
BRANCH   1  13
HETATM   13  C   UNL     1      39.808 -13.494   3.500  1.00  0.00     0.237 C 
BRANCH  13  14
HETATM   14  C   UNL     1      41.232 -14.051   3.494  1.00  0.00     0.240 C 
HETATM   15  N   UNL     1      41.353 -15.212   4.238  1.00  0.00    -0.325 N 
HETATM   16  H   UNL     1      40.584 -15.406   4.880  1.00  0.00     0.169 HD
HETATM   17  O   UNL     1      42.116 -13.487   2.855  1.00  0.00    -0.271 OA
BRANCH  15  18
HETATM   18  C   UNL     1      42.394 -16.166   4.198  1.00  0.00     0.041 A 
HETATM   19  C   UNL     1      42.436 -17.175   3.224  1.00  0.00     0.037 A 
HETATM   20  C   UNL     1      43.417 -18.178   3.257  1.00  0.00    -0.060 A 
HETATM   21  C   UNL     1      43.409 -19.295   2.254  1.00  0.00     0.048 C 
HETATM   22  C   UNL     1      44.370 -18.165   4.276  1.00  0.00     0.007 A 
HETATM   23  C   UNL     1      44.351 -17.158   5.240  1.00  0.00     0.009 A 
HETATM   24  C   UNL     1      43.372 -16.152   5.215  1.00  0.00    -0.035 A 
HETATM   25  C   UNL     1      43.402 -15.098   6.289  1.00  0.00     0.050 C 
ENDBRANCH  15  18
ENDBRANCH  13  14
ENDBRANCH   1  13
BRANCH   4  26
HETATM   26  C   UNL     1      38.686 -10.855   7.370  1.00  0.00     0.175 C 
BRANCH  26  27
HETATM   27  C   UNL     1      39.549 -10.014   8.288  1.00  0.00    -0.037 A 
HETATM   28  C   UNL     1      40.805  -9.550   7.868  1.00  0.00     0.048 A 
HETATM   29  C   UNL     1      41.567  -8.836   8.772  1.00  0.00     0.105 A 
HETATM   30  C   UNL     1      41.121  -8.564  10.045  1.00  0.00     0.105 A 
HETATM   31  O   UNL     1      42.810  -8.334   8.544  1.00  0.00    -0.323 OA
HETATM   32  O   UNL     1      42.025  -7.858  10.776  1.00  0.00    -0.323 OA
HETATM   33  C   UNL     1      39.892  -8.988  10.489  1.00  0.00     0.040 A 
HETATM   34  C   UNL     1      43.101  -7.733   9.824  1.00  0.00     0.352 A 
HETATM   35  C   UNL     1      39.103  -9.721   9.601  1.00  0.00     0.012 A 
ENDBRANCH  26  27
ENDBRANCH   4  26
BRANCH  11  36
HETATM   36  C   UNL     1      39.526  -9.992  -0.495  1.00  0.00     0.252 C 
HETATM   37  N   UNL     1      39.917 -11.163  -1.115  1.00  0.00    -0.352 N 
HETATM   38  H   UNL     1      40.191 -11.964  -0.570  1.00  0.00     0.163 HD
HETATM   39  O   UNL     1      39.148  -9.009  -1.127  1.00  0.00    -0.268 OA
BRANCH  37  40
HETATM   40  C   UNL     1      39.543 -11.424  -2.505  1.00  0.00     0.084 C 
HETATM   41  C   UNL     1      40.507 -12.411  -3.168  1.00  0.00     0.025 C 
HETATM   42  C   UNL     1      40.351 -13.841  -2.651  1.00  0.00     0.002 C 
HETATM   43  C   UNL     1      38.904 -14.319  -2.725  1.00  0.00     0.000 C 
HETATM   44  C   UNL     1      37.952 -13.354  -2.025  1.00  0.00     0.002 C 
HETATM   45  C   UNL     1      38.093 -11.932  -2.570  1.00  0.00     0.025 C 
ENDBRANCH  37  40
ENDBRANCH  11  36
TORSDOF 7
ENDMDL
MODEL 7
REMARK VINA RESULT:      -9.8      3.857     10.785
REMARK  7 active torsions:
REMARK  status: ('A' for Active; 'I' for Inactive)
REMARK    1  A    between atoms: C_4  and  N_5 
REMARK       I    between atoms: N_5  and  C_6 
REMARK    2  A    between atoms: C_6  and  C_7 
REMARK    3  A    between atoms: C_7  and  N_8 
REMARK    4  A    between atoms: N_11  and  C_12 
REMARK    5  A    between atoms: C_12  and  C_13 
REMARK    6  A    between atoms: C_28  and  C_29 
REMARK       I    between atoms: C_29  and  N_30 
REMARK    7  A    between atoms: N_30  and  C_31 
ROOT
HETATM    1  N   UNL     1      43.568  -9.047   8.026  1.00  0.00    -0.290 N 
HETATM    2  C   UNL     1      43.384  -7.677   8.188  1.00  0.00     0.332 C 
HETATM    3  O   UNL     1      44.201  -7.019   8.842  1.00  0.00    -0.246 OA
HETATM    4  N   UNL     1      42.242  -7.115   7.639  1.00  0.00    -0.261 N 
HETATM    5  C   UNL     1      41.235  -7.872   7.055  1.00  0.00     0.264 C 
HETATM    6  O   UNL     1      40.074  -7.500   6.912  1.00  0.00    -0.267 OA
HETATM    7  C   UNL     1      41.582  -9.244   6.661  1.00  0.00     0.059 A 
HETATM    8  C   UNL     1      42.733  -9.828   7.183  1.00  0.00     0.056 A 
HETATM    9  C   UNL     1      40.698  -9.974   5.860  1.00  0.00     0.020 A 
HETATM   10  C   UNL     1      40.946 -11.319   5.606  1.00  0.00     0.018 A 
HETATM   11  C   UNL     1      42.081 -11.947   6.141  1.00  0.00     0.034 A 
HETATM   12  C   UNL     1      42.991 -11.182   6.894  1.00  0.00     0.048 A 
ENDROOT
BRANCH   1  13
HETATM   13  C   UNL     1      44.558  -9.686   8.897  1.00  0.00     0.237 C 
BRANCH  13  14
HETATM   14  C   UNL     1      44.027 -10.124  10.263  1.00  0.00     0.240 C 
HETATM   15  N   UNL     1      43.321  -9.122  10.907  1.00  0.00    -0.325 N 
HETATM   16  H   UNL     1      43.453  -8.181  10.533  1.00  0.00     0.169 HD
HETATM   17  O   UNL     1      44.226 -11.266  10.668  1.00  0.00    -0.271 OA
BRANCH  15  18
HETATM   18  C   UNL     1      42.428  -9.249  11.994  1.00  0.00     0.041 A 
HETATM   19  C   UNL     1      41.318 -10.103  11.943  1.00  0.00     0.037 A 
HETATM   20  C   UNL     1      40.381 -10.142  12.988  1.00  0.00    -0.060 A 
HETATM   21  C   UNL     1      39.156 -11.005  12.891  1.00  0.00     0.048 C 
HETATM   22  C   UNL     1      40.564  -9.317  14.098  1.00  0.00     0.007 A 
HETATM   23  C   UNL     1      41.674  -8.475  14.169  1.00  0.00     0.009 A 
HETATM   24  C   UNL     1      42.615  -8.430  13.127  1.00  0.00    -0.035 A 
HETATM   25  C   UNL     1      43.786  -7.494  13.263  1.00  0.00     0.050 C 
ENDBRANCH  15  18
ENDBRANCH  13  14
ENDBRANCH   1  13
BRANCH   4  26
HETATM   26  C   UNL     1      41.892  -5.762   8.063  1.00  0.00     0.175 C 
BRANCH  26  27
HETATM   27  C   UNL     1      41.548  -5.620   9.531  1.00  0.00    -0.037 A 
HETATM   28  C   UNL     1      40.455  -6.306  10.082  1.00  0.00     0.048 A 
HETATM   29  C   UNL     1      40.162  -6.091  11.415  1.00  0.00     0.105 A 
HETATM   30  C   UNL     1      40.911  -5.245  12.198  1.00  0.00     0.105 A 
HETATM   31  O   UNL     1      39.131  -6.651  12.102  1.00  0.00    -0.323 OA
HETATM   32  O   UNL     1      40.449  -5.168  13.475  1.00  0.00    -0.323 OA
HETATM   33  C   UNL     1      41.998  -4.567  11.700  1.00  0.00     0.040 A 
HETATM   34  C   UNL     1      39.308  -6.047  13.401  1.00  0.00     0.352 A 
HETATM   35  C   UNL     1      42.313  -4.756  10.354  1.00  0.00     0.012 A 
ENDBRANCH  26  27
ENDBRANCH   4  26
BRANCH  11  36
HETATM   36  C   UNL     1      42.177 -13.430   5.962  1.00  0.00     0.252 C 
HETATM   37  N   UNL     1      41.577 -14.000   4.856  1.00  0.00    -0.352 N 
HETATM   38  H   UNL     1      41.062 -13.431   4.203  1.00  0.00     0.163 HD
HETATM   39  O   UNL     1      42.846 -14.087   6.756  1.00  0.00    -0.268 OA
BRANCH  37  40
HETATM   40  C   UNL     1      42.014 -15.308   4.368  1.00  0.00     0.084 C 
HETATM   41  C   UNL     1      40.840 -16.116   3.806  1.00  0.00     0.025 C 
HETATM   42  C   UNL     1      40.321 -15.574   2.475  1.00  0.00     0.002 C 
HETATM   43  C   UNL     1      41.441 -15.406   1.452  1.00  0.00     0.000 C 
HETATM   44  C   UNL     1      42.588 -14.564   2.001  1.00  0.00     0.002 C 
HETATM   45  C   UNL     1      43.122 -15.131   3.317  1.00  0.00     0.025 C 
ENDBRANCH  37  40
ENDBRANCH  11  36
TORSDOF 7
ENDMDL
MODEL 8
REMARK VINA RESULT:      -9.7      2.300      6.897
REMARK  7 active torsions:
REMARK  status: ('A' for Active; 'I' for Inactive)
REMARK    1  A    between atoms: C_4  and  N_5 
REMARK       I    between atoms: N_5  and  C_6 
REMARK    2  A    between atoms: C_6  and  C_7 
REMARK    3  A    between atoms: C_7  and  N_8 
REMARK    4  A    between atoms: N_11  and  C_12 
REMARK    5  A    between atoms: C_12  and  C_13 
REMARK    6  A    between atoms: C_28  and  C_29 
REMARK       I    between atoms: C_29  and  N_30 
REMARK    7  A    between atoms: N_30  and  C_31 
ROOT
HETATM    1  N   UNL     1      42.204 -12.671   3.086  1.00  0.00    -0.290 N 
HETATM    2  C   UNL     1      42.677 -13.842   2.498  1.00  0.00     0.332 C 
HETATM    3  O   UNL     1      43.480 -13.778   1.560  1.00  0.00    -0.246 OA
HETATM    4  N   UNL     1      42.175 -15.044   2.971  1.00  0.00    -0.261 N 
HETATM    5  C   UNL     1      41.147 -15.118   3.902  1.00  0.00     0.264 C 
HETATM    6  O   UNL     1      40.418 -16.092   4.062  1.00  0.00    -0.267 OA
HETATM    7  C   UNL     1      40.874 -13.905   4.685  1.00  0.00     0.059 A 
HETATM    8  C   UNL     1      41.381 -12.685   4.243  1.00  0.00     0.056 A 
HETATM    9  C   UNL     1      40.024 -13.978   5.793  1.00  0.00     0.020 A 
HETATM   10  C   UNL     1      39.642 -12.812   6.449  1.00  0.00     0.018 A 
HETATM   11  C   UNL     1      40.111 -11.564   6.012  1.00  0.00     0.034 A 
HETATM   12  C   UNL     1      41.014 -11.514   4.934  1.00  0.00     0.048 A 
ENDROOT
BRANCH   1  13
HETATM   13  C   UNL     1      42.449 -11.423   2.358  1.00  0.00     0.237 C 
BRANCH  13  14
HETATM   14  C   UNL     1      41.375 -11.052   1.336  1.00  0.00     0.240 C 
HETATM   15  N   UNL     1      41.438 -11.826   0.190  1.00  0.00    -0.325 N 
HETATM   16  H   UNL     1      42.306 -12.347   0.058  1.00  0.00     0.169 HD
HETATM   17  O   UNL     1      40.562 -10.165   1.585  1.00  0.00    -0.271 OA
BRANCH  15  18
HETATM   18  C   UNL     1      40.443 -12.000  -0.798  1.00  0.00     0.041 A 
HETATM   19  C   UNL     1      40.127 -10.988  -1.715  1.00  0.00     0.037 A 
HETATM   20  C   UNL     1      39.068 -11.133  -2.623  1.00  0.00    -0.060 A 
HETATM   21  C   UNL     1      38.689 -10.015  -3.550  1.00  0.00     0.048 C 
HETATM   22  C   UNL     1      38.319 -12.311  -2.613  1.00  0.00     0.007 A 
HETATM   23  C   UNL     1      38.634 -13.333  -1.719  1.00  0.00     0.009 A 
HETATM   24  C   UNL     1      39.693 -13.194  -0.806  1.00  0.00    -0.035 A 
HETATM   25  C   UNL     1      39.976 -14.331   0.139  1.00  0.00     0.050 C 
ENDBRANCH  15  18
ENDBRANCH  13  14
ENDBRANCH   1  13
BRANCH   4  26
HETATM   26  C   UNL     1      42.428 -16.236   2.167  1.00  0.00     0.175 C 
BRANCH  26  27
HETATM   27  C   UNL     1      43.085 -17.381   2.910  1.00  0.00    -0.037 A 
HETATM   28  C   UNL     1      43.067 -18.682   2.386  1.00  0.00     0.048 A 
HETATM   29  C   UNL     1      43.636 -19.691   3.139  1.00  0.00     0.105 A 
HETATM   30  C   UNL     1      44.219 -19.447   4.361  1.00  0.00     0.105 A 
HETATM   31  O   UNL     1      43.685 -21.007   2.799  1.00  0.00    -0.323 OA
HETATM   32  O   UNL     1      44.710 -20.576   4.940  1.00  0.00    -0.323 OA
HETATM   33  C   UNL     1      44.270 -18.185   4.901  1.00  0.00     0.040 A 
HETATM   34  C   UNL     1      44.350 -21.563   3.953  1.00  0.00     0.352 A 
HETATM   35  C   UNL     1      43.694 -17.146   4.168  1.00  0.00     0.012 A 
ENDBRANCH  26  27
ENDBRANCH   4  26
BRANCH  11  36
HETATM   36  C   UNL     1      39.515 -10.356   6.665  1.00  0.00     0.252 C 
HETATM   37  N   UNL     1      39.628 -10.225   8.036  1.00  0.00    -0.352 N 
HETATM   38  H   UNL     1      40.075 -10.943   8.583  1.00  0.00     0.163 HD
HETATM   39  O   UNL     1      39.012  -9.483   5.962  1.00  0.00    -0.268 OA
BRANCH  37  40
HETATM   40  C   UNL     1      39.512  -8.910   8.666  1.00  0.00     0.084 C 
HETATM   41  C   UNL     1      38.951  -9.018  10.087  1.00  0.00     0.025 C 
HETATM   42  C   UNL     1      39.943  -9.624  11.079  1.00  0.00     0.002 C 
HETATM   43  C   UNL     1      41.289  -8.906  11.049  1.00  0.00     0.000 C 
HETATM   44  C   UNL     1      41.865  -8.839   9.638  1.00  0.00     0.002 C 
HETATM   45  C   UNL     1      40.877  -8.204   8.658  1.00  0.00     0.025 C 
ENDBRANCH  37  40
ENDBRANCH  11  36
TORSDOF 7
ENDMDL
MODEL 9
REMARK VINA RESULT:      -9.7      2.567      8.878
REMARK  7 active torsions:
REMARK  status: ('A' for Active; 'I' for Inactive)
REMARK    1  A    between atoms: C_4  and  N_5 
REMARK       I    between atoms: N_5  and  C_6 
REMARK    2  A    between atoms: C_6  and  C_7 
REMARK    3  A    between atoms: C_7  and  N_8 
REMARK    4  A    between atoms: N_11  and  C_12 
REMARK    5  A    between atoms: C_12  and  C_13 
REMARK    6  A    between atoms: C_28  and  C_29 
REMARK       I    between atoms: C_29  and  N_30 
REMARK    7  A    between atoms: N_30  and  C_31 
ROOT
HETATM    1  N   UNL     1      40.963 -13.336   4.938  1.00  0.00    -0.290 N 
HETATM    2  C   UNL     1      41.941 -14.174   5.469  1.00  0.00     0.332 C 
HETATM    3  O   UNL     1      42.100 -14.236   6.692  1.00  0.00    -0.246 OA
HETATM    4  N   UNL     1      42.736 -14.874   4.575  1.00  0.00    -0.261 N 
HETATM    5  C   UNL     1      42.679 -14.680   3.202  1.00  0.00     0.264 C 
HETATM    6  O   UNL     1      43.583 -14.958   2.418  1.00  0.00    -0.267 OA
HETATM    7  C   UNL     1      41.479 -14.015   2.676  1.00  0.00     0.059 A 
HETATM    8  C   UNL     1      40.651 -13.319   3.553  1.00  0.00     0.056 A 
HETATM    9  C   UNL     1      41.249 -14.002   1.297  1.00  0.00     0.020 A 
HETATM   10  C   UNL     1      40.199 -13.250   0.779  1.00  0.00     0.018 A 
HETATM   11  C   UNL     1      39.364 -12.513   1.631  1.00  0.00     0.034 A 
HETATM   12  C   UNL     1      39.572 -12.587   3.021  1.00  0.00     0.048 A 
ENDROOT
BRANCH   1  13
HETATM   13  C   UNL     1      40.384 -12.343   5.847  1.00  0.00     0.237 C 
BRANCH  13  14
HETATM   14  C   UNL     1      41.247 -11.103   6.081  1.00  0.00     0.240 C 
HETATM   15  N   UNL     1      41.935 -11.150   7.281  1.00  0.00    -0.325 N 
HETATM   16  H   UNL     1      41.603 -11.844   7.952  1.00  0.00     0.169 HD
HETATM   17  O   UNL     1      41.293 -10.212   5.236  1.00  0.00    -0.271 OA
BRANCH  15  18
HETATM   18  C   UNL     1      43.048 -10.375   7.677  1.00  0.00     0.041 A 
HETATM   19  C   UNL     1      42.897  -9.116   8.275  1.00  0.00     0.037 A 
HETATM   20  C   UNL     1      44.009  -8.311   8.569  1.00  0.00    -0.060 A 
HETATM   21  C   UNL     1      43.833  -6.934   9.141  1.00  0.00     0.048 C 
HETATM   22  C   UNL     1      45.287  -8.778   8.260  1.00  0.00     0.007 A 
HETATM   23  C   UNL     1      45.453 -10.036   7.681  1.00  0.00     0.009 A 
HETATM   24  C   UNL     1      44.345 -10.846   7.385  1.00  0.00    -0.035 A 
HETATM   25  C   UNL     1      44.591 -12.190   6.753  1.00  0.00     0.050 C 
ENDBRANCH  15  18
ENDBRANCH  13  14
ENDBRANCH   1  13
BRANCH   4  26
HETATM   26  C   UNL     1      43.942 -15.504   5.106  1.00  0.00     0.175 C 
BRANCH  26  27
HETATM   27  C   UNL     1      43.892 -17.016   5.186  1.00  0.00    -0.037 A 
HETATM   28  C   UNL     1      44.097 -17.804   4.044  1.00  0.00     0.048 A 
HETATM   29  C   UNL     1      43.983 -19.174   4.174  1.00  0.00     0.105 A 
HETATM   30  C   UNL     1      43.692 -19.770   5.379  1.00  0.00     0.105 A 
HETATM   31  O   UNL     1      44.126 -20.083   3.172  1.00  0.00    -0.323 OA
HETATM   32  O   UNL     1      43.616 -21.125   5.288  1.00  0.00    -0.323 OA
HETATM   33  C   UNL     1      43.498 -19.034   6.524  1.00  0.00     0.040 A 
HETATM   34  C   UNL     1      43.873 -21.314   3.882  1.00  0.00     0.352 A 
HETATM   35  C   UNL     1      43.597 -17.646   6.422  1.00  0.00     0.012 A 
ENDBRANCH  26  27
ENDBRANCH   4  26
BRANCH  11  36
HETATM   36  C   UNL     1      38.372 -11.600   0.979  1.00  0.00     0.252 C 
HETATM   37  N   UNL     1      38.666 -11.099  -0.275  1.00  0.00    -0.352 N 
HETATM   38  H   UNL     1      39.540 -11.321  -0.723  1.00  0.00     0.163 HD
HETATM   39  O   UNL     1      37.300 -11.384   1.537  1.00  0.00    -0.268 OA
BRANCH  37  40
HETATM   40  C   UNL     1      37.596 -10.618  -1.149  1.00  0.00     0.084 C 
HETATM   41  C   UNL     1      37.526  -9.088  -1.159  1.00  0.00     0.025 C 
HETATM   42  C   UNL     1      38.693  -8.440  -1.903  1.00  0.00     0.002 C 
HETATM   43  C   UNL     1      38.863  -9.013  -3.306  1.00  0.00     0.000 C 
HETATM   44  C   UNL     1      38.977 -10.535  -3.287  1.00  0.00     0.002 C 
HETATM   45  C   UNL     1      37.789 -11.177  -2.568  1.00  0.00     0.025 C 
ENDBRANCH  37  40
ENDBRANCH  11  36
TORSDOF 7
ENDMDL
MODEL 10
REMARK VINA RESULT:      -9.6      2.920      8.652
REMARK  7 active torsions:
REMARK  status: ('A' for Active; 'I' for Inactive)
REMARK    1  A    between atoms: C_4  and  N_5 
REMARK       I    between atoms: N_5  and  C_6 
REMARK    2  A    between atoms: C_6  and  C_7 
REMARK    3  A    between atoms: C_7  and  N_8 
REMARK    4  A    between atoms: N_11  and  C_12 
REMARK    5  A    between atoms: C_12  and  C_13 
REMARK    6  A    between atoms: C_28  and  C_29 
REMARK       I    between atoms: C_29  and  N_30 
REMARK    7  A    between atoms: N_30  and  C_31 
ROOT
HETATM    1  N   UNL     1      40.464 -13.071   2.975  1.00  0.00    -0.290 N 
HETATM    2  C   UNL     1      40.797 -12.881   4.314  1.00  0.00     0.332 C 
HETATM    3  O   UNL     1      40.738 -13.830   5.104  1.00  0.00    -0.246 OA
HETATM    4  N   UNL     1      41.136 -11.598   4.713  1.00  0.00    -0.261 N 
HETATM    5  C   UNL     1      41.037 -10.496   3.873  1.00  0.00     0.264 C 
HETATM    6  O   UNL     1      40.944  -9.333   4.254  1.00  0.00    -0.267 OA
HETATM    7  C   UNL     1      40.955 -10.767   2.431  1.00  0.00     0.059 A 
HETATM    8  C   UNL     1      40.633 -12.052   2.001  1.00  0.00     0.056 A 
HETATM    9  C   UNL     1      41.093  -9.712   1.524  1.00  0.00     0.020 A 
HETATM   10  C   UNL     1      40.870  -9.933   0.169  1.00  0.00     0.018 A 
HETATM   11  C   UNL     1      40.515 -11.208  -0.295  1.00  0.00     0.034 A 
HETATM   12  C   UNL     1      40.441 -12.271   0.623  1.00  0.00     0.048 A 
ENDROOT
BRANCH   1  13
HETATM   13  C   UNL     1      39.768 -14.317   2.641  1.00  0.00     0.237 C 
BRANCH  13  14
HETATM   14  C   UNL     1      40.681 -15.487   2.274  1.00  0.00     0.240 C 
HETATM   15  N   UNL     1      41.773 -15.597   3.118  1.00  0.00    -0.325 N 
HETATM   16  H   UNL     1      41.970 -14.776   3.692  1.00  0.00     0.169 HD
HETATM   17  O   UNL     1      40.398 -16.222   1.331  1.00  0.00    -0.271 OA
BRANCH  15  18
HETATM   18  C   UNL     1      42.625 -16.709   3.298  1.00  0.00     0.041 A 
HETATM   19  C   UNL     1      42.605 -17.804   2.422  1.00  0.00     0.037 A 
HETATM   20  C   UNL     1      43.381 -18.947   2.669  1.00  0.00    -0.060 A 
HETATM   21  C   UNL     1      43.297 -20.144   1.767  1.00  0.00     0.048 C 
HETATM   22  C   UNL     1      44.189 -18.990   3.806  1.00  0.00     0.007 A 
HETATM   23  C   UNL     1      44.232 -17.901   4.676  1.00  0.00     0.009 A 
HETATM   24  C   UNL     1      43.457 -16.753   4.435  1.00  0.00    -0.035 A 
HETATM   25  C   UNL     1      43.543 -15.616   5.417  1.00  0.00     0.050 C 
ENDBRANCH  15  18
ENDBRANCH  13  14
ENDBRANCH   1  13
BRANCH   4  26
HETATM   26  C   UNL     1      41.184 -11.334   6.149  1.00  0.00     0.175 C 
BRANCH  26  27
HETATM   27  C   UNL     1      42.571 -11.103   6.710  1.00  0.00    -0.037 A 
HETATM   28  C   UNL     1      42.887  -9.908   7.374  1.00  0.00     0.048 A 
HETATM   29  C   UNL     1      44.186  -9.736   7.814  1.00  0.00     0.105 A 
HETATM   30  C   UNL     1      45.150 -10.699   7.630  1.00  0.00     0.105 A 
HETATM   31  O   UNL     1      44.670  -8.637   8.451  1.00  0.00    -0.323 OA
HETATM   32  O   UNL     1      46.361 -10.329   8.128  1.00  0.00    -0.323 OA
HETATM   33  C   UNL     1      44.877 -11.889   6.998  1.00  0.00     0.040 A 
HETATM   34  C   UNL     1      46.053  -9.012   8.630  1.00  0.00     0.352 A 
HETATM   35  C   UNL     1      43.576 -12.087   6.533  1.00  0.00     0.012 A 
ENDBRANCH  26  27
ENDBRANCH   4  26
BRANCH  11  36
HETATM   36  C   UNL     1      40.126 -11.315  -1.737  1.00  0.00     0.252 C 
HETATM   37  N   UNL     1      39.513 -10.231  -2.335  1.00  0.00    -0.352 N 
HETATM   38  H   UNL     1      39.307  -9.402  -1.803  1.00  0.00     0.163 HD
HETATM   39  O   UNL     1      40.428 -12.327  -2.365  1.00  0.00    -0.268 OA
BRANCH  37  40
HETATM   40  C   UNL     1      39.539 -10.076  -3.790  1.00  0.00     0.084 C 
HETATM   41  C   UNL     1      38.344  -9.256  -4.287  1.00  0.00     0.025 C 
HETATM   42  C   UNL     1      38.445  -7.774  -3.929  1.00  0.00     0.002 C 
HETATM   43  C   UNL     1      39.775  -7.170  -4.369  1.00  0.00     0.000 C 
HETATM   44  C   UNL     1      40.962  -7.964  -3.835  1.00  0.00     0.002 C 
HETATM   45  C   UNL     1      40.870  -9.441  -4.224  1.00  0.00     0.025 C 
ENDBRANCH  37  40
ENDBRANCH  11  36
TORSDOF 7
ENDMDL
