MODEL 1
REMARK VINA RESULT:      -9.9      0.000      0.000
REMARK  3 active torsions:
REMARK  status: ('A' for Active; 'I' for Inactive)
REMARK    1  A    between atoms: N_12  and  C_13 
REMARK    2  A    between atoms: C_13  and  C_14 
REMARK       I    between atoms: C_14  and  N_15 
REMARK    3  A    between atoms: N_15  and  C_16 
ROOT
HETATM    1  C   UNL     1      44.332 -20.648   5.031  1.00  0.00     0.048 C 
HETATM    2  C   UNL     1      43.970 -19.340   4.390  1.00  0.00    -0.061 A 
HETATM    3  C   UNL     1      43.907 -18.165   5.158  1.00  0.00     0.021 A 
HETATM    4  C   UNL     1      43.562 -16.944   4.541  1.00  0.00     0.005 A 
HETATM    5  C   UNL     1      43.277 -16.938   3.171  1.00  0.00     0.044 A 
HETATM    6  N   UNL     1      42.983 -15.638   2.813  1.00  0.00    -0.350 N 
HETATM    7  H   UNL     1      42.750 -15.323   1.881  1.00  0.00     0.166 HD
HETATM    8  C   UNL     1      43.082 -14.830   3.909  1.00  0.00     0.116 A 
HETATM    9  C   UNL     1      43.426 -15.605   4.988  1.00  0.00     0.028 A 
HETATM   10  C   UNL     1      42.895 -13.411   3.986  1.00  0.00     0.291 A 
HETATM   11  O   UNL     1      42.596 -12.727   3.013  1.00  0.00    -0.264 OA
HETATM   12  N   UNL     1      43.083 -12.904   5.287  1.00  0.00    -0.224 N 
HETATM   13  N   UNL     1      43.441 -13.690   6.404  1.00  0.00    -0.180 NA
HETATM   14  C   UNL     1      43.600 -14.975   6.265  1.00  0.00     0.153 A 
HETATM   15  C   UNL     1      43.318 -18.098   2.390  1.00  0.00     0.031 A 
HETATM   16  C   UNL     1      43.667 -19.296   3.025  1.00  0.00     0.009 A 
ENDROOT
BRANCH  12  17
HETATM   17  C   UNL     1      43.102 -11.465   5.487  1.00  0.00     0.258 C 
BRANCH  17  18
HETATM   18  C   UNL     1      42.942 -10.733   6.838  1.00  0.00     0.244 C 
HETATM   19  N   UNL     1      44.018 -10.437   7.682  1.00  0.00    -0.321 N 
HETATM   20  C   UNL     1      45.395 -10.810   7.382  1.00  0.00     0.159 C 
HETATM   21  O   UNL     1      41.768 -10.452   7.136  1.00  0.00    -0.271 OA
BRANCH  19  22
HETATM   22  C   UNL     1      43.796  -9.790   8.955  1.00  0.00     0.037 A 
HETATM   23  C   UNL     1      43.449  -8.433   9.041  1.00  0.00     0.037 A 
HETATM   24  C   UNL     1      43.237  -7.790  10.277  1.00  0.00    -0.054 A 
HETATM   25  C   UNL     1      42.866  -6.333  10.285  1.00  0.00     0.049 C 
HETATM   26  C   UNL     1      43.399  -8.517  11.469  1.00  0.00    -0.056 A 
HETATM   27  C   UNL     1      43.156  -7.899  12.818  1.00  0.00     0.049 C 
HETATM   28  C   UNL     1      43.735  -9.875  11.391  1.00  0.00     0.009 A 
HETATM   29  C   UNL     1      43.936 -10.498  10.154  1.00  0.00     0.030 A 
ENDBRANCH  19  22
ENDBRANCH  17  18
ENDBRANCH  12  17
TORSDOF 3
ENDMDL
MODEL 2
REMARK VINA RESULT:      -9.4      1.752      2.624
REMARK  3 active torsions:
REMARK  status: ('A' for Active; 'I' for Inactive)
REMARK    1  A    between atoms: N_12  and  C_13 
REMARK    2  A    between atoms: C_13  and  C_14 
REMARK       I    between atoms: C_14  and  N_15 
REMARK    3  A    between atoms: N_15  and  C_16 
ROOT
HETATM    1  C   UNL     1      43.400 -18.940   3.121  1.00  0.00     0.048 C 
HETATM    2  C   UNL     1      43.303 -17.443   3.067  1.00  0.00    -0.061 A 
HETATM    3  C   UNL     1      43.441 -16.677   4.237  1.00  0.00     0.021 A 
HETATM    4  C   UNL     1      43.344 -15.271   4.169  1.00  0.00     0.005 A 
HETATM    5  C   UNL     1      43.099 -14.672   2.929  1.00  0.00     0.044 A 
HETATM    6  N   UNL     1      43.060 -13.307   3.127  1.00  0.00    -0.350 N 
HETATM    7  H   UNL     1      42.913 -12.612   2.407  1.00  0.00     0.166 HD
HETATM    8  C   UNL     1      43.280 -13.032   4.446  1.00  0.00     0.116 A 
HETATM    9  C   UNL     1      43.449 -14.219   5.114  1.00  0.00     0.028 A 
HETATM   10  C   UNL     1      43.359 -11.751   5.084  1.00  0.00     0.291 A 
HETATM   11  O   UNL     1      43.216 -10.696   4.476  1.00  0.00    -0.264 OA
HETATM   12  N   UNL     1      43.606 -11.844   6.469  1.00  0.00    -0.224 N 
HETATM   13  N   UNL     1      43.784 -13.058   7.166  1.00  0.00    -0.180 NA
HETATM   14  C   UNL     1      43.706 -14.189   6.524  1.00  0.00     0.153 A 
HETATM   15  C   UNL     1      42.942 -15.414   1.754  1.00  0.00     0.031 A 
HETATM   16  C   UNL     1      43.047 -16.808   1.847  1.00  0.00     0.009 A 
ENDROOT
BRANCH  12  17
HETATM   17  C   UNL     1      43.887 -10.630   7.218  1.00  0.00     0.258 C 
BRANCH  17  18
HETATM   18  C   UNL     1      43.582 -10.395   8.714  1.00  0.00     0.244 C 
HETATM   19  N   UNL     1      42.720  -9.392   9.172  1.00  0.00    -0.321 N 
HETATM   20  C   UNL     1      42.043  -8.453   8.285  1.00  0.00     0.159 C 
HETATM   21  O   UNL     1      44.190 -11.153   9.489  1.00  0.00    -0.271 OA
BRANCH  19  22
HETATM   22  C   UNL     1      42.512  -9.195  10.588  1.00  0.00     0.037 A 
HETATM   23  C   UNL     1      41.422  -9.768  11.259  1.00  0.00     0.037 A 
HETATM   24  C   UNL     1      41.205  -9.576  12.639  1.00  0.00    -0.054 A 
HETATM   25  C   UNL     1      40.014 -10.228  13.286  1.00  0.00     0.049 C 
HETATM   26  C   UNL     1      42.091  -8.766  13.370  1.00  0.00    -0.056 A 
HETATM   27  C   UNL     1      41.934  -8.549  14.849  1.00  0.00     0.049 C 
HETATM   28  C   UNL     1      43.187  -8.198  12.709  1.00  0.00     0.009 A 
HETATM   29  C   UNL     1      43.390  -8.404  11.339  1.00  0.00     0.030 A 
ENDBRANCH  19  22
ENDBRANCH  17  18
ENDBRANCH  12  17
TORSDOF 3
ENDMDL
MODEL 3
REMARK VINA RESULT:      -9.2      2.671      3.704
REMARK  3 active torsions:
REMARK  status: ('A' for Active; 'I' for Inactive)
REMARK    1  A    between atoms: N_12  and  C_13 
REMARK    2  A    between atoms: C_13  and  C_14 
REMARK       I    between atoms: C_14  and  N_15 
REMARK    3  A    between atoms: N_15  and  C_16 
ROOT
HETATM    1  C   UNL     1      39.819 -14.528  -0.644  1.00  0.00     0.048 C 
HETATM    2  C   UNL     1      40.346 -14.653   0.756  1.00  0.00    -0.061 A 
HETATM    3  C   UNL     1      41.224 -13.686   1.276  1.00  0.00     0.021 A 
HETATM    4  C   UNL     1      41.712 -13.820   2.592  1.00  0.00     0.005 A 
HETATM    5  C   UNL     1      41.316 -14.928   3.348  1.00  0.00     0.044 A 
HETATM    6  N   UNL     1      41.915 -14.822   4.587  1.00  0.00    -0.350 N 
HETATM    7  H   UNL     1      41.803 -15.474   5.353  1.00  0.00     0.166 HD
HETATM    8  C   UNL     1      42.665 -13.682   4.634  1.00  0.00     0.116 A 
HETATM    9  C   UNL     1      42.568 -13.050   3.420  1.00  0.00     0.028 A 
HETATM   10  C   UNL     1      43.424 -13.164   5.734  1.00  0.00     0.291 A 
HETATM   11  O   UNL     1      43.497 -13.733   6.818  1.00  0.00    -0.264 OA
HETATM   12  N   UNL     1      44.075 -11.953   5.427  1.00  0.00    -0.224 N 
HETATM   13  N   UNL     1      43.980 -11.291   4.184  1.00  0.00    -0.180 NA
HETATM   14  C   UNL     1      43.267 -11.813   3.227  1.00  0.00     0.153 A 
HETATM   15  C   UNL     1      40.457 -15.912   2.847  1.00  0.00     0.031 A 
HETATM   16  C   UNL     1      39.982 -15.754   1.539  1.00  0.00     0.009 A 
ENDROOT
BRANCH  12  17
HETATM   17  C   UNL     1      44.736 -11.217   6.492  1.00  0.00     0.258 C 
BRANCH  17  18
HETATM   18  C   UNL     1      44.057 -10.249   7.486  1.00  0.00     0.244 C 
HETATM   19  N   UNL     1      44.766  -9.325   8.262  1.00  0.00    -0.321 N 
HETATM   20  C   UNL     1      46.218  -9.200   8.228  1.00  0.00     0.159 C 
HETATM   21  O   UNL     1      42.823 -10.376   7.567  1.00  0.00    -0.271 OA
BRANCH  19  22
HETATM   22  C   UNL     1      44.075  -8.478   9.206  1.00  0.00     0.037 A 
HETATM   23  C   UNL     1      43.889  -8.861  10.543  1.00  0.00     0.037 A 
HETATM   24  C   UNL     1      43.210  -8.045  11.470  1.00  0.00    -0.054 A 
HETATM   25  C   UNL     1      43.056  -8.526  12.886  1.00  0.00     0.049 C 
HETATM   26  C   UNL     1      42.677  -6.816  11.046  1.00  0.00    -0.056 A 
HETATM   27  C   UNL     1      41.971  -5.886  11.993  1.00  0.00     0.049 C 
HETATM   28  C   UNL     1      42.866  -6.421   9.715  1.00  0.00     0.009 A 
HETATM   29  C   UNL     1      43.548  -7.242   8.810  1.00  0.00     0.030 A 
ENDBRANCH  19  22
ENDBRANCH  17  18
ENDBRANCH  12  17
TORSDOF 3
ENDMDL
MODEL 4
REMARK VINA RESULT:      -9.1      1.295      1.939
REMARK  3 active torsions:
REMARK  status: ('A' for Active; 'I' for Inactive)
REMARK    1  A    between atoms: N_12  and  C_13 
REMARK    2  A    between atoms: C_13  and  C_14 
REMARK       I    between atoms: C_14  and  N_15 
REMARK    3  A    between atoms: N_15  and  C_16 
ROOT
HETATM    1  C   UNL     1      43.861 -20.566   1.845  1.00  0.00     0.048 C 
HETATM    2  C   UNL     1      43.772 -19.544   2.941  1.00  0.00    -0.061 A 
HETATM    3  C   UNL     1      43.586 -18.185   2.635  1.00  0.00     0.021 A 
HETATM    4  C   UNL     1      43.507 -17.238   3.677  1.00  0.00     0.005 A 
HETATM    5  C   UNL     1      43.632 -17.679   4.999  1.00  0.00     0.044 A 
HETATM    6  N   UNL     1      43.510 -16.575   5.819  1.00  0.00    -0.350 N 
HETATM    7  H   UNL     1      43.546 -16.585   6.830  1.00  0.00     0.166 HD
HETATM    8  C   UNL     1      43.307 -15.461   5.056  1.00  0.00     0.116 A 
HETATM    9  C   UNL     1      43.310 -15.835   3.735  1.00  0.00     0.028 A 
HETATM   10  C   UNL     1      43.096 -14.112   5.492  1.00  0.00     0.291 A 
HETATM   11  O   UNL     1      43.086 -13.791   6.676  1.00  0.00    -0.264 OA
HETATM   12  N   UNL     1      42.913 -13.214   4.423  1.00  0.00    -0.224 N 
HETATM   13  N   UNL     1      42.910 -13.586   3.061  1.00  0.00    -0.180 NA
HETATM   14  C   UNL     1      43.103 -14.831   2.732  1.00  0.00     0.153 A 
HETATM   15  C   UNL     1      43.835 -19.023   5.327  1.00  0.00     0.031 A 
HETATM   16  C   UNL     1      43.904 -19.944   4.275  1.00  0.00     0.009 A 
ENDROOT
BRANCH  12  17
HETATM   17  C   UNL     1      42.514 -11.846   4.711  1.00  0.00     0.258 C 
BRANCH  17  18
HETATM   18  C   UNL     1      42.557 -11.159   6.094  1.00  0.00     0.244 C 
HETATM   19  N   UNL     1      43.748 -10.792   6.730  1.00  0.00    -0.321 N 
HETATM   20  C   UNL     1      45.068 -11.043   6.163  1.00  0.00     0.159 C 
HETATM   21  O   UNL     1      41.444 -10.982   6.617  1.00  0.00    -0.271 OA
BRANCH  19  22
HETATM   22  C   UNL     1      43.723 -10.192   8.045  1.00  0.00     0.037 A 
HETATM   23  C   UNL     1      43.489  -8.821   8.225  1.00  0.00     0.037 A 
HETATM   24  C   UNL     1      43.469  -8.225   9.502  1.00  0.00    -0.054 A 
HETATM   25  C   UNL     1      43.208  -6.748   9.611  1.00  0.00     0.049 C 
HETATM   26  C   UNL     1      43.714  -9.017  10.636  1.00  0.00    -0.056 A 
HETATM   27  C   UNL     1      43.674  -8.449  12.028  1.00  0.00     0.049 C 
HETATM   28  C   UNL     1      43.938 -10.389  10.466  1.00  0.00     0.009 A 
HETATM   29  C   UNL     1      43.949 -10.965   9.190  1.00  0.00     0.030 A 
ENDBRANCH  19  22
ENDBRANCH  17  18
ENDBRANCH  12  17
TORSDOF 3
ENDMDL
MODEL 5
REMARK VINA RESULT:      -8.9      2.269      9.558
REMARK  3 active torsions:
REMARK  status: ('A' for Active; 'I' for Inactive)
REMARK    1  A    between atoms: N_12  and  C_13 
REMARK    2  A    between atoms: C_13  and  C_14 
REMARK       I    between atoms: C_14  and  N_15 
REMARK    3  A    between atoms: N_15  and  C_16 
ROOT
HETATM    1  C   UNL     1      43.378  -6.457   9.388  1.00  0.00     0.048 C 
HETATM    2  C   UNL     1      42.399  -7.507   8.952  1.00  0.00    -0.061 A 
HETATM    3  C   UNL     1      42.663  -8.301   7.822  1.00  0.00     0.021 A 
HETATM    4  C   UNL     1      41.731  -9.282   7.423  1.00  0.00     0.005 A 
HETATM    5  C   UNL     1      40.552  -9.431   8.162  1.00  0.00     0.044 A 
HETATM    6  N   UNL     1      39.824 -10.450   7.582  1.00  0.00    -0.350 N 
HETATM    7  H   UNL     1      38.929 -10.793   7.907  1.00  0.00     0.166 HD
HETATM    8  C   UNL     1      40.509 -10.947   6.511  1.00  0.00     0.116 A 
HETATM    9  C   UNL     1      41.680 -10.244   6.383  1.00  0.00     0.028 A 
HETATM   10  C   UNL     1      40.140 -12.029   5.646  1.00  0.00     0.291 A 
HETATM   11  O   UNL     1      39.095 -12.656   5.775  1.00  0.00    -0.264 OA
HETATM   12  N   UNL     1      41.097 -12.275   4.641  1.00  0.00    -0.224 N 
HETATM   13  N   UNL     1      42.306 -11.561   4.500  1.00  0.00    -0.180 NA
HETATM   14  C   UNL     1      42.584 -10.592   5.325  1.00  0.00     0.153 A 
HETATM   15  C   UNL     1      40.261  -8.642   9.280  1.00  0.00     0.031 A 
HETATM   16  C   UNL     1      41.204  -7.679   9.658  1.00  0.00     0.009 A 
ENDROOT
BRANCH  12  17
HETATM   17  C   UNL     1      40.948 -13.451   3.799  1.00  0.00     0.258 C 
BRANCH  17  18
HETATM   18  C   UNL     1      41.531 -14.852   4.084  1.00  0.00     0.244 C 
HETATM   19  N   UNL     1      42.613 -15.391   3.379  1.00  0.00    -0.321 N 
HETATM   20  C   UNL     1      43.283 -14.693   2.288  1.00  0.00     0.159 C 
HETATM   21  O   UNL     1      40.940 -15.484   4.977  1.00  0.00    -0.271 OA
BRANCH  19  22
HETATM   22  C   UNL     1      43.082 -16.727   3.665  1.00  0.00     0.037 A 
HETATM   23  C   UNL     1      42.988 -17.760   2.720  1.00  0.00     0.037 A 
HETATM   24  C   UNL     1      43.436 -19.068   2.992  1.00  0.00    -0.054 A 
HETATM   25  C   UNL     1      43.303 -20.119   1.924  1.00  0.00     0.049 C 
HETATM   26  C   UNL     1      43.974 -19.364   4.256  1.00  0.00    -0.056 A 
HETATM   27  C   UNL     1      44.500 -20.731   4.597  1.00  0.00     0.049 C 
HETATM   28  C   UNL     1      44.081 -18.337   5.201  1.00  0.00     0.009 A 
HETATM   29  C   UNL     1      43.636 -17.042   4.912  1.00  0.00     0.030 A 
ENDBRANCH  19  22
ENDBRANCH  17  18
ENDBRANCH  12  17
TORSDOF 3
ENDMDL
MODEL 6
REMARK VINA RESULT:      -8.8      1.544      9.397
REMARK  3 active torsions:
REMARK  status: ('A' for Active; 'I' for Inactive)
REMARK    1  A    between atoms: N_12  and  C_13 
REMARK    2  A    between atoms: C_13  and  C_14 
REMARK       I    between atoms: C_14  and  N_15 
REMARK    3  A    between atoms: N_15  and  C_16 
ROOT
HETATM    1  C   UNL     1      41.936  -7.284  12.436  1.00  0.00     0.048 C 
HETATM    2  C   UNL     1      42.657  -8.155  11.449  1.00  0.00    -0.061 A 
HETATM    3  C   UNL     1      42.057  -8.489  10.223  1.00  0.00     0.021 A 
HETATM    4  C   UNL     1      42.747  -9.312   9.307  1.00  0.00     0.005 A 
HETATM    5  C   UNL     1      44.016  -9.787   9.654  1.00  0.00     0.044 A 
HETATM    6  N   UNL     1      44.477 -10.549   8.599  1.00  0.00    -0.350 N 
HETATM    7  H   UNL     1      45.374 -11.014   8.556  1.00  0.00     0.166 HD
HETATM    8  C   UNL     1      43.543 -10.560   7.603  1.00  0.00     0.116 A 
HETATM    9  C   UNL     1      42.465  -9.816   8.013  1.00  0.00     0.028 A 
HETATM   10  C   UNL     1      43.620 -11.196   6.321  1.00  0.00     0.291 A 
HETATM   11  O   UNL     1      44.592 -11.851   5.961  1.00  0.00    -0.264 OA
HETATM   12  N   UNL     1      42.466 -10.992   5.539  1.00  0.00    -0.224 N 
HETATM   13  N   UNL     1      41.353 -10.226   5.947  1.00  0.00    -0.180 NA
HETATM   14  C   UNL     1      41.348  -9.669   7.125  1.00  0.00     0.153 A 
HETATM   15  C   UNL     1      44.626  -9.482  10.875  1.00  0.00     0.031 A 
HETATM   16  C   UNL     1      43.923  -8.660  11.764  1.00  0.00     0.009 A 
ENDROOT
BRANCH  12  17
HETATM   17  C   UNL     1      42.468 -11.424   4.151  1.00  0.00     0.258 C 
BRANCH  17  18
HETATM   18  C   UNL     1      42.704 -12.866   3.649  1.00  0.00     0.244 C 
HETATM   19  N   UNL     1      42.010 -13.974   4.147  1.00  0.00    -0.321 N 
HETATM   20  C   UNL     1      41.013 -13.882   5.206  1.00  0.00     0.159 C 
HETATM   21  O   UNL     1      43.588 -12.970   2.781  1.00  0.00    -0.271 OA
BRANCH  19  22
HETATM   22  C   UNL     1      42.310 -15.303   3.666  1.00  0.00     0.037 A 
HETATM   23  C   UNL     1      43.219 -16.140   4.329  1.00  0.00     0.037 A 
HETATM   24  C   UNL     1      43.524 -17.435   3.864  1.00  0.00    -0.054 A 
HETATM   25  C   UNL     1      44.508 -18.272   4.634  1.00  0.00     0.049 C 
HETATM   26  C   UNL     1      42.920 -17.904   2.685  1.00  0.00    -0.056 A 
HETATM   27  C   UNL     1      43.177 -19.287   2.155  1.00  0.00     0.049 C 
HETATM   28  C   UNL     1      42.003 -17.079   2.022  1.00  0.00     0.009 A 
HETATM   29  C   UNL     1      41.709 -15.797   2.502  1.00  0.00     0.030 A 
ENDBRANCH  19  22
ENDBRANCH  17  18
ENDBRANCH  12  17
TORSDOF 3
ENDMDL
MODEL 7
REMARK VINA RESULT:      -8.7      2.823      9.864
REMARK  3 active torsions:
REMARK  status: ('A' for Active; 'I' for Inactive)
REMARK    1  A    between atoms: N_12  and  C_13 
REMARK    2  A    between atoms: C_13  and  C_14 
REMARK       I    between atoms: C_14  and  N_15 
REMARK    3  A    between atoms: N_15  and  C_16 
ROOT
HETATM    1  C   UNL     1      41.324  -8.180  15.979  1.00  0.00     0.048 C 
HETATM    2  C   UNL     1      41.736  -7.816  14.582  1.00  0.00    -0.061 A 
HETATM    3  C   UNL     1      42.367  -8.762  13.756  1.00  0.00     0.021 A 
HETATM    4  C   UNL     1      42.751  -8.404  12.447  1.00  0.00     0.005 A 
HETATM    5  C   UNL     1      42.503  -7.099  12.006  1.00  0.00     0.044 A 
HETATM    6  N   UNL     1      42.956  -7.007  10.706  1.00  0.00    -0.350 N 
HETATM    7  H   UNL     1      42.900  -6.184  10.120  1.00  0.00     0.166 HD
HETATM    8  C   UNL     1      43.471  -8.209  10.317  1.00  0.00     0.116 A 
HETATM    9  C   UNL     1      43.368  -9.085  11.368  1.00  0.00     0.028 A 
HETATM   10  C   UNL     1      44.018  -8.570   9.041  1.00  0.00     0.291 A 
HETATM   11  O   UNL     1      44.097  -7.782   8.106  1.00  0.00    -0.264 OA
HETATM   12  N   UNL     1      44.454  -9.909   8.993  1.00  0.00    -0.224 N 
HETATM   13  N   UNL     1      44.350 -10.820  10.065  1.00  0.00    -0.180 NA
HETATM   14  C   UNL     1      43.838 -10.430  11.197  1.00  0.00     0.153 A 
HETATM   15  C   UNL     1      41.892  -6.136  12.815  1.00  0.00     0.031 A 
HETATM   16  C   UNL     1      41.516  -6.518  14.109  1.00  0.00     0.009 A 
ENDROOT
BRANCH  12  17
HETATM   17  C   UNL     1      44.867 -10.470   7.717  1.00  0.00     0.258 C 
BRANCH  17  18
HETATM   18  C   UNL     1      44.184 -11.640   6.975  1.00  0.00     0.244 C 
HETATM   19  N   UNL     1      43.078 -11.473   6.134  1.00  0.00    -0.321 N 
HETATM   20  C   UNL     1      42.446 -10.182   5.892  1.00  0.00     0.159 C 
HETATM   21  O   UNL     1      44.678 -12.756   7.208  1.00  0.00    -0.271 OA
BRANCH  19  22
HETATM   22  C   UNL     1      42.457 -12.615   5.504  1.00  0.00     0.037 A 
HETATM   23  C   UNL     1      42.974 -13.180   4.328  1.00  0.00     0.037 A 
HETATM   24  C   UNL     1      42.372 -14.290   3.702  1.00  0.00    -0.054 A 
HETATM   25  C   UNL     1      42.989 -14.839   2.445  1.00  0.00     0.049 C 
HETATM   26  C   UNL     1      41.202 -14.841   4.251  1.00  0.00    -0.056 A 
HETATM   27  C   UNL     1      40.530 -16.044   3.650  1.00  0.00     0.049 C 
HETATM   28  C   UNL     1      40.685 -14.289   5.430  1.00  0.00     0.009 A 
HETATM   29  C   UNL     1      41.300 -13.190   6.042  1.00  0.00     0.030 A 
ENDBRANCH  19  22
ENDBRANCH  17  18
ENDBRANCH  12  17
TORSDOF 3
ENDMDL
MODEL 8
REMARK VINA RESULT:      -8.7      1.841      3.007
REMARK  3 active torsions:
REMARK  status: ('A' for Active; 'I' for Inactive)
REMARK    1  A    between atoms: N_12  and  C_13 
REMARK    2  A    between atoms: C_13  and  C_14 
REMARK       I    between atoms: C_14  and  N_15 
REMARK    3  A    between atoms: N_15  and  C_16 
ROOT
HETATM    1  C   UNL     1      43.697 -20.573   1.651  1.00  0.00     0.048 C 
HETATM    2  C   UNL     1      43.648 -19.449   2.645  1.00  0.00    -0.061 A 
HETATM    3  C   UNL     1      43.164 -18.184   2.267  1.00  0.00     0.021 A 
HETATM    4  C   UNL     1      43.128 -17.138   3.213  1.00  0.00     0.005 A 
HETATM    5  C   UNL     1      43.591 -17.386   4.510  1.00  0.00     0.044 A 
HETATM    6  N   UNL     1      43.441 -16.221   5.234  1.00  0.00    -0.350 N 
HETATM    7  H   UNL     1      43.679 -16.100   6.210  1.00  0.00     0.166 HD
HETATM    8  C   UNL     1      42.893 -15.257   4.438  1.00  0.00     0.116 A 
HETATM    9  C   UNL     1      42.699 -15.787   3.187  1.00  0.00     0.028 A 
HETATM   10  C   UNL     1      42.536 -13.913   4.788  1.00  0.00     0.291 A 
HETATM   11  O   UNL     1      42.706 -13.452   5.911  1.00  0.00    -0.264 OA
HETATM   12  N   UNL     1      41.986 -13.194   3.708  1.00  0.00    -0.224 N 
HETATM   13  N   UNL     1      41.778 -13.730   2.419  1.00  0.00    -0.180 NA
HETATM   14  C   UNL     1      42.119 -14.961   2.168  1.00  0.00     0.153 A 
HETATM   15  C   UNL     1      44.092 -18.631   4.904  1.00  0.00     0.031 A 
HETATM   16  C   UNL     1      44.113 -19.654   3.948  1.00  0.00     0.009 A 
ENDROOT
BRANCH  12  17
HETATM   17  C   UNL     1      41.415 -11.881   3.954  1.00  0.00     0.258 C 
BRANCH  17  18
HETATM   18  C   UNL     1      41.957 -10.823   4.941  1.00  0.00     0.244 C 
HETATM   19  N   UNL     1      41.265 -10.418   6.088  1.00  0.00    -0.321 N 
HETATM   20  C   UNL     1      39.952 -10.936   6.453  1.00  0.00     0.159 C 
HETATM   21  O   UNL     1      43.053 -10.333   4.619  1.00  0.00    -0.271 OA
BRANCH  19  22
HETATM   22  C   UNL     1      41.808  -9.391   6.947  1.00  0.00     0.037 A 
HETATM   23  C   UNL     1      42.691  -9.696   7.994  1.00  0.00     0.037 A 
HETATM   24  C   UNL     1      43.220  -8.703   8.842  1.00  0.00    -0.054 A 
HETATM   25  C   UNL     1      44.164  -9.111   9.940  1.00  0.00     0.049 C 
HETATM   26  C   UNL     1      42.838  -7.364   8.657  1.00  0.00    -0.056 A 
HETATM   27  C   UNL     1      43.392  -6.254   9.507  1.00  0.00     0.049 C 
HETATM   28  C   UNL     1      41.965  -7.049   7.609  1.00  0.00     0.009 A 
HETATM   29  C   UNL     1      41.453  -8.048   6.772  1.00  0.00     0.030 A 
ENDBRANCH  19  22
ENDBRANCH  17  18
ENDBRANCH  12  17
TORSDOF 3
ENDMDL
MODEL 9
REMARK VINA RESULT:      -8.6      5.371      7.191
REMARK  3 active torsions:
REMARK  status: ('A' for Active; 'I' for Inactive)
REMARK    1  A    between atoms: N_12  and  C_13 
REMARK    2  A    between atoms: C_13  and  C_14 
REMARK       I    between atoms: C_14  and  N_15 
REMARK    3  A    between atoms: N_15  and  C_16 
ROOT
HETATM    1  C   UNL     1      43.916 -20.813   2.270  1.00  0.00     0.048 C 
HETATM    2  C   UNL     1      43.753 -19.461   2.899  1.00  0.00    -0.061 A 
HETATM    3  C   UNL     1      43.148 -18.411   2.187  1.00  0.00     0.021 A 
HETATM    4  C   UNL     1      43.005 -17.145   2.792  1.00  0.00     0.005 A 
HETATM    5  C   UNL     1      43.486 -16.962   4.093  1.00  0.00     0.044 A 
HETATM    6  N   UNL     1      43.219 -15.658   4.455  1.00  0.00    -0.350 N 
HETATM    7  H   UNL     1      43.441 -15.238   5.349  1.00  0.00     0.166 HD
HETATM    8  C   UNL     1      42.581 -15.021   3.430  1.00  0.00     0.116 A 
HETATM    9  C   UNL     1      42.444 -15.907   2.390  1.00  0.00     0.028 A 
HETATM   10  C   UNL     1      42.092 -13.675   3.388  1.00  0.00     0.291 A 
HETATM   11  O   UNL     1      42.212 -12.895   4.326  1.00  0.00    -0.264 OA
HETATM   12  N   UNL     1      41.477 -13.354   2.161  1.00  0.00    -0.224 N 
HETATM   13  N   UNL     1      41.326 -14.256   1.087  1.00  0.00    -0.180 NA
HETATM   14  C   UNL     1      41.789 -15.469   1.191  1.00  0.00     0.153 A 
HETATM   15  C   UNL     1      44.107 -17.986   4.815  1.00  0.00     0.031 A 
HETATM   16  C   UNL     1      44.232 -19.235   4.194  1.00  0.00     0.009 A 
ENDROOT
BRANCH  12  17
HETATM   17  C   UNL     1      40.777 -12.087   2.033  1.00  0.00     0.258 C 
BRANCH  17  18
HETATM   18  C   UNL     1      41.357 -10.785   1.437  1.00  0.00     0.244 C 
HETATM   19  N   UNL     1      40.786 -10.121   0.345  1.00  0.00    -0.321 N 
HETATM   20  C   UNL     1      39.601 -10.605  -0.354  1.00  0.00     0.159 C 
HETATM   21  O   UNL     1      42.397 -10.385   1.987  1.00  0.00    -0.271 OA
BRANCH  19  22
HETATM   22  C   UNL     1      41.403  -8.931  -0.194  1.00  0.00     0.037 A 
HETATM   23  C   UNL     1      41.066  -7.651   0.271  1.00  0.00     0.037 A 
HETATM   24  C   UNL     1      41.657  -6.483  -0.253  1.00  0.00    -0.054 A 
HETATM   25  C   UNL     1      41.244  -5.148   0.301  1.00  0.00     0.049 C 
HETATM   26  C   UNL     1      42.597  -6.593  -1.291  1.00  0.00    -0.056 A 
HETATM   27  C   UNL     1      43.287  -5.389  -1.870  1.00  0.00     0.049 C 
HETATM   28  C   UNL     1      42.947  -7.868  -1.754  1.00  0.00     0.009 A 
HETATM   29  C   UNL     1      42.354  -9.017  -1.218  1.00  0.00     0.030 A 
ENDBRANCH  19  22
ENDBRANCH  17  18
ENDBRANCH  12  17
TORSDOF 3
ENDMDL
MODEL 10
REMARK VINA RESULT:      -8.6      1.961      9.552
REMARK  3 active torsions:
REMARK  status: ('A' for Active; 'I' for Inactive)
REMARK    1  A    between atoms: N_12  and  C_13 
REMARK    2  A    between atoms: C_13  and  C_14 
REMARK       I    between atoms: C_14  and  N_15 
REMARK    3  A    between atoms: N_15  and  C_16 
ROOT
HETATM    1  C   UNL     1      42.869  -7.130  14.579  1.00  0.00     0.048 C 
HETATM    2  C   UNL     1      42.526  -7.590  13.192  1.00  0.00    -0.061 A 
HETATM    3  C   UNL     1      43.457  -8.320  12.434  1.00  0.00     0.021 A 
HETATM    4  C   UNL     1      43.121  -8.742  11.131  1.00  0.00     0.005 A 
HETATM    5  C   UNL     1      41.863  -8.408  10.618  1.00  0.00     0.044 A 
HETATM    6  N   UNL     1      41.777  -8.940   9.347  1.00  0.00    -0.350 N 
HETATM    7  H   UNL     1      40.976  -8.871   8.733  1.00  0.00     0.166 HD
HETATM    8  C   UNL     1      42.934  -9.601   9.051  1.00  0.00     0.116 A 
HETATM    9  C   UNL     1      43.783  -9.489  10.124  1.00  0.00     0.028 A 
HETATM   10  C   UNL     1      43.262 -10.326   7.859  1.00  0.00     0.291 A 
HETATM   11  O   UNL     1      42.492 -10.427   6.910  1.00  0.00    -0.264 OA
HETATM   12  N   UNL     1      44.552 -10.890   7.900  1.00  0.00    -0.224 N 
HETATM   13  N   UNL     1      45.433 -10.786   8.997  1.00  0.00    -0.180 NA
HETATM   14  C   UNL     1      45.071 -10.116  10.054  1.00  0.00     0.153 A 
HETATM   15  C   UNL     1      40.927  -7.668  11.347  1.00  0.00     0.031 A 
HETATM   16  C   UNL     1      41.283  -7.265  12.640  1.00  0.00     0.009 A 
ENDROOT
BRANCH  12  17
HETATM   17  C   UNL     1      44.958 -11.800   6.841  1.00  0.00     0.258 C 
BRANCH  17  18
HETATM   18  C   UNL     1      44.034 -12.411   5.764  1.00  0.00     0.244 C 
HETATM   19  N   UNL     1      43.267 -13.562   5.975  1.00  0.00    -0.321 N 
HETATM   20  C   UNL     1      43.281 -14.314   7.224  1.00  0.00     0.159 C 
HETATM   21  O   UNL     1      44.047 -11.813   4.674  1.00  0.00    -0.271 OA
BRANCH  19  22
HETATM   22  C   UNL     1      42.456 -14.108   4.911  1.00  0.00     0.037 A 
HETATM   23  C   UNL     1      42.911 -15.162   4.105  1.00  0.00     0.037 A 
HETATM   24  C   UNL     1      42.131 -15.698   3.060  1.00  0.00    -0.054 A 
HETATM   25  C   UNL     1      42.689 -16.830   2.242  1.00  0.00     0.049 C 
HETATM   26  C   UNL     1      40.866 -15.149   2.793  1.00  0.00    -0.056 A 
HETATM   27  C   UNL     1      39.972 -15.695   1.715  1.00  0.00     0.049 C 
HETATM   28  C   UNL     1      40.400 -14.103   3.600  1.00  0.00     0.009 A 
HETATM   29  C   UNL     1      41.186 -13.587   4.637  1.00  0.00     0.030 A 
ENDBRANCH  19  22
ENDBRANCH  17  18
ENDBRANCH  12  17
TORSDOF 3
ENDMDL
