MODEL 1
REMARK VINA RESULT:      -9.9      0.000      0.000
REMARK  5 active torsions:
REMARK  status: ('A' for Active; 'I' for Inactive)
REMARK    1  A    between atoms: C_7  and  N_8 
REMARK       I    between atoms: N_8  and  C_9 
REMARK       I    between atoms: C_9  and  N_10 
REMARK    2  A    between atoms: N_10  and  C_11 
REMARK    3  A    between atoms: C_18  and  C_19 
REMARK       I    between atoms: C_19  and  N_20 
REMARK    4  A    between atoms: N_20  and  C_21 
REMARK    5  A    between atoms: C_21  and  C_22 
ROOT
HETATM    1  C   UNL     1      40.277 -12.736   5.217  1.00  0.00     0.104 C 
HETATM    2  C   UNL     1      40.941 -11.450   5.779  1.00  0.00     0.150 C 
HETATM    3  N   UNL     1      42.275 -11.233   5.227  1.00  0.00    -0.354 N 
HETATM    4  C   UNL     1      42.375 -10.295   4.119  1.00  0.00     0.152 C 
HETATM    5  C   UNL     1      43.398 -11.923   5.639  1.00  0.00     0.220 C 
HETATM    6  O   UNL     1      44.502 -11.781   5.104  1.00  0.00    -0.273 OA
HETATM    7  C   UNL     1      43.269 -12.928   6.766  1.00  0.00     0.117 C 
HETATM    8  C   UNL     1      43.075 -14.405   6.385  1.00  0.00     0.086 C 
HETATM    9  C   UNL     1      41.856 -15.035   7.115  1.00  0.00     0.014 C 
HETATM   10  C   UNL     1      40.442 -14.971   6.512  1.00  0.00     0.003 C 
HETATM   11  C   UNL     1      39.751 -13.609   6.377  1.00  0.00     0.027 C 
ENDROOT
BRANCH   1  12
HETATM   12  N   UNL     1      39.226 -12.357   4.261  1.00  0.00    -0.337 N 
HETATM   13  C   UNL     1      39.184 -12.330   2.901  1.00  0.00     0.321 C 
HETATM   14  N   UNL     1      40.267 -12.823   2.246  1.00  0.00    -0.305 N 
HETATM   15  O   UNL     1      38.153 -11.896   2.399  1.00  0.00    -0.247 OA
HETATM   16  H   UNL     1      41.117 -12.921   2.775  1.00  0.00     0.171 HD
HETATM   17  H   UNL     1      38.375 -11.943   4.625  1.00  0.00     0.164 HD
BRANCH  14  18
HETATM   18  C   UNL     1      40.362 -13.121   0.890  1.00  0.00     0.094 A 
HETATM   19  C   UNL     1      40.227 -14.427   0.327  1.00  0.00     0.087 A 
HETATM   20  C   UNL     1      39.958 -15.709   1.016  1.00  0.00     0.075 C 
HETATM   21  N   UNL     1      40.337 -14.406  -1.005  1.00  0.00    -0.131 NA
HETATM   22  O   UNL     1      40.544 -13.087  -1.338  1.00  0.00    -0.216 OA
HETATM   23  C   UNL     1      40.552 -12.314  -0.214  1.00  0.00     0.103 A 
HETATM   24  C   UNL     1      40.754 -10.877  -0.475  1.00  0.00     0.081 C 
ENDBRANCH  14  18
ENDBRANCH   1  12
BRANCH   8  25
HETATM   25  C   UNL     1      43.186 -14.839   4.914  1.00  0.00     0.222 C 
HETATM   26  N   UNL     1      43.584 -16.133   4.689  1.00  0.00    -0.356 N 
HETATM   27  H   UNL     1      44.010 -16.677   5.436  1.00  0.00     0.162 HD
HETATM   28  O   UNL     1      42.842 -14.100   3.993  1.00  0.00    -0.273 OA
BRANCH  26  29
HETATM   29  C   UNL     1      43.690 -16.684   3.356  1.00  0.00     0.161 C 
BRANCH  29  30
HETATM   30  C   UNL     1      43.740 -18.190   3.355  1.00  0.00    -0.035 A 
HETATM   31  C   UNL     1      44.109 -18.905   4.502  1.00  0.00     0.051 A 
HETATM   32  C   UNL     1      44.162 -20.299   4.468  1.00  0.00     0.119 A 
HETATM   33  F   UNL     1      44.523 -20.967   5.572  1.00  0.00    -0.206 F 
HETATM   34  C   UNL     1      43.857 -21.005   3.313  1.00  0.00     0.084 A 
HETATM   35  C   UNL     1      43.498 -20.298   2.176  1.00  0.00     0.119 A 
HETATM   36  F   UNL     1      43.201 -20.958   1.051  1.00  0.00    -0.206 F 
HETATM   37  C   UNL     1      43.439 -18.906   2.185  1.00  0.00     0.051 A 
ENDBRANCH  29  30
ENDBRANCH  26  29
ENDBRANCH   8  25
TORSDOF 5
ENDMDL
MODEL 2
REMARK VINA RESULT:      -9.2      2.835      6.309
REMARK  5 active torsions:
REMARK  status: ('A' for Active; 'I' for Inactive)
REMARK    1  A    between atoms: C_7  and  N_8 
REMARK       I    between atoms: N_8  and  C_9 
REMARK       I    between atoms: C_9  and  N_10 
REMARK    2  A    between atoms: N_10  and  C_11 
REMARK    3  A    between atoms: C_18  and  C_19 
REMARK       I    between atoms: C_19  and  N_20 
REMARK    4  A    between atoms: N_20  and  C_21 
REMARK    5  A    between atoms: C_21  and  C_22 
ROOT
HETATM    1  C   UNL     1      42.744 -12.558   5.371  1.00  0.00     0.104 C 
HETATM    2  C   UNL     1      41.504 -13.086   6.142  1.00  0.00     0.150 C 
HETATM    3  N   UNL     1      41.252 -14.499   5.876  1.00  0.00    -0.354 N 
HETATM    4  C   UNL     1      41.746 -15.444   6.867  1.00  0.00     0.152 C 
HETATM    5  C   UNL     1      40.662 -14.971   4.721  1.00  0.00     0.220 C 
HETATM    6  O   UNL     1      40.531 -16.175   4.481  1.00  0.00    -0.273 OA
HETATM    7  C   UNL     1      40.191 -13.975   3.679  1.00  0.00     0.117 C 
HETATM    8  C   UNL     1      41.140 -13.664   2.510  1.00  0.00     0.086 C 
HETATM    9  C   UNL     1      41.350 -12.135   2.328  1.00  0.00     0.014 C 
HETATM   10  C   UNL     1      42.464 -11.385   3.081  1.00  0.00     0.003 C 
HETATM   11  C   UNL     1      42.381 -11.266   4.607  1.00  0.00     0.027 C 
ENDROOT
BRANCH   1  12
HETATM   12  N   UNL     1      43.855 -12.373   6.316  1.00  0.00    -0.337 N 
HETATM   13  C   UNL     1      44.109 -11.437   7.271  1.00  0.00     0.321 C 
HETATM   14  N   UNL     1      43.135 -10.517   7.498  1.00  0.00    -0.305 N 
HETATM   15  O   UNL     1      45.179 -11.539   7.858  1.00  0.00    -0.247 OA
HETATM   16  H   UNL     1      42.427 -10.415   6.790  1.00  0.00     0.171 HD
HETATM   17  H   UNL     1      44.663 -12.980   6.227  1.00  0.00     0.164 HD
BRANCH  14  18
HETATM   18  C   UNL     1      43.057  -9.627   8.564  1.00  0.00     0.094 A 
HETATM   19  C   UNL     1      42.652  -8.261   8.463  1.00  0.00     0.087 A 
HETATM   20  C   UNL     1      42.231  -7.506   7.261  1.00  0.00     0.075 C 
HETATM   21  N   UNL     1      42.645  -7.657   9.655  1.00  0.00    -0.131 NA
HETATM   22  O   UNL     1      43.044  -8.616  10.558  1.00  0.00    -0.216 OA
HETATM   23  C   UNL     1      43.283  -9.795   9.916  1.00  0.00     0.103 A 
HETATM   24  C   UNL     1      43.703 -10.891  10.809  1.00  0.00     0.081 C 
ENDBRANCH  14  18
ENDBRANCH   1  12
BRANCH   8  25
HETATM   25  C   UNL     1      42.435 -14.475   2.336  1.00  0.00     0.222 C 
HETATM   26  N   UNL     1      42.286 -15.807   2.042  1.00  0.00    -0.356 N 
HETATM   27  H   UNL     1      41.388 -16.265   2.178  1.00  0.00     0.162 HD
HETATM   28  O   UNL     1      43.543 -13.939   2.359  1.00  0.00    -0.273 OA
BRANCH  26  29
HETATM   29  C   UNL     1      43.419 -16.675   1.811  1.00  0.00     0.161 C 
BRANCH  29  30
HETATM   30  C   UNL     1      43.610 -17.682   2.916  1.00  0.00    -0.035 A 
HETATM   31  C   UNL     1      43.757 -17.277   4.250  1.00  0.00     0.051 A 
HETATM   32  C   UNL     1      43.948 -18.230   5.251  1.00  0.00     0.119 A 
HETATM   33  F   UNL     1      44.093 -17.826   6.520  1.00  0.00    -0.206 F 
HETATM   34  C   UNL     1      43.999 -19.586   4.957  1.00  0.00     0.084 A 
HETATM   35  C   UNL     1      43.860 -19.986   3.637  1.00  0.00     0.119 A 
HETATM   36  F   UNL     1      43.908 -21.287   3.331  1.00  0.00    -0.206 F 
HETATM   37  C   UNL     1      43.670 -19.053   2.620  1.00  0.00     0.051 A 
ENDBRANCH  29  30
ENDBRANCH  26  29
ENDBRANCH   8  25
TORSDOF 5
ENDMDL
MODEL 3
REMARK VINA RESULT:      -9.1      2.886      6.237
REMARK  5 active torsions:
REMARK  status: ('A' for Active; 'I' for Inactive)
REMARK    1  A    between atoms: C_7  and  N_8 
REMARK       I    between atoms: N_8  and  C_9 
REMARK       I    between atoms: C_9  and  N_10 
REMARK    2  A    between atoms: N_10  and  C_11 
REMARK    3  A    between atoms: C_18  and  C_19 
REMARK       I    between atoms: C_19  and  N_20 
REMARK    4  A    between atoms: N_20  and  C_21 
REMARK    5  A    between atoms: C_21  and  C_22 
ROOT
HETATM    1  C   UNL     1      41.206  -9.673   4.975  1.00  0.00     0.104 C 
HETATM    2  C   UNL     1      39.680  -9.732   5.257  1.00  0.00     0.150 C 
HETATM    3  N   UNL     1      39.309 -10.908   6.037  1.00  0.00    -0.354 N 
HETATM    4  C   UNL     1      39.139 -10.709   7.470  1.00  0.00     0.152 C 
HETATM    5  C   UNL     1      39.202 -12.178   5.509  1.00  0.00     0.220 C 
HETATM    6  O   UNL     1      38.965 -13.172   6.203  1.00  0.00    -0.273 OA
HETATM    7  C   UNL     1      39.424 -12.375   4.023  1.00  0.00     0.117 C 
HETATM    8  C   UNL     1      40.826 -12.810   3.564  1.00  0.00     0.086 C 
HETATM    9  C   UNL     1      41.376 -11.890   2.438  1.00  0.00     0.014 C 
HETATM   10  C   UNL     1      42.171 -10.613   2.765  1.00  0.00     0.003 C 
HETATM   11  C   UNL     1      41.458  -9.452   3.469  1.00  0.00     0.027 C 
ENDROOT
BRANCH   1  12
HETATM   12  N   UNL     1      41.811  -8.631   5.818  1.00  0.00    -0.337 N 
HETATM   13  C   UNL     1      42.494  -8.677   6.995  1.00  0.00     0.321 C 
HETATM   14  N   UNL     1      42.776  -9.911   7.489  1.00  0.00    -0.305 N 
HETATM   15  O   UNL     1      42.819  -7.598   7.476  1.00  0.00    -0.247 OA
HETATM   16  H   UNL     1      42.249 -10.685   7.119  1.00  0.00     0.171 HD
HETATM   17  H   UNL     1      41.644  -7.661   5.573  1.00  0.00     0.164 HD
BRANCH  14  18
HETATM   18  C   UNL     1      43.651 -10.217   8.526  1.00  0.00     0.094 A 
HETATM   19  C   UNL     1      44.991 -10.682   8.357  1.00  0.00     0.087 A 
HETATM   20  C   UNL     1      45.735 -10.927   7.100  1.00  0.00     0.075 C 
HETATM   21  N   UNL     1      45.604 -10.866   9.530  1.00  0.00    -0.131 NA
HETATM   22  O   UNL     1      44.677 -10.526  10.488  1.00  0.00    -0.216 OA
HETATM   23  C   UNL     1      43.514 -10.130   9.897  1.00  0.00     0.103 A 
HETATM   24  C   UNL     1      42.462  -9.729  10.850  1.00  0.00     0.081 C 
ENDBRANCH  14  18
ENDBRANCH   1  12
BRANCH   8  25
HETATM   25  C   UNL     1      41.891 -13.190   4.604  1.00  0.00     0.222 C 
HETATM   26  N   UNL     1      42.211 -14.522   4.691  1.00  0.00    -0.356 N 
HETATM   27  H   UNL     1      41.605 -15.224   4.272  1.00  0.00     0.162 HD
HETATM   28  O   UNL     1      42.497 -12.338   5.253  1.00  0.00    -0.273 OA
BRANCH  26  29
HETATM   29  C   UNL     1      43.226 -15.012   5.598  1.00  0.00     0.161 C 
BRANCH  29  30
HETATM   30  C   UNL     1      43.455 -16.495   5.462  1.00  0.00    -0.035 A 
HETATM   31  C   UNL     1      43.243 -17.365   6.540  1.00  0.00     0.051 A 
HETATM   32  C   UNL     1      43.478 -18.732   6.390  1.00  0.00     0.119 A 
HETATM   33  F   UNL     1      43.277 -19.548   7.432  1.00  0.00    -0.206 F 
HETATM   34  C   UNL     1      43.925 -19.260   5.187  1.00  0.00     0.084 A 
HETATM   35  C   UNL     1      44.141 -18.399   4.122  1.00  0.00     0.119 A 
HETATM   36  F   UNL     1      44.573 -18.886   2.953  1.00  0.00    -0.206 F 
HETATM   37  C   UNL     1      43.914 -17.030   4.248  1.00  0.00     0.051 A 
ENDBRANCH  29  30
ENDBRANCH  26  29
ENDBRANCH   8  25
TORSDOF 5
ENDMDL
MODEL 4
REMARK VINA RESULT:      -9.0      2.034      3.433
REMARK  5 active torsions:
REMARK  status: ('A' for Active; 'I' for Inactive)
REMARK    1  A    between atoms: C_7  and  N_8 
REMARK       I    between atoms: N_8  and  C_9 
REMARK       I    between atoms: C_9  and  N_10 
REMARK    2  A    between atoms: N_10  and  C_11 
REMARK    3  A    between atoms: C_18  and  C_19 
REMARK       I    between atoms: C_19  and  N_20 
REMARK    4  A    between atoms: N_20  and  C_21 
REMARK    5  A    between atoms: C_21  and  C_22 
ROOT
HETATM    1  C   UNL     1      41.290 -10.385   3.052  1.00  0.00     0.104 C 
HETATM    2  C   UNL     1      42.381 -10.183   4.139  1.00  0.00     0.150 C 
HETATM    3  N   UNL     1      43.046 -11.434   4.490  1.00  0.00    -0.354 N 
HETATM    4  C   UNL     1      44.328 -11.689   3.849  1.00  0.00     0.152 C 
HETATM    5  C   UNL     1      42.490 -12.396   5.309  1.00  0.00     0.220 C 
HETATM    6  O   UNL     1      43.036 -13.482   5.528  1.00  0.00    -0.273 OA
HETATM    7  C   UNL     1      41.134 -12.133   5.934  1.00  0.00     0.117 C 
HETATM    8  C   UNL     1      39.897 -12.698   5.217  1.00  0.00     0.086 C 
HETATM    9  C   UNL     1      38.814 -11.608   4.989  1.00  0.00     0.014 C 
HETATM   10  C   UNL     1      38.815 -10.730   3.724  1.00  0.00     0.003 C 
HETATM   11  C   UNL     1      39.964  -9.739   3.507  1.00  0.00     0.027 C 
ENDROOT
BRANCH   1  12
HETATM   12  N   UNL     1      41.781  -9.850   1.773  1.00  0.00    -0.337 N 
HETATM   13  C   UNL     1      41.546 -10.196   0.478  1.00  0.00     0.321 C 
HETATM   14  N   UNL     1      40.616 -11.164   0.263  1.00  0.00    -0.305 N 
HETATM   15  O   UNL     1      42.172  -9.574  -0.372  1.00  0.00    -0.247 OA
HETATM   16  H   UNL     1      40.363 -11.739   1.049  1.00  0.00     0.171 HD
HETATM   17  H   UNL     1      42.506  -9.142   1.798  1.00  0.00     0.164 HD
BRANCH  14  18
HETATM   18  C   UNL     1      40.038 -11.513  -0.953  1.00  0.00     0.094 A 
HETATM   19  C   UNL     1      39.855 -12.851  -1.419  1.00  0.00     0.087 A 
HETATM   20  C   UNL     1      40.212 -14.122  -0.749  1.00  0.00     0.075 C 
HETATM   21  N   UNL     1      39.247 -12.883  -2.609  1.00  0.00    -0.131 NA
HETATM   22  O   UNL     1      39.019 -11.568  -2.943  1.00  0.00    -0.216 OA
HETATM   23  C   UNL     1      39.480 -10.747  -1.956  1.00  0.00     0.103 A 
HETATM   24  C   UNL     1      39.265  -9.311  -2.221  1.00  0.00     0.081 C 
ENDBRANCH  14  18
ENDBRANCH   1  12
BRANCH   8  25
HETATM   25  C   UNL     1      40.070 -13.636   4.011  1.00  0.00     0.222 C 
HETATM   26  N   UNL     1      40.490 -14.913   4.287  1.00  0.00    -0.356 N 
HETATM   27  H   UNL     1      40.893 -15.136   5.195  1.00  0.00     0.162 HD
HETATM   28  O   UNL     1      39.754 -13.293   2.873  1.00  0.00    -0.273 OA
BRANCH  26  29
HETATM   29  C   UNL     1      40.653 -15.910   3.252  1.00  0.00     0.161 C 
BRANCH  29  30
HETATM   30  C   UNL     1      41.868 -16.774   3.468  1.00  0.00    -0.035 A 
HETATM   31  C   UNL     1      42.295 -17.685   2.492  1.00  0.00     0.051 A 
HETATM   32  C   UNL     1      43.415 -18.483   2.725  1.00  0.00     0.119 A 
HETATM   33  F   UNL     1      43.805 -19.354   1.784  1.00  0.00    -0.206 F 
HETATM   34  C   UNL     1      44.126 -18.401   3.914  1.00  0.00     0.084 A 
HETATM   35  C   UNL     1      43.701 -17.504   4.882  1.00  0.00     0.119 A 
HETATM   36  F   UNL     1      44.371 -17.409   6.036  1.00  0.00    -0.206 F 
HETATM   37  C   UNL     1      42.585 -16.697   4.673  1.00  0.00     0.051 A 
ENDBRANCH  29  30
ENDBRANCH  26  29
ENDBRANCH   8  25
TORSDOF 5
ENDMDL
MODEL 5
REMARK VINA RESULT:      -8.9      3.446      7.026
REMARK  5 active torsions:
REMARK  status: ('A' for Active; 'I' for Inactive)
REMARK    1  A    between atoms: C_7  and  N_8 
REMARK       I    between atoms: N_8  and  C_9 
REMARK       I    between atoms: C_9  and  N_10 
REMARK    2  A    between atoms: N_10  and  C_11 
REMARK    3  A    between atoms: C_18  and  C_19 
REMARK       I    between atoms: C_19  and  N_20 
REMARK    4  A    between atoms: N_20  and  C_21 
REMARK    5  A    between atoms: C_21  and  C_22 
ROOT
HETATM    1  C   UNL     1      41.186  -8.370   5.965  1.00  0.00     0.104 C 
HETATM    2  C   UNL     1      39.749  -8.216   6.532  1.00  0.00     0.150 C 
HETATM    3  N   UNL     1      39.294  -9.425   7.212  1.00  0.00    -0.354 N 
HETATM    4  C   UNL     1      39.412  -9.437   8.664  1.00  0.00     0.152 C 
HETATM    5  C   UNL     1      38.852 -10.556   6.557  1.00  0.00     0.220 C 
HETATM    6  O   UNL     1      38.547 -11.596   7.149  1.00  0.00    -0.273 OA
HETATM    7  C   UNL     1      38.775 -10.543   5.042  1.00  0.00     0.117 C 
HETATM    8  C   UNL     1      39.965 -11.125   4.264  1.00  0.00     0.086 C 
HETATM    9  C   UNL     1      40.485 -10.139   3.180  1.00  0.00     0.014 C 
HETATM   10  C   UNL     1      41.558  -9.085   3.506  1.00  0.00     0.003 C 
HETATM   11  C   UNL     1      41.216  -7.951   4.479  1.00  0.00     0.027 C 
ENDROOT
BRANCH   1  12
HETATM   12  N   UNL     1      42.118  -7.596   6.799  1.00  0.00    -0.337 N 
HETATM   13  C   UNL     1      42.904  -7.931   7.858  1.00  0.00     0.321 C 
HETATM   14  N   UNL     1      42.941  -9.245   8.200  1.00  0.00    -0.305 N 
HETATM   15  O   UNL     1      43.532  -7.016   8.378  1.00  0.00    -0.247 OA
HETATM   16  H   UNL     1      42.205  -9.833   7.843  1.00  0.00     0.171 HD
HETATM   17  H   UNL     1      42.159  -6.591   6.663  1.00  0.00     0.164 HD
BRANCH  14  18
HETATM   18  C   UNL     1      43.834  -9.859   9.071  1.00  0.00     0.094 A 
HETATM   19  C   UNL     1      43.570 -10.155  10.443  1.00  0.00     0.087 A 
HETATM   20  C   UNL     1      42.338  -9.899  11.225  1.00  0.00     0.075 C 
HETATM   21  N   UNL     1      44.602 -10.772  11.026  1.00  0.00    -0.131 NA
HETATM   22  O   UNL     1      45.560 -10.893  10.046  1.00  0.00    -0.216 OA
HETATM   23  C   UNL     1      45.106 -10.359   8.876  1.00  0.00     0.103 A 
HETATM   24  C   UNL     1      46.065 -10.457   7.760  1.00  0.00     0.081 C 
ENDBRANCH  14  18
ENDBRANCH   1  12
BRANCH   8  25
HETATM   25  C   UNL     1      41.097 -11.844   5.015  1.00  0.00     0.222 C 
HETATM   26  N   UNL     1      41.228 -13.190   4.780  1.00  0.00    -0.356 N 
HETATM   27  H   UNL     1      40.474 -13.708   4.335  1.00  0.00     0.162 HD
HETATM   28  O   UNL     1      41.905 -11.230   5.712  1.00  0.00    -0.273 OA
BRANCH  26  29
HETATM   29  C   UNL     1      42.275 -13.979   5.389  1.00  0.00     0.161 C 
BRANCH  29  30
HETATM   30  C   UNL     1      42.700 -15.140   4.527  1.00  0.00    -0.035 A 
HETATM   31  C   UNL     1      42.823 -15.006   3.137  1.00  0.00     0.051 A 
HETATM   32  C   UNL     1      43.204 -16.101   2.362  1.00  0.00     0.119 A 
HETATM   33  F   UNL     1      43.309 -15.958   1.034  1.00  0.00    -0.206 F 
HETATM   34  C   UNL     1      43.465 -17.337   2.937  1.00  0.00     0.084 A 
HETATM   35  C   UNL     1      43.339 -17.471   4.311  1.00  0.00     0.119 A 
HETATM   36  F   UNL     1      43.585 -18.654   4.887  1.00  0.00    -0.206 F 
HETATM   37  C   UNL     1      42.959 -16.392   5.106  1.00  0.00     0.051 A 
ENDBRANCH  29  30
ENDBRANCH  26  29
ENDBRANCH   8  25
TORSDOF 5
ENDMDL
MODEL 6
REMARK VINA RESULT:      -8.7      4.177      6.360
REMARK  5 active torsions:
REMARK  status: ('A' for Active; 'I' for Inactive)
REMARK    1  A    between atoms: C_7  and  N_8 
REMARK       I    between atoms: N_8  and  C_9 
REMARK       I    between atoms: C_9  and  N_10 
REMARK    2  A    between atoms: N_10  and  C_11 
REMARK    3  A    between atoms: C_18  and  C_19 
REMARK       I    between atoms: C_19  and  N_20 
REMARK    4  A    between atoms: N_20  and  C_21 
REMARK    5  A    between atoms: C_21  and  C_22 
ROOT
HETATM    1  C   UNL     1      40.731 -13.540   2.566  1.00  0.00     0.104 C 
HETATM    2  C   UNL     1      39.614 -12.565   3.028  1.00  0.00     0.150 C 
HETATM    3  N   UNL     1      40.071 -11.663   4.080  1.00  0.00    -0.354 N 
HETATM    4  C   UNL     1      40.479 -10.330   3.661  1.00  0.00     0.152 C 
HETATM    5  C   UNL     1      40.213 -12.034   5.402  1.00  0.00     0.220 C 
HETATM    6  O   UNL     1      40.677 -11.279   6.261  1.00  0.00    -0.273 OA
HETATM    7  C   UNL     1      39.824 -13.440   5.815  1.00  0.00     0.117 C 
HETATM    8  C   UNL     1      40.939 -14.496   5.886  1.00  0.00     0.086 C 
HETATM    9  C   UNL     1      40.574 -15.777   5.086  1.00  0.00     0.014 C 
HETATM   10  C   UNL     1      40.910 -15.910   3.590  1.00  0.00     0.003 C 
HETATM   11  C   UNL     1      40.207 -14.992   2.584  1.00  0.00     0.027 C 
ENDROOT
BRANCH   1  12
HETATM   12  N   UNL     1      41.219 -13.122   1.243  1.00  0.00    -0.337 N 
HETATM   13  C   UNL     1      40.619 -13.031   0.025  1.00  0.00     0.321 C 
HETATM   14  N   UNL     1      39.284 -13.281  -0.018  1.00  0.00    -0.305 N 
HETATM   15  O   UNL     1      41.337 -12.696  -0.909  1.00  0.00    -0.247 OA
HETATM   16  H   UNL     1      38.883 -13.767   0.766  1.00  0.00     0.171 HD
HETATM   17  H   UNL     1      42.211 -12.937   1.136  1.00  0.00     0.164 HD
BRANCH  14  18
HETATM   18  C   UNL     1      38.418 -13.023  -1.076  1.00  0.00     0.094 A 
HETATM   19  C   UNL     1      37.573 -11.877  -1.182  1.00  0.00     0.087 A 
HETATM   20  C   UNL     1      37.430 -10.741  -0.243  1.00  0.00     0.075 C 
HETATM   21  N   UNL     1      36.872 -11.881  -2.320  1.00  0.00    -0.131 NA
HETATM   22  O   UNL     1      37.246 -13.029  -2.980  1.00  0.00    -0.216 OA
HETATM   23  C   UNL     1      38.174 -13.710  -2.248  1.00  0.00     0.103 A 
HETATM   24  C   UNL     1      38.647 -14.953  -2.886  1.00  0.00     0.081 C 
ENDBRANCH  14  18
ENDBRANCH   1  12
BRANCH   8  25
HETATM   25  C   UNL     1      42.408 -14.075   5.710  1.00  0.00     0.222 C 
HETATM   26  N   UNL     1      42.957 -13.336   6.727  1.00  0.00    -0.356 N 
HETATM   27  H   UNL     1      42.358 -12.894   7.421  1.00  0.00     0.162 HD
HETATM   28  O   UNL     1      43.083 -14.464   4.758  1.00  0.00    -0.273 OA
BRANCH  26  29
HETATM   29  C   UNL     1      44.339 -12.911   6.710  1.00  0.00     0.161 C 
BRANCH  29  30
HETATM   30  C   UNL     1      44.538 -11.565   7.359  1.00  0.00    -0.035 A 
HETATM   31  C   UNL     1      43.474 -10.890   7.971  1.00  0.00     0.051 A 
HETATM   32  C   UNL     1      43.683  -9.639   8.551  1.00  0.00     0.119 A 
HETATM   33  F   UNL     1      42.654  -9.003   9.126  1.00  0.00    -0.206 F 
HETATM   34  C   UNL     1      44.934  -9.036   8.535  1.00  0.00     0.084 A 
HETATM   35  C   UNL     1      45.985  -9.701   7.924  1.00  0.00     0.119 A 
HETATM   36  F   UNL     1      47.198  -9.138   7.896  1.00  0.00    -0.206 F 
HETATM   37  C   UNL     1      45.800 -10.951   7.337  1.00  0.00     0.051 A 
ENDBRANCH  29  30
ENDBRANCH  26  29
ENDBRANCH   8  25
TORSDOF 5
ENDMDL
MODEL 7
REMARK VINA RESULT:      -8.6      4.145      7.080
REMARK  5 active torsions:
REMARK  status: ('A' for Active; 'I' for Inactive)
REMARK    1  A    between atoms: C_7  and  N_8 
REMARK       I    between atoms: N_8  and  C_9 
REMARK       I    between atoms: C_9  and  N_10 
REMARK    2  A    between atoms: N_10  and  C_11 
REMARK    3  A    between atoms: C_18  and  C_19 
REMARK       I    between atoms: C_19  and  N_20 
REMARK    4  A    between atoms: N_20  and  C_21 
REMARK    5  A    between atoms: C_21  and  C_22 
ROOT
HETATM    1  C   UNL     1      41.886 -10.228   7.158  1.00  0.00     0.104 C 
HETATM    2  C   UNL     1      41.902  -9.736   5.685  1.00  0.00     0.150 C 
HETATM    3  N   UNL     1      41.861 -10.843   4.735  1.00  0.00    -0.354 N 
HETATM    4  C   UNL     1      40.558 -11.164   4.170  1.00  0.00     0.152 C 
HETATM    5  C   UNL     1      42.951 -11.630   4.423  1.00  0.00     0.220 C 
HETATM    6  O   UNL     1      42.874 -12.610   3.676  1.00  0.00    -0.273 OA
HETATM    7  C   UNL     1      44.292 -11.307   5.052  1.00  0.00     0.117 C 
HETATM    8  C   UNL     1      44.687 -12.080   6.321  1.00  0.00     0.086 C 
HETATM    9  C   UNL     1      45.123 -11.125   7.466  1.00  0.00     0.014 C 
HETATM   10  C   UNL     1      44.100 -10.548   8.460  1.00  0.00     0.003 C 
HETATM   11  C   UNL     1      43.036  -9.569   7.949  1.00  0.00     0.027 C 
ENDROOT
BRANCH   1  12
HETATM   12  N   UNL     1      40.562  -9.962   7.740  1.00  0.00    -0.337 N 
HETATM   13  C   UNL     1      40.138  -9.765   9.018  1.00  0.00     0.321 C 
HETATM   14  N   UNL     1      41.099  -9.705   9.977  1.00  0.00    -0.305 N 
HETATM   15  O   UNL     1      38.931  -9.624   9.173  1.00  0.00    -0.247 OA
HETATM   16  H   UNL     1      42.007 -10.068   9.740  1.00  0.00     0.171 HD
HETATM   17  H   UNL     1      39.753 -10.011   7.129  1.00  0.00     0.164 HD
BRANCH  14  18
HETATM   18  C   UNL     1      40.943  -9.280  11.292  1.00  0.00     0.094 A 
HETATM   19  C   UNL     1      41.539  -8.109  11.852  1.00  0.00     0.087 A 
HETATM   20  C   UNL     1      42.415  -7.112  11.195  1.00  0.00     0.075 C 
HETATM   21  N   UNL     1      41.190  -7.937  13.130  1.00  0.00    -0.131 NA
HETATM   22  O   UNL     1      40.359  -8.991  13.431  1.00  0.00    -0.216 OA
HETATM   23  C   UNL     1      40.200  -9.791  12.338  1.00  0.00     0.103 A 
HETATM   24  C   UNL     1      39.308 -10.945  12.562  1.00  0.00     0.081 C 
ENDBRANCH  14  18
ENDBRANCH   1  12
BRANCH   8  25
HETATM   25  C   UNL     1      43.818 -13.249   6.810  1.00  0.00     0.222 C 
HETATM   26  N   UNL     1      43.576 -14.251   5.904  1.00  0.00    -0.356 N 
HETATM   27  H   UNL     1      43.753 -14.100   4.913  1.00  0.00     0.162 HD
HETATM   28  O   UNL     1      43.443 -13.333   7.979  1.00  0.00    -0.273 OA
BRANCH  26  29
HETATM   29  C   UNL     1      42.809 -15.428   6.245  1.00  0.00     0.161 C 
BRANCH  29  30
HETATM   30  C   UNL     1      43.161 -16.617   5.388  1.00  0.00    -0.035 A 
HETATM   31  C   UNL     1      43.556 -17.833   5.960  1.00  0.00     0.051 A 
HETATM   32  C   UNL     1      43.891 -18.912   5.142  1.00  0.00     0.119 A 
HETATM   33  F   UNL     1      44.274 -20.066   5.705  1.00  0.00    -0.206 F 
HETATM   34  C   UNL     1      43.845 -18.812   3.759  1.00  0.00     0.084 A 
HETATM   35  C   UNL     1      43.460 -17.606   3.192  1.00  0.00     0.119 A 
HETATM   36  F   UNL     1      43.410 -17.486   1.861  1.00  0.00    -0.206 F 
HETATM   37  C   UNL     1      43.122 -16.514   3.989  1.00  0.00     0.051 A 
ENDBRANCH  29  30
ENDBRANCH  26  29
ENDBRANCH   8  25
TORSDOF 5
ENDMDL
MODEL 8
REMARK VINA RESULT:      -8.4     14.970     17.436
REMARK  5 active torsions:
REMARK  status: ('A' for Active; 'I' for Inactive)
REMARK    1  A    between atoms: C_7  and  N_8 
REMARK       I    between atoms: N_8  and  C_9 
REMARK       I    between atoms: C_9  and  N_10 
REMARK    2  A    between atoms: N_10  and  C_11 
REMARK    3  A    between atoms: C_18  and  C_19 
REMARK       I    between atoms: C_19  and  N_20 
REMARK    4  A    between atoms: N_20  and  C_21 
REMARK    5  A    between atoms: C_21  and  C_22 
ROOT
HETATM    1  C   UNL     1      45.219 -30.928  -1.896  1.00  0.00     0.104 C 
HETATM    2  C   UNL     1      46.460 -31.618  -2.525  1.00  0.00     0.150 C 
HETATM    3  N   UNL     1      47.616 -31.587  -1.634  1.00  0.00    -0.354 N 
HETATM    4  C   UNL     1      47.868 -32.790  -0.854  1.00  0.00     0.152 C 
HETATM    5  C   UNL     1      48.407 -30.472  -1.440  1.00  0.00     0.220 C 
HETATM    6  O   UNL     1      49.332 -30.444  -0.622  1.00  0.00    -0.273 OA
HETATM    7  C   UNL     1      48.105 -29.213  -2.229  1.00  0.00     0.117 C 
HETATM    8  C   UNL     1      47.238 -28.139  -1.553  1.00  0.00     0.086 C 
HETATM    9  C   UNL     1      46.048 -27.706  -2.453  1.00  0.00     0.014 C 
HETATM   10  C   UNL     1      44.698 -28.445  -2.405  1.00  0.00     0.003 C 
HETATM   11  C   UNL     1      44.628 -29.900  -2.884  1.00  0.00     0.027 C 
ENDROOT
BRANCH   1  12
HETATM   12  N   UNL     1      44.250 -31.958  -1.491  1.00  0.00    -0.337 N 
HETATM   13  C   UNL     1      43.611 -32.212  -0.316  1.00  0.00     0.321 C 
HETATM   14  N   UNL     1      43.803 -31.319   0.689  1.00  0.00    -0.305 N 
HETATM   15  O   UNL     1      42.895 -33.206  -0.293  1.00  0.00    -0.247 OA
HETATM   16  H   UNL     1      44.588 -30.695   0.605  1.00  0.00     0.171 HD
HETATM   17  H   UNL     1      44.045 -32.706  -2.145  1.00  0.00     0.164 HD
BRANCH  14  18
HETATM   18  C   UNL     1      43.086 -31.229   1.878  1.00  0.00     0.094 A 
HETATM   19  C   UNL     1      42.304 -30.104   2.280  1.00  0.00     0.087 A 
HETATM   20  C   UNL     1      42.074 -28.830   1.561  1.00  0.00     0.075 C 
HETATM   21  N   UNL     1      41.704 -30.312   3.456  1.00  0.00    -0.131 NA
HETATM   22  O   UNL     1      42.081 -31.577   3.844  1.00  0.00    -0.216 OA
HETATM   23  C   UNL     1      42.897 -32.133   2.904  1.00  0.00     0.103 A 
HETATM   24  C   UNL     1      43.342 -33.502   3.229  1.00  0.00     0.081 C 
ENDBRANCH  14  18
ENDBRANCH   1  12
BRANCH   8  25
HETATM   25  C   UNL     1      46.851 -28.284  -0.072  1.00  0.00     0.222 C 
HETATM   26  N   UNL     1      47.837 -28.023   0.845  1.00  0.00    -0.356 N 
HETATM   27  H   UNL     1      48.811 -27.982   0.554  1.00  0.00     0.162 HD
HETATM   28  O   UNL     1      45.694 -28.524   0.275  1.00  0.00    -0.273 OA
BRANCH  26  29
HETATM   29  C   UNL     1      47.598 -28.082   2.270  1.00  0.00     0.161 C 
BRANCH  29  30
HETATM   30  C   UNL     1      48.202 -29.305   2.909  1.00  0.00    -0.035 A 
HETATM   31  C   UNL     1      49.299 -29.206   3.775  1.00  0.00     0.051 A 
HETATM   32  C   UNL     1      49.849 -30.357   4.340  1.00  0.00     0.119 A 
HETATM   33  F   UNL     1      50.902 -30.245   5.159  1.00  0.00    -0.206 F 
HETATM   34  C   UNL     1      49.332 -31.615   4.062  1.00  0.00     0.084 A 
HETATM   35  C   UNL     1      48.250 -31.714   3.200  1.00  0.00     0.119 A 
HETATM   36  F   UNL     1      47.737 -32.917   2.917  1.00  0.00    -0.206 F 
HETATM   37  C   UNL     1      47.686 -30.579   2.623  1.00  0.00     0.051 A 
ENDBRANCH  29  30
ENDBRANCH  26  29
ENDBRANCH   8  25
TORSDOF 5
ENDMDL
MODEL 9
REMARK VINA RESULT:      -8.3      6.703      9.432
REMARK  5 active torsions:
REMARK  status: ('A' for Active; 'I' for Inactive)
REMARK    1  A    between atoms: C_7  and  N_8 
REMARK       I    between atoms: N_8  and  C_9 
REMARK       I    between atoms: C_9  and  N_10 
REMARK    2  A    between atoms: N_10  and  C_11 
REMARK    3  A    between atoms: C_18  and  C_19 
REMARK       I    between atoms: C_19  and  N_20 
REMARK    4  A    between atoms: N_20  and  C_21 
REMARK    5  A    between atoms: C_21  and  C_22 
ROOT
HETATM    1  C   UNL     1      40.227  -9.295  11.828  1.00  0.00     0.104 C 
HETATM    2  C   UNL     1      39.262  -8.426  12.680  1.00  0.00     0.150 C 
HETATM    3  N   UNL     1      39.204  -7.046  12.210  1.00  0.00    -0.354 N 
HETATM    4  C   UNL     1      38.081  -6.699  11.350  1.00  0.00     0.152 C 
HETATM    5  C   UNL     1      40.181  -6.105  12.464  1.00  0.00     0.220 C 
HETATM    6  O   UNL     1      40.151  -4.965  11.990  1.00  0.00    -0.273 OA
HETATM    7  C   UNL     1      41.366  -6.494  13.327  1.00  0.00     0.117 C 
HETATM    8  C   UNL     1      42.648  -6.950  12.612  1.00  0.00     0.086 C 
HETATM    9  C   UNL     1      43.164  -8.309  13.162  1.00  0.00     0.014 C 
HETATM   10  C   UNL     1      42.680  -9.646  12.572  1.00  0.00     0.003 C 
HETATM   11  C   UNL     1      41.211 -10.049  12.747  1.00  0.00     0.027 C 
ENDROOT
BRANCH   1  12
HETATM   12  N   UNL     1      39.437 -10.193  10.971  1.00  0.00    -0.337 N 
HETATM   13  C   UNL     1      39.025 -10.107   9.677  1.00  0.00     0.321 C 
HETATM   14  N   UNL     1      39.477  -9.044   8.962  1.00  0.00    -0.305 N 
HETATM   15  O   UNL     1      38.314 -11.019   9.273  1.00  0.00    -0.247 OA
HETATM   16  H   UNL     1      39.850  -8.267   9.481  1.00  0.00     0.171 HD
HETATM   17  H   UNL     1      39.015 -11.010  11.398  1.00  0.00     0.164 HD
BRANCH  14  18
HETATM   18  C   UNL     1      39.395  -8.867   7.584  1.00  0.00     0.094 A 
HETATM   19  C   UNL     1      38.918  -7.686   6.937  1.00  0.00     0.087 A 
HETATM   20  C   UNL     1      38.429  -6.428   7.546  1.00  0.00     0.075 C 
HETATM   21  N   UNL     1      38.981  -7.791   5.606  1.00  0.00    -0.131 NA
HETATM   22  O   UNL     1      39.501  -9.040   5.358  1.00  0.00    -0.216 OA
HETATM   23  C   UNL     1      39.758  -9.684   6.532  1.00  0.00     0.103 A 
HETATM   24  C   UNL     1      40.334 -11.032   6.365  1.00  0.00     0.081 C 
ENDBRANCH  14  18
ENDBRANCH   1  12
BRANCH   8  25
HETATM   25  C   UNL     1      42.756  -6.839  11.083  1.00  0.00     0.222 C 
HETATM   26  N   UNL     1      42.789  -8.021  10.386  1.00  0.00    -0.356 N 
HETATM   27  H   UNL     1      42.980  -8.896  10.869  1.00  0.00     0.162 HD
HETATM   28  O   UNL     1      42.713  -5.752  10.507  1.00  0.00    -0.273 OA
BRANCH  26  29
HETATM   29  C   UNL     1      42.847  -8.061   8.942  1.00  0.00     0.161 C 
BRANCH  29  30
HETATM   30  C   UNL     1      43.865  -9.047   8.431  1.00  0.00    -0.035 A 
HETATM   31  C   UNL     1      43.486 -10.325   7.998  1.00  0.00     0.051 A 
HETATM   32  C   UNL     1      44.452 -11.223   7.544  1.00  0.00     0.119 A 
HETATM   33  F   UNL     1      44.073 -12.443   7.142  1.00  0.00    -0.206 F 
HETATM   34  C   UNL     1      45.797 -10.881   7.511  1.00  0.00     0.084 A 
HETATM   35  C   UNL     1      46.173  -9.619   7.944  1.00  0.00     0.119 A 
HETATM   36  F   UNL     1      47.464  -9.269   7.922  1.00  0.00    -0.206 F 
HETATM   37  C   UNL     1      45.227  -8.705   8.403  1.00  0.00     0.051 A 
ENDBRANCH  29  30
ENDBRANCH  26  29
ENDBRANCH   8  25
TORSDOF 5
ENDMDL
MODEL 10
REMARK VINA RESULT:      -8.2     15.677     18.787
REMARK  5 active torsions:
REMARK  status: ('A' for Active; 'I' for Inactive)
REMARK    1  A    between atoms: C_7  and  N_8 
REMARK       I    between atoms: N_8  and  C_9 
REMARK       I    between atoms: C_9  and  N_10 
REMARK    2  A    between atoms: N_10  and  C_11 
REMARK    3  A    between atoms: C_18  and  C_19 
REMARK       I    between atoms: C_19  and  N_20 
REMARK    4  A    between atoms: N_20  and  C_21 
REMARK    5  A    between atoms: C_21  and  C_22 
ROOT
HETATM    1  C   UNL     1      49.673 -32.302   2.858  1.00  0.00     0.104 C 
HETATM    2  C   UNL     1      48.450 -32.910   3.598  1.00  0.00     0.150 C 
HETATM    3  N   UNL     1      47.192 -32.607   2.921  1.00  0.00    -0.354 N 
HETATM    4  C   UNL     1      46.654 -33.648   2.057  1.00  0.00     0.152 C 
HETATM    5  C   UNL     1      46.555 -31.385   2.993  1.00  0.00     0.220 C 
HETATM    6  O   UNL     1      45.534 -31.126   2.350  1.00  0.00    -0.273 OA
HETATM    7  C   UNL     1      47.152 -30.298   3.866  1.00  0.00     0.117 C 
HETATM    8  C   UNL     1      48.058 -29.258   3.187  1.00  0.00     0.086 C 
HETATM    9  C   UNL     1      49.419 -29.111   3.923  1.00  0.00     0.014 C 
HETATM   10  C   UNL     1      50.623 -30.000   3.564  1.00  0.00     0.003 C 
HETATM   11  C   UNL     1      50.548 -31.505   3.849  1.00  0.00     0.027 C 
ENDROOT
BRANCH   1  12
HETATM   12  N   UNL     1      50.409 -33.379   2.179  1.00  0.00    -0.337 N 
HETATM   13  C   UNL     1      50.781 -33.567   0.884  1.00  0.00     0.321 C 
HETATM   14  N   UNL     1      50.523 -32.551   0.020  1.00  0.00    -0.305 N 
HETATM   15  O   UNL     1      51.346 -34.625   0.630  1.00  0.00    -0.247 OA
HETATM   16  H   UNL     1      49.853 -31.859   0.313  1.00  0.00     0.171 HD
HETATM   17  H   UNL     1      50.633 -34.213   2.711  1.00  0.00     0.164 HD
BRANCH  14  18
HETATM   18  C   UNL     1      51.012 -32.407  -1.274  1.00  0.00     0.094 A 
HETATM   19  C   UNL     1      50.216 -32.120  -2.425  1.00  0.00     0.087 A 
HETATM   20  C   UNL     1      48.753 -31.907  -2.509  1.00  0.00     0.075 C 
HETATM   21  N   UNL     1      50.962 -32.010  -3.528  1.00  0.00    -0.131 NA
HETATM   22  O   UNL     1      52.259 -32.222  -3.121  1.00  0.00    -0.216 OA
HETATM   23  C   UNL     1      52.297 -32.451  -1.777  1.00  0.00     0.103 A 
HETATM   24  C   UNL     1      53.655 -32.676  -1.245  1.00  0.00     0.081 C 
ENDBRANCH  14  18
ENDBRANCH   1  12
BRANCH   8  25
HETATM   25  C   UNL     1      48.197 -29.243   1.656  1.00  0.00     0.222 C 
HETATM   26  N   UNL     1      47.713 -28.133   1.010  1.00  0.00    -0.356 N 
HETATM   27  H   UNL     1      47.088 -27.491   1.492  1.00  0.00     0.162 HD
HETATM   28  O   UNL     1      48.799 -30.129   1.051  1.00  0.00    -0.273 OA
BRANCH  26  29
HETATM   29  C   UNL     1      47.816 -27.970  -0.423  1.00  0.00     0.161 C 
BRANCH  29  30
HETATM   30  C   UNL     1      46.538 -28.323  -1.139  1.00  0.00    -0.035 A 
HETATM   31  C   UNL     1      46.456 -28.290  -2.537  1.00  0.00     0.051 A 
HETATM   32  C   UNL     1      45.256 -28.607  -3.174  1.00  0.00     0.119 A 
HETATM   33  F   UNL     1      45.192 -28.563  -4.511  1.00  0.00    -0.206 F 
HETATM   34  C   UNL     1      44.125 -28.957  -2.449  1.00  0.00     0.084 A 
HETATM   35  C   UNL     1      44.204 -28.984  -1.065  1.00  0.00     0.119 A 
HETATM   36  F   UNL     1      43.126 -29.317  -0.346  1.00  0.00    -0.206 F 
HETATM   37  C   UNL     1      45.392 -28.670  -0.407  1.00  0.00     0.051 A 
ENDBRANCH  29  30
ENDBRANCH  26  29
ENDBRANCH   8  25
TORSDOF 5
ENDMDL
