MODEL 1
REMARK VINA RESULT:      -8.9      0.000      0.000
REMARK  6 active torsions:
REMARK  status: ('A' for Active; 'I' for Inactive)
REMARK    1  A    between atoms: C_3  and  C_4 
REMARK    2  A    between atoms: C_4  and  N_5 
REMARK    3  A    between atoms: C_4  and  C_9 
REMARK       I    between atoms: N_5  and  C_6 
REMARK       I    between atoms: C_6  and  N_7 
REMARK    4  A    between atoms: C_9  and  C_10 
REMARK       I    between atoms: C_10  and  N_11 
REMARK    5  A    between atoms: N_11  and  C_12 
REMARK    6  A    between atoms: C_14  and  C_15 
ROOT
HETATM    1  C   UNL     1      43.413 -16.117   2.476  1.00  0.00     0.133 C 
ENDROOT
BRANCH   1   2
HETATM    2  C   UNL     1      43.180 -16.648   3.894  1.00  0.00     0.128 C 
BRANCH   2   3
HETATM    3  C   UNL     1      43.455 -18.152   3.958  1.00  0.00    -0.029 A 
HETATM    4  C   UNL     1      43.720 -18.802   5.189  1.00  0.00    -0.054 A 
HETATM    5  C   UNL     1      43.731 -18.063   6.503  1.00  0.00     0.049 C 
HETATM    6  C   UNL     1      43.984 -20.182   5.201  1.00  0.00     0.007 A 
HETATM    7  C   UNL     1      44.001 -20.920   4.019  1.00  0.00     0.001 A 
HETATM    8  C   UNL     1      43.763 -20.285   2.806  1.00  0.00     0.001 A 
HETATM    9  C   UNL     1      43.501 -18.916   2.775  1.00  0.00     0.010 A 
ENDBRANCH   2   3
BRANCH   2  10
HETATM   10  N   UNL     1      41.893 -16.300   4.504  1.00  0.00    -0.334 N 
HETATM   11  C   UNL     1      41.615 -15.196   5.242  1.00  0.00     0.314 C 
HETATM   12  N   UNL     1      40.317 -15.151   5.635  1.00  0.00    -0.352 N 
HETATM   13  O   UNL     1      42.401 -14.316   5.556  1.00  0.00    -0.248 OA
HETATM   14  H   UNL     1      39.620 -15.514   5.000  1.00  0.00     0.160 HD
HETATM   15  H   UNL     1      40.062 -14.289   6.101  1.00  0.00     0.160 HD
HETATM   16  H   UNL     1      41.177 -17.009   4.465  1.00  0.00     0.165 HD
ENDBRANCH   2  10
ENDBRANCH   1   2
BRANCH   1  17
HETATM   17  C   UNL     1      42.098 -15.702   1.848  1.00  0.00     0.224 C 
HETATM   18  N   UNL     1      42.095 -14.390   1.416  1.00  0.00    -0.327 N 
HETATM   19  H   UNL     1      42.979 -13.894   1.478  1.00  0.00     0.169 HD
HETATM   20  O   UNL     1      41.153 -16.485   1.812  1.00  0.00    -0.273 OA
BRANCH  18  21
HETATM   21  C   UNL     1      41.023 -13.671   0.848  1.00  0.00     0.035 A 
HETATM   22  C   UNL     1      40.355 -14.055  -0.319  1.00  0.00     0.042 A 
HETATM   23  C   UNL     1      39.290 -13.295  -0.836  1.00  0.00    -0.021 A 
HETATM   24  C   UNL     1      38.891 -12.144  -0.143  1.00  0.00     0.012 A 
HETATM   25  C   UNL     1      39.552 -11.751   1.020  1.00  0.00     0.003 A 
HETATM   26  C   UNL     1      40.619 -12.506   1.507  1.00  0.00     0.029 A 
BRANCH  23  27
HETATM   27  C   UNL     1      38.628 -13.708  -2.067  1.00  0.00     0.010 A 
HETATM   28  C   UNL     1      38.967 -14.710  -3.010  1.00  0.00     0.152 A 
HETATM   29  N   UNL     1      38.112 -14.774  -4.035  1.00  0.00    -0.187 NA
HETATM   30  N   UNL     1      37.224 -13.808  -3.759  1.00  0.00    -0.289 N 
HETATM   31  H   UNL     1      36.464 -13.654  -4.412  1.00  0.00     0.188 HD
HETATM   32  C   UNL     1      37.487 -13.141  -2.597  1.00  0.00     0.123 A 
ENDBRANCH  23  27
ENDBRANCH  18  21
ENDBRANCH   1  17
TORSDOF 6
ENDMDL
MODEL 2
REMARK VINA RESULT:      -8.9      4.660      8.219
REMARK  6 active torsions:
REMARK  status: ('A' for Active; 'I' for Inactive)
REMARK    1  A    between atoms: C_3  and  C_4 
REMARK    2  A    between atoms: C_4  and  N_5 
REMARK    3  A    between atoms: C_4  and  C_9 
REMARK       I    between atoms: N_5  and  C_6 
REMARK       I    between atoms: C_6  and  N_7 
REMARK    4  A    between atoms: C_9  and  C_10 
REMARK       I    between atoms: C_10  and  N_11 
REMARK    5  A    between atoms: N_11  and  C_12 
REMARK    6  A    between atoms: C_14  and  C_15 
ROOT
HETATM    1  C   UNL     1      42.757 -13.942   3.754  1.00  0.00     0.133 C 
ENDROOT
BRANCH   1   2
HETATM    2  C   UNL     1      42.560 -15.098   4.741  1.00  0.00     0.128 C 
BRANCH   2   3
HETATM    3  C   UNL     1      43.100 -16.405   4.156  1.00  0.00    -0.029 A 
HETATM    4  C   UNL     1      44.103 -17.152   4.822  1.00  0.00    -0.054 A 
HETATM    5  C   UNL     1      44.684 -16.719   6.144  1.00  0.00     0.049 C 
HETATM    6  C   UNL     1      44.583 -18.339   4.241  1.00  0.00     0.007 A 
HETATM    7  C   UNL     1      44.096 -18.785   3.014  1.00  0.00     0.001 A 
HETATM    8  C   UNL     1      43.128 -18.046   2.346  1.00  0.00     0.001 A 
HETATM    9  C   UNL     1      42.641 -16.865   2.907  1.00  0.00     0.010 A 
ENDBRANCH   2   3
BRANCH   2  10
HETATM   10  N   UNL     1      41.205 -15.257   5.278  1.00  0.00    -0.334 N 
HETATM   11  C   UNL     1      40.866 -15.715   6.510  1.00  0.00     0.314 C 
HETATM   12  N   UNL     1      39.524 -15.709   6.713  1.00  0.00    -0.352 N 
HETATM   13  O   UNL     1      41.634 -16.108   7.374  1.00  0.00    -0.248 OA
HETATM   14  H   UNL     1      38.989 -14.962   6.295  1.00  0.00     0.160 HD
HETATM   15  H   UNL     1      39.254 -15.951   7.658  1.00  0.00     0.160 HD
HETATM   16  H   UNL     1      40.449 -15.119   4.625  1.00  0.00     0.165 HD
ENDBRANCH   2  10
ENDBRANCH   1   2
BRANCH   1  17
HETATM   17  C   UNL     1      43.247 -12.708   4.482  1.00  0.00     0.224 C 
HETATM   18  N   UNL     1      43.896 -13.001   5.667  1.00  0.00    -0.327 N 
HETATM   19  H   UNL     1      44.050 -13.985   5.863  1.00  0.00     0.169 HD
HETATM   20  O   UNL     1      43.007 -11.589   4.038  1.00  0.00    -0.273 OA
BRANCH  18  21
HETATM   21  C   UNL     1      44.416 -12.093   6.612  1.00  0.00     0.035 A 
HETATM   22  C   UNL     1      43.725 -11.667   7.751  1.00  0.00     0.042 A 
HETATM   23  C   UNL     1      44.301 -10.758   8.658  1.00  0.00    -0.021 A 
HETATM   24  C   UNL     1      45.601 -10.297   8.410  1.00  0.00     0.012 A 
HETATM   25  C   UNL     1      46.298 -10.713   7.277  1.00  0.00     0.003 A 
HETATM   26  C   UNL     1      45.704 -11.599   6.377  1.00  0.00     0.029 A 
BRANCH  23  27
HETATM   27  C   UNL     1      43.547 -10.315   9.824  1.00  0.00     0.010 A 
HETATM   28  C   UNL     1      42.430  -9.449   9.931  1.00  0.00     0.152 A 
HETATM   29  N   UNL     1      42.028  -9.268  11.192  1.00  0.00    -0.187 NA
HETATM   30  N   UNL     1      42.890 -10.010  11.902  1.00  0.00    -0.289 N 
HETATM   31  H   UNL     1      42.791 -10.028  12.911  1.00  0.00     0.188 HD
HETATM   32  C   UNL     1      43.816 -10.654  11.134  1.00  0.00     0.123 A 
ENDBRANCH  23  27
ENDBRANCH  18  21
ENDBRANCH   1  17
TORSDOF 6
ENDMDL
MODEL 3
REMARK VINA RESULT:      -8.8      4.199      7.990
REMARK  6 active torsions:
REMARK  status: ('A' for Active; 'I' for Inactive)
REMARK    1  A    between atoms: C_3  and  C_4 
REMARK    2  A    between atoms: C_4  and  N_5 
REMARK    3  A    between atoms: C_4  and  C_9 
REMARK       I    between atoms: N_5  and  C_6 
REMARK       I    between atoms: C_6  and  N_7 
REMARK    4  A    between atoms: C_9  and  C_10 
REMARK       I    between atoms: C_10  and  N_11 
REMARK    5  A    between atoms: N_11  and  C_12 
REMARK    6  A    between atoms: C_14  and  C_15 
ROOT
HETATM    1  C   UNL     1      42.266 -12.822   6.651  1.00  0.00     0.133 C 
ENDROOT
BRANCH   1   2
HETATM    2  C   UNL     1      43.164 -11.776   5.982  1.00  0.00     0.128 C 
BRANCH   2   3
HETATM    3  C   UNL     1      43.881 -10.929   7.035  1.00  0.00    -0.029 A 
HETATM    4  C   UNL     1      45.292 -10.801   7.042  1.00  0.00    -0.054 A 
HETATM    5  C   UNL     1      46.166 -11.470   6.012  1.00  0.00     0.049 C 
HETATM    6  C   UNL     1      45.913 -10.026   8.037  1.00  0.00     0.007 A 
HETATM    7  C   UNL     1      45.162  -9.392   9.026  1.00  0.00     0.001 A 
HETATM    8  C   UNL     1      43.780  -9.532   9.038  1.00  0.00     0.001 A 
HETATM    9  C   UNL     1      43.148 -10.298   8.059  1.00  0.00     0.010 A 
ENDBRANCH   2   3
BRANCH   2  10
HETATM   10  N   UNL     1      42.525 -10.947   4.955  1.00  0.00    -0.334 N 
HETATM   11  C   UNL     1      42.808 -10.934   3.628  1.00  0.00     0.314 C 
HETATM   12  N   UNL     1      42.013 -10.077   2.938  1.00  0.00    -0.352 N 
HETATM   13  O   UNL     1      43.670 -11.588   3.063  1.00  0.00    -0.248 OA
HETATM   14  H   UNL     1      41.056  -9.974   3.245  1.00  0.00     0.160 HD
HETATM   15  H   UNL     1      42.137 -10.125   1.935  1.00  0.00     0.160 HD
HETATM   16  H   UNL     1      41.892 -10.236   5.289  1.00  0.00     0.165 HD
ENDBRANCH   2  10
ENDBRANCH   1   2
BRANCH   1  17
HETATM   17  C   UNL     1      42.000 -13.971   5.700  1.00  0.00     0.224 C 
HETATM   18  N   UNL     1      43.115 -14.338   4.971  1.00  0.00    -0.327 N 
HETATM   19  H   UNL     1      43.985 -13.874   5.215  1.00  0.00     0.169 HD
HETATM   20  O   UNL     1      40.872 -14.443   5.597  1.00  0.00    -0.273 OA
BRANCH  18  21
HETATM   21  C   UNL     1      43.201 -15.319   3.962  1.00  0.00     0.035 A 
HETATM   22  C   UNL     1      43.424 -16.677   4.208  1.00  0.00     0.042 A 
HETATM   23  C   UNL     1      43.499 -17.609   3.156  1.00  0.00    -0.021 A 
HETATM   24  C   UNL     1      43.323 -17.151   1.843  1.00  0.00     0.012 A 
HETATM   25  C   UNL     1      43.103 -15.799   1.586  1.00  0.00     0.003 A 
HETATM   26  C   UNL     1      43.052 -14.886   2.640  1.00  0.00     0.029 A 
BRANCH  23  27
HETATM   27  C   UNL     1      43.756 -19.014   3.443  1.00  0.00     0.010 A 
HETATM   28  C   UNL     1      43.620 -20.166   2.629  1.00  0.00     0.152 A 
HETATM   29  N   UNL     1      43.938 -21.296   3.267  1.00  0.00    -0.187 NA
HETATM   30  N   UNL     1      44.272 -20.877   4.496  1.00  0.00    -0.289 N 
HETATM   31  H   UNL     1      44.550 -21.570   5.182  1.00  0.00     0.188 HD
HETATM   32  C   UNL     1      44.179 -19.524   4.654  1.00  0.00     0.123 A 
ENDBRANCH  23  27
ENDBRANCH  18  21
ENDBRANCH   1  17
TORSDOF 6
ENDMDL
MODEL 4
REMARK VINA RESULT:      -8.8      5.252      8.947
REMARK  6 active torsions:
REMARK  status: ('A' for Active; 'I' for Inactive)
REMARK    1  A    between atoms: C_3  and  C_4 
REMARK    2  A    between atoms: C_4  and  N_5 
REMARK    3  A    between atoms: C_4  and  C_9 
REMARK       I    between atoms: N_5  and  C_6 
REMARK       I    between atoms: C_6  and  N_7 
REMARK    4  A    between atoms: C_9  and  C_10 
REMARK       I    between atoms: C_10  and  N_11 
REMARK    5  A    between atoms: N_11  and  C_12 
REMARK    6  A    between atoms: C_14  and  C_15 
ROOT
HETATM    1  C   UNL     1      43.726 -12.686   4.130  1.00  0.00     0.133 C 
ENDROOT
BRANCH   1   2
HETATM    2  C   UNL     1      42.671 -13.745   4.468  1.00  0.00     0.128 C 
BRANCH   2   3
HETATM    3  C   UNL     1      42.889 -15.008   3.633  1.00  0.00    -0.029 A 
HETATM    4  C   UNL     1      42.987 -16.285   4.239  1.00  0.00    -0.054 A 
HETATM    5  C   UNL     1      42.867 -16.480   5.729  1.00  0.00     0.049 C 
HETATM    6  C   UNL     1      43.203 -17.418   3.436  1.00  0.00     0.007 A 
HETATM    7  C   UNL     1      43.336 -17.304   2.053  1.00  0.00     0.001 A 
HETATM    8  C   UNL     1      43.263 -16.052   1.455  1.00  0.00     0.001 A 
HETATM    9  C   UNL     1      43.050 -14.917   2.236  1.00  0.00     0.010 A 
ENDBRANCH   2   3
BRANCH   2  10
HETATM   10  N   UNL     1      41.276 -13.294   4.426  1.00  0.00    -0.334 N 
HETATM   11  C   UNL     1      40.341 -13.452   5.396  1.00  0.00     0.314 C 
HETATM   12  N   UNL     1      39.151 -12.890   5.063  1.00  0.00    -0.352 N 
HETATM   13  O   UNL     1      40.490 -14.031   6.461  1.00  0.00    -0.248 OA
HETATM   14  H   UNL     1      39.169 -12.037   4.523  1.00  0.00     0.160 HD
HETATM   15  H   UNL     1      38.469 -12.908   5.811  1.00  0.00     0.160 HD
HETATM   16  H   UNL     1      40.953 -12.932   3.542  1.00  0.00     0.165 HD
ENDBRANCH   2  10
ENDBRANCH   1   2
BRANCH   1  17
HETATM   17  C   UNL     1      43.722 -11.588   5.174  1.00  0.00     0.224 C 
HETATM   18  N   UNL     1      44.642 -11.798   6.183  1.00  0.00    -0.327 N 
HETATM   19  H   UNL     1      45.266 -12.591   6.065  1.00  0.00     0.169 HD
HETATM   20  O   UNL     1      42.915 -10.666   5.101  1.00  0.00    -0.273 OA
BRANCH  18  21
HETATM   21  C   UNL     1      44.854 -11.011   7.333  1.00  0.00     0.035 A 
HETATM   22  C   UNL     1      44.009 -11.010   8.448  1.00  0.00     0.042 A 
HETATM   23  C   UNL     1      44.277 -10.201   9.568  1.00  0.00    -0.021 A 
HETATM   24  C   UNL     1      45.428  -9.403   9.557  1.00  0.00     0.012 A 
HETATM   25  C   UNL     1      46.277  -9.395   8.451  1.00  0.00     0.003 A 
HETATM   26  C   UNL     1      45.985 -10.187   7.341  1.00  0.00     0.029 A 
BRANCH  23  27
HETATM   27  C   UNL     1      43.364 -10.204  10.704  1.00  0.00     0.010 A 
HETATM   28  C   UNL     1      42.141  -9.519  10.912  1.00  0.00     0.152 A 
HETATM   29  N   UNL     1      41.601  -9.767  12.109  1.00  0.00    -0.187 NA
HETATM   30  N   UNL     1      42.479 -10.605  12.679  1.00  0.00    -0.289 N 
HETATM   31  H   UNL     1      42.287 -10.936  13.618  1.00  0.00     0.188 HD
HETATM   32  C   UNL     1      43.549 -10.897  11.883  1.00  0.00     0.123 A 
ENDBRANCH  23  27
ENDBRANCH  18  21
ENDBRANCH   1  17
TORSDOF 6
ENDMDL
MODEL 5
REMARK VINA RESULT:      -8.7      2.202      2.993
REMARK  6 active torsions:
REMARK  status: ('A' for Active; 'I' for Inactive)
REMARK    1  A    between atoms: C_3  and  C_4 
REMARK    2  A    between atoms: C_4  and  N_5 
REMARK    3  A    between atoms: C_4  and  C_9 
REMARK       I    between atoms: N_5  and  C_6 
REMARK       I    between atoms: C_6  and  N_7 
REMARK    4  A    between atoms: C_9  and  C_10 
REMARK       I    between atoms: C_10  and  N_11 
REMARK    5  A    between atoms: N_11  and  C_12 
REMARK    6  A    between atoms: C_14  and  C_15 
ROOT
HETATM    1  C   UNL     1      42.873 -15.668   1.643  1.00  0.00     0.133 C 
ENDROOT
BRANCH   1   2
HETATM    2  C   UNL     1      42.859 -16.093   3.115  1.00  0.00     0.128 C 
BRANCH   2   3
HETATM    3  C   UNL     1      43.233 -17.570   3.253  1.00  0.00    -0.029 A 
HETATM    4  C   UNL     1      43.929 -18.051   4.390  1.00  0.00    -0.054 A 
HETATM    5  C   UNL     1      44.325 -17.151   5.532  1.00  0.00     0.049 C 
HETATM    6  C   UNL     1      44.268 -19.413   4.470  1.00  0.00     0.007 A 
HETATM    7  C   UNL     1      43.942 -20.295   3.441  1.00  0.00     0.001 A 
HETATM    8  C   UNL     1      43.280 -19.826   2.314  1.00  0.00     0.001 A 
HETATM    9  C   UNL     1      42.937 -18.477   2.217  1.00  0.00     0.010 A 
ENDBRANCH   2   3
BRANCH   2  10
HETATM   10  N   UNL     1      41.643 -15.764   3.865  1.00  0.00    -0.334 N 
HETATM   11  C   UNL     1      41.494 -14.775   4.782  1.00  0.00     0.314 C 
HETATM   12  N   UNL     1      40.230 -14.709   5.272  1.00  0.00    -0.352 N 
HETATM   13  O   UNL     1      42.362 -14.008   5.168  1.00  0.00    -0.248 OA
HETATM   14  H   UNL     1      39.471 -14.921   4.641  1.00  0.00     0.160 HD
HETATM   15  H   UNL     1      40.071 -13.917   5.881  1.00  0.00     0.160 HD
HETATM   16  H   UNL     1      40.874 -16.410   3.770  1.00  0.00     0.165 HD
ENDBRANCH   2  10
ENDBRANCH   1   2
BRANCH   1  17
HETATM   17  C   UNL     1      41.465 -15.367   1.170  1.00  0.00     0.224 C 
HETATM   18  N   UNL     1      41.385 -14.215   0.411  1.00  0.00    -0.327 N 
HETATM   19  H   UNL     1      42.266 -13.765   0.182  1.00  0.00     0.169 HD
HETATM   20  O   UNL     1      40.529 -16.083   1.513  1.00  0.00    -0.273 OA
BRANCH  18  21
HETATM   21  C   UNL     1      40.228 -13.617  -0.129  1.00  0.00     0.035 A 
HETATM   22  C   UNL     1      39.551 -12.546   0.464  1.00  0.00     0.042 A 
HETATM   23  C   UNL     1      38.400 -11.992  -0.126  1.00  0.00    -0.021 A 
HETATM   24  C   UNL     1      37.948 -12.524  -1.342  1.00  0.00     0.012 A 
HETATM   25  C   UNL     1      38.614 -13.593  -1.940  1.00  0.00     0.003 A 
HETATM   26  C   UNL     1      39.742 -14.143  -1.331  1.00  0.00     0.029 A 
BRANCH  23  27
HETATM   27  C   UNL     1      37.703 -10.892   0.527  1.00  0.00     0.010 A 
HETATM   28  C   UNL     1      36.703 -10.011   0.045  1.00  0.00     0.152 A 
HETATM   29  N   UNL     1      36.323  -9.106   0.951  1.00  0.00    -0.187 NA
HETATM   30  N   UNL     1      37.082  -9.396   2.018  1.00  0.00    -0.289 N 
HETATM   31  H   UNL     1      36.978  -8.827   2.851  1.00  0.00     0.188 HD
HETATM   32  C   UNL     1      37.924 -10.452   1.817  1.00  0.00     0.123 A 
ENDBRANCH  23  27
ENDBRANCH  18  21
ENDBRANCH   1  17
TORSDOF 6
ENDMDL
MODEL 6
REMARK VINA RESULT:      -8.2      4.815      8.572
REMARK  6 active torsions:
REMARK  status: ('A' for Active; 'I' for Inactive)
REMARK    1  A    between atoms: C_3  and  C_4 
REMARK    2  A    between atoms: C_4  and  N_5 
REMARK    3  A    between atoms: C_4  and  C_9 
REMARK       I    between atoms: N_5  and  C_6 
REMARK       I    between atoms: C_6  and  N_7 
REMARK    4  A    between atoms: C_9  and  C_10 
REMARK       I    between atoms: C_10  and  N_11 
REMARK    5  A    between atoms: N_11  and  C_12 
REMARK    6  A    between atoms: C_14  and  C_15 
ROOT
HETATM    1  C   UNL     1      43.091 -14.100   4.399  1.00  0.00     0.133 C 
ENDROOT
BRANCH   1   2
HETATM    2  C   UNL     1      42.118 -15.281   4.488  1.00  0.00     0.128 C 
BRANCH   2   3
HETATM    3  C   UNL     1      42.869 -16.608   4.367  1.00  0.00    -0.029 A 
HETATM    4  C   UNL     1      43.283 -17.109   3.108  1.00  0.00    -0.054 A 
HETATM    5  C   UNL     1      43.028 -16.365   1.822  1.00  0.00     0.049 C 
HETATM    6  C   UNL     1      43.956 -18.341   3.040  1.00  0.00     0.007 A 
HETATM    7  C   UNL     1      44.211 -19.085   4.191  1.00  0.00     0.001 A 
HETATM    8  C   UNL     1      43.788 -18.610   5.426  1.00  0.00     0.001 A 
HETATM    9  C   UNL     1      43.118 -17.390   5.512  1.00  0.00     0.010 A 
ENDBRANCH   2   3
BRANCH   2  10
HETATM   10  N   UNL     1      40.959 -15.224   3.592  1.00  0.00    -0.334 N 
HETATM   11  C   UNL     1      40.061 -14.212   3.487  1.00  0.00     0.314 C 
HETATM   12  N   UNL     1      39.121 -14.451   2.538  1.00  0.00    -0.352 N 
HETATM   13  O   UNL     1      40.043 -13.186   4.148  1.00  0.00    -0.248 OA
HETATM   14  H   UNL     1      39.408 -14.951   1.708  1.00  0.00     0.160 HD
HETATM   15  H   UNL     1      38.501 -13.669   2.372  1.00  0.00     0.160 HD
HETATM   16  H   UNL     1      40.746 -16.070   3.087  1.00  0.00     0.165 HD
ENDBRANCH   2  10
ENDBRANCH   1   2
BRANCH   1  17
HETATM   17  C   UNL     1      43.367 -13.541   5.779  1.00  0.00     0.224 C 
HETATM   18  N   UNL     1      44.038 -12.333   5.750  1.00  0.00    -0.327 N 
HETATM   19  H   UNL     1      44.182 -11.922   4.833  1.00  0.00     0.169 HD
HETATM   20  O   UNL     1      43.052 -14.177   6.781  1.00  0.00    -0.273 OA
BRANCH  18  21
HETATM   21  C   UNL     1      44.501 -11.578   6.846  1.00  0.00     0.035 A 
HETATM   22  C   UNL     1      43.764 -11.361   8.014  1.00  0.00     0.042 A 
HETATM   23  C   UNL     1      44.284 -10.596   9.075  1.00  0.00    -0.021 A 
HETATM   24  C   UNL     1      45.575 -10.066   8.949  1.00  0.00     0.012 A 
HETATM   25  C   UNL     1      46.318 -10.275   7.788  1.00  0.00     0.003 A 
HETATM   26  C   UNL     1      45.779 -11.018   6.738  1.00  0.00     0.029 A 
BRANCH  23  27
HETATM   27  C   UNL     1      43.482 -10.368  10.271  1.00  0.00     0.010 A 
HETATM   28  C   UNL     1      42.381  -9.505  10.498  1.00  0.00     0.152 A 
HETATM   29  N   UNL     1      41.921  -9.564  11.750  1.00  0.00    -0.187 NA
HETATM   30  N   UNL     1      42.729 -10.459  12.337  1.00  0.00    -0.289 N 
HETATM   31  H   UNL     1      42.579 -10.672  13.317  1.00  0.00     0.188 HD
HETATM   32  C   UNL     1      43.679 -10.968  11.498  1.00  0.00     0.123 A 
ENDBRANCH  23  27
ENDBRANCH  18  21
ENDBRANCH   1  17
TORSDOF 6
ENDMDL
MODEL 7
REMARK VINA RESULT:      -8.2      1.731      2.437
REMARK  6 active torsions:
REMARK  status: ('A' for Active; 'I' for Inactive)
REMARK    1  A    between atoms: C_3  and  C_4 
REMARK    2  A    between atoms: C_4  and  N_5 
REMARK    3  A    between atoms: C_4  and  C_9 
REMARK       I    between atoms: N_5  and  C_6 
REMARK       I    between atoms: C_6  and  N_7 
REMARK    4  A    between atoms: C_9  and  C_10 
REMARK       I    between atoms: C_10  and  N_11 
REMARK    5  A    between atoms: N_11  and  C_12 
REMARK    6  A    between atoms: C_14  and  C_15 
ROOT
HETATM    1  C   UNL     1      40.766 -15.813   4.700  1.00  0.00     0.133 C 
ENDROOT
BRANCH   1   2
HETATM    2  C   UNL     1      42.286 -15.616   4.697  1.00  0.00     0.128 C 
BRANCH   2   3
HETATM    3  C   UNL     1      43.004 -16.958   4.550  1.00  0.00    -0.029 A 
HETATM    4  C   UNL     1      43.423 -17.436   3.283  1.00  0.00    -0.054 A 
HETATM    5  C   UNL     1      43.204 -16.650   2.015  1.00  0.00     0.049 C 
HETATM    6  C   UNL     1      44.065 -18.683   3.190  1.00  0.00     0.007 A 
HETATM    7  C   UNL     1      44.285 -19.463   4.323  1.00  0.00     0.001 A 
HETATM    8  C   UNL     1      43.857 -19.011   5.565  1.00  0.00     0.001 A 
HETATM    9  C   UNL     1      43.217 -17.777   5.676  1.00  0.00     0.010 A 
ENDBRANCH   2   3
BRANCH   2  10
HETATM   10  N   UNL     1      42.830 -14.823   5.804  1.00  0.00    -0.334 N 
HETATM   11  C   UNL     1      42.746 -13.477   5.959  1.00  0.00     0.314 C 
HETATM   12  N   UNL     1      43.323 -13.052   7.111  1.00  0.00    -0.352 N 
HETATM   13  O   UNL     1      42.233 -12.688   5.182  1.00  0.00    -0.248 OA
HETATM   14  H   UNL     1      43.253 -13.652   7.921  1.00  0.00     0.160 HD
HETATM   15  H   UNL     1      43.186 -12.067   7.296  1.00  0.00     0.160 HD
HETATM   16  H   UNL     1      43.421 -15.316   6.455  1.00  0.00     0.165 HD
ENDBRANCH   2  10
ENDBRANCH   1   2
BRANCH   1  17
HETATM   17  C   UNL     1      40.158 -15.230   3.441  1.00  0.00     0.224 C 
HETATM   18  N   UNL     1      40.085 -13.850   3.466  1.00  0.00    -0.327 N 
HETATM   19  H   UNL     1      40.520 -13.391   4.260  1.00  0.00     0.169 HD
HETATM   20  O   UNL     1      39.740 -15.968   2.554  1.00  0.00    -0.273 OA
BRANCH  18  21
HETATM   21  C   UNL     1      39.522 -12.999   2.493  1.00  0.00     0.035 A 
HETATM   22  C   UNL     1      39.637 -13.203   1.114  1.00  0.00     0.042 A 
HETATM   23  C   UNL     1      39.051 -12.317   0.192  1.00  0.00    -0.021 A 
HETATM   24  C   UNL     1      38.323 -11.225   0.683  1.00  0.00     0.012 A 
HETATM   25  C   UNL     1      38.204 -11.010   2.055  1.00  0.00     0.003 A 
HETATM   26  C   UNL     1      38.809 -11.888   2.955  1.00  0.00     0.029 A 
BRANCH  23  27
HETATM   27  C   UNL     1      39.208 -12.544  -1.239  1.00  0.00     0.010 A 
HETATM   28  C   UNL     1      39.975 -13.503  -1.947  1.00  0.00     0.152 A 
HETATM   29  N   UNL     1      39.875 -13.375  -3.273  1.00  0.00    -0.187 NA
HETATM   30  N   UNL     1      39.050 -12.329  -3.424  1.00  0.00    -0.289 N 
HETATM   31  H   UNL     1      38.823 -12.028  -4.365  1.00  0.00     0.188 HD
HETATM   32  C   UNL     1      38.625 -11.796  -2.241  1.00  0.00     0.123 A 
ENDBRANCH  23  27
ENDBRANCH  18  21
ENDBRANCH   1  17
TORSDOF 6
ENDMDL
MODEL 8
REMARK VINA RESULT:      -8.2      2.448      9.237
REMARK  6 active torsions:
REMARK  status: ('A' for Active; 'I' for Inactive)
REMARK    1  A    between atoms: C_3  and  C_4 
REMARK    2  A    between atoms: C_4  and  N_5 
REMARK    3  A    between atoms: C_4  and  C_9 
REMARK       I    between atoms: N_5  and  C_6 
REMARK       I    between atoms: C_6  and  N_7 
REMARK    4  A    between atoms: C_9  and  C_10 
REMARK       I    between atoms: C_10  and  N_11 
REMARK    5  A    between atoms: N_11  and  C_12 
REMARK    6  A    between atoms: C_14  and  C_15 
ROOT
HETATM    1  C   UNL     1      40.887 -12.520   0.056  1.00  0.00     0.133 C 
ENDROOT
BRANCH   1   2
HETATM    2  C   UNL     1      40.186 -12.858  -1.264  1.00  0.00     0.128 C 
BRANCH   2   3
HETATM    3  C   UNL     1      39.185 -11.764  -1.639  1.00  0.00    -0.029 A 
HETATM    4  C   UNL     1      39.471 -10.820  -2.657  1.00  0.00    -0.054 A 
HETATM    5  C   UNL     1      40.759 -10.846  -3.439  1.00  0.00     0.049 C 
HETATM    6  C   UNL     1      38.530  -9.820  -2.959  1.00  0.00     0.007 A 
HETATM    7  C   UNL     1      37.325  -9.735  -2.263  1.00  0.00     0.001 A 
HETATM    8  C   UNL     1      37.049 -10.643  -1.249  1.00  0.00     0.001 A 
HETATM    9  C   UNL     1      37.971 -11.641  -0.935  1.00  0.00     0.010 A 
ENDBRANCH   2   3
BRANCH   2  10
HETATM   10  N   UNL     1      39.592 -14.196  -1.348  1.00  0.00    -0.334 N 
HETATM   11  C   UNL     1      39.104 -14.801  -2.460  1.00  0.00     0.314 C 
HETATM   12  N   UNL     1      38.653 -16.056  -2.210  1.00  0.00    -0.352 N 
HETATM   13  O   UNL     1      39.045 -14.320  -3.581  1.00  0.00    -0.248 OA
HETATM   14  H   UNL     1      39.146 -16.605  -1.521  1.00  0.00     0.160 HD
HETATM   15  H   UNL     1      38.378 -16.563  -3.042  1.00  0.00     0.160 HD
HETATM   16  H   UNL     1      39.427 -14.664  -0.470  1.00  0.00     0.165 HD
ENDBRANCH   2  10
ENDBRANCH   1   2
BRANCH   1  17
HETATM   17  C   UNL     1      40.913 -13.733   0.963  1.00  0.00     0.224 C 
HETATM   18  N   UNL     1      42.191 -14.090   1.351  1.00  0.00    -0.327 N 
HETATM   19  H   UNL     1      42.938 -13.461   1.072  1.00  0.00     0.169 HD
HETATM   20  O   UNL     1      39.874 -14.327   1.237  1.00  0.00    -0.273 OA
BRANCH  18  21
HETATM   21  C   UNL     1      42.576 -15.197   2.134  1.00  0.00     0.035 A 
HETATM   22  C   UNL     1      42.629 -15.186   3.532  1.00  0.00     0.042 A 
HETATM   23  C   UNL     1      43.022 -16.326   4.258  1.00  0.00    -0.021 A 
HETATM   24  C   UNL     1      43.343 -17.492   3.551  1.00  0.00     0.012 A 
HETATM   25  C   UNL     1      43.295 -17.514   2.158  1.00  0.00     0.003 A 
HETATM   26  C   UNL     1      42.923 -16.369   1.453  1.00  0.00     0.029 A 
BRANCH  23  27
HETATM   27  C   UNL     1      43.090 -16.276   5.713  1.00  0.00     0.010 A 
HETATM   28  C   UNL     1      42.577 -15.328   6.633  1.00  0.00     0.152 A 
HETATM   29  N   UNL     1      42.867 -15.623   7.903  1.00  0.00    -0.187 NA
HETATM   30  N   UNL     1      43.576 -16.757   7.805  1.00  0.00    -0.289 N 
HETATM   31  H   UNL     1      43.923 -17.182   8.658  1.00  0.00     0.188 HD
HETATM   32  C   UNL     1      43.738 -17.189   6.520  1.00  0.00     0.123 A 
ENDBRANCH  23  27
ENDBRANCH  18  21
ENDBRANCH   1  17
TORSDOF 6
ENDMDL
MODEL 9
REMARK VINA RESULT:      -8.1      2.300      2.836
REMARK  6 active torsions:
REMARK  status: ('A' for Active; 'I' for Inactive)
REMARK    1  A    between atoms: C_3  and  C_4 
REMARK    2  A    between atoms: C_4  and  N_5 
REMARK    3  A    between atoms: C_4  and  C_9 
REMARK       I    between atoms: N_5  and  C_6 
REMARK       I    between atoms: C_6  and  N_7 
REMARK    4  A    between atoms: C_9  and  C_10 
REMARK       I    between atoms: C_10  and  N_11 
REMARK    5  A    between atoms: N_11  and  C_12 
REMARK    6  A    between atoms: C_14  and  C_15 
ROOT
HETATM    1  C   UNL     1      43.300 -14.137   2.790  1.00  0.00     0.133 C 
ENDROOT
BRANCH   1   2
HETATM    2  C   UNL     1      42.867 -15.004   3.977  1.00  0.00     0.128 C 
BRANCH   2   3
HETATM    3  C   UNL     1      43.186 -16.477   3.712  1.00  0.00    -0.029 A 
HETATM    4  C   UNL     1      43.966 -17.237   4.619  1.00  0.00    -0.054 A 
HETATM    5  C   UNL     1      44.511 -16.653   5.897  1.00  0.00     0.049 C 
HETATM    6  C   UNL     1      44.250 -18.583   4.330  1.00  0.00     0.007 A 
HETATM    7  C   UNL     1      43.786 -19.179   3.158  1.00  0.00     0.001 A 
HETATM    8  C   UNL     1      43.040 -18.433   2.254  1.00  0.00     0.001 A 
HETATM    9  C   UNL     1      42.750 -17.095   2.524  1.00  0.00     0.010 A 
ENDBRANCH   2   3
BRANCH   2  10
HETATM   10  N   UNL     1      41.488 -14.817   4.437  1.00  0.00    -0.334 N 
HETATM   11  C   UNL     1      41.080 -14.569   5.707  1.00  0.00     0.314 C 
HETATM   12  N   UNL     1      39.735 -14.411   5.797  1.00  0.00    -0.352 N 
HETATM   13  O   UNL     1      41.792 -14.494   6.696  1.00  0.00    -0.248 OA
HETATM   14  H   UNL     1      39.262 -13.962   5.026  1.00  0.00     0.160 HD
HETATM   15  H   UNL     1      39.419 -14.127   6.715  1.00  0.00     0.160 HD
HETATM   16  H   UNL     1      40.765 -15.004   3.759  1.00  0.00     0.165 HD
ENDBRANCH   2  10
ENDBRANCH   1   2
BRANCH   1  17
HETATM   17  C   UNL     1      42.088 -13.524   2.118  1.00  0.00     0.224 C 
HETATM   18  N   UNL     1      41.886 -13.996   0.835  1.00  0.00    -0.327 N 
HETATM   19  H   UNL     1      42.496 -14.747   0.531  1.00  0.00     0.169 HD
HETATM   20  O   UNL     1      41.432 -12.659   2.691  1.00  0.00    -0.273 OA
BRANCH  18  21
HETATM   21  C   UNL     1      40.896 -13.593  -0.085  1.00  0.00     0.035 A 
HETATM   22  C   UNL     1      40.788 -12.298  -0.601  1.00  0.00     0.042 A 
HETATM   23  C   UNL     1      39.777 -11.958  -1.519  1.00  0.00    -0.021 A 
HETATM   24  C   UNL     1      38.881 -12.956  -1.928  1.00  0.00     0.012 A 
HETATM   25  C   UNL     1      38.978 -14.250  -1.418  1.00  0.00     0.003 A 
HETATM   26  C   UNL     1      39.975 -14.564  -0.493  1.00  0.00     0.029 A 
BRANCH  23  27
HETATM   27  C   UNL     1      39.675 -10.594  -2.021  1.00  0.00     0.010 A 
HETATM   28  C   UNL     1      40.648  -9.568  -2.121  1.00  0.00     0.152 A 
HETATM   29  N   UNL     1      40.159  -8.431  -2.623  1.00  0.00    -0.187 NA
HETATM   30  N   UNL     1      38.867  -8.718  -2.840  1.00  0.00    -0.289 N 
HETATM   31  H   UNL     1      38.271  -7.991  -3.222  1.00  0.00     0.188 HD
HETATM   32  C   UNL     1      38.527  -9.995  -2.497  1.00  0.00     0.123 A 
ENDBRANCH  23  27
ENDBRANCH  18  21
ENDBRANCH   1  17
TORSDOF 6
ENDMDL
MODEL 10
REMARK VINA RESULT:      -8.1      1.789      3.286
REMARK  6 active torsions:
REMARK  status: ('A' for Active; 'I' for Inactive)
REMARK    1  A    between atoms: C_3  and  C_4 
REMARK    2  A    between atoms: C_4  and  N_5 
REMARK    3  A    between atoms: C_4  and  C_9 
REMARK       I    between atoms: N_5  and  C_6 
REMARK       I    between atoms: C_6  and  N_7 
REMARK    4  A    between atoms: C_9  and  C_10 
REMARK       I    between atoms: C_10  and  N_11 
REMARK    5  A    between atoms: N_11  and  C_12 
REMARK    6  A    between atoms: C_14  and  C_15 
ROOT
HETATM    1  C   UNL     1      43.359 -16.838   2.575  1.00  0.00     0.133 C 
ENDROOT
BRANCH   1   2
HETATM    2  C   UNL     1      42.999 -17.760   3.746  1.00  0.00     0.128 C 
BRANCH   2   3
HETATM    3  C   UNL     1      43.151 -17.023   5.078  1.00  0.00    -0.029 A 
HETATM    4  C   UNL     1      42.030 -16.473   5.749  1.00  0.00    -0.054 A 
HETATM    5  C   UNL     1      40.629 -16.593   5.206  1.00  0.00     0.049 C 
HETATM    6  C   UNL     1      42.216 -15.790   6.963  1.00  0.00     0.007 A 
HETATM    7  C   UNL     1      43.488 -15.634   7.511  1.00  0.00     0.001 A 
HETATM    8  C   UNL     1      44.593 -16.151   6.848  1.00  0.00     0.001 A 
HETATM    9  C   UNL     1      44.428 -16.831   5.641  1.00  0.00     0.010 A 
ENDBRANCH   2   3
BRANCH   2  10
HETATM   10  N   UNL     1      43.668 -19.064   3.762  1.00  0.00    -0.334 N 
HETATM   11  C   UNL     1      43.460 -20.096   2.905  1.00  0.00     0.314 C 
HETATM   12  N   UNL     1      44.265 -21.157   3.168  1.00  0.00    -0.352 N 
HETATM   13  O   UNL     1      42.651 -20.128   1.991  1.00  0.00    -0.248 OA
HETATM   14  H   UNL     1      45.199 -20.966   3.500  1.00  0.00     0.160 HD
HETATM   15  H   UNL     1      44.199 -21.898   2.482  1.00  0.00     0.160 HD
HETATM   16  H   UNL     1      44.258 -19.251   4.558  1.00  0.00     0.165 HD
ENDBRANCH   2  10
ENDBRANCH   1   2
BRANCH   1  17
HETATM   17  C   UNL     1      42.105 -16.231   1.980  1.00  0.00     0.224 C 
HETATM   18  N   UNL     1      42.292 -14.939   1.527  1.00  0.00    -0.327 N 
HETATM   19  H   UNL     1      43.244 -14.586   1.556  1.00  0.00     0.169 HD
HETATM   20  O   UNL     1      41.049 -16.858   1.985  1.00  0.00    -0.273 OA
BRANCH  18  21
HETATM   21  C   UNL     1      41.327 -14.069   0.980  1.00  0.00     0.035 A 
HETATM   22  C   UNL     1      40.574 -14.355  -0.164  1.00  0.00     0.042 A 
HETATM   23  C   UNL     1      39.624 -13.444  -0.660  1.00  0.00    -0.021 A 
HETATM   24  C   UNL     1      39.427 -12.240   0.028  1.00  0.00     0.012 A 
HETATM   25  C   UNL     1      40.173 -11.944   1.168  1.00  0.00     0.003 A 
HETATM   26  C   UNL     1      41.126 -12.850   1.635  1.00  0.00     0.029 A 
BRANCH  23  27
HETATM   27  C   UNL     1      38.872 -13.761  -1.868  1.00  0.00     0.010 A 
HETATM   28  C   UNL     1      39.111 -14.719  -2.885  1.00  0.00     0.152 A 
HETATM   29  N   UNL     1      38.193 -14.692  -3.854  1.00  0.00    -0.187 NA
HETATM   30  N   UNL     1      37.364 -13.711  -3.470  1.00  0.00    -0.289 N 
HETATM   31  H   UNL     1      36.571 -13.491  -4.064  1.00  0.00     0.188 HD
HETATM   32  C   UNL     1      37.725 -13.122  -2.292  1.00  0.00     0.123 A 
ENDBRANCH  23  27
ENDBRANCH  18  21
ENDBRANCH   1  17
TORSDOF 6
ENDMDL
