MODEL 1
REMARK VINA RESULT:      -8.2      0.000      0.000
REMARK  10 active torsions:
REMARK  status: ('A' for Active; 'I' for Inactive)
REMARK    1  A    between atoms: C_2  and  O_3 
REMARK    2  A    between atoms: O_3  and  C_4 
REMARK    3  A    between atoms: C_5  and  O_6 
REMARK    4  A    between atoms: O_6  and  C_7 
REMARK    5  A    between atoms: C_7  and  C_8 
REMARK       I    between atoms: C_8  and  N_9 
REMARK    6  A    between atoms: N_9  and  C_10 
REMARK    7  A    between atoms: C_18  and  C_19 
REMARK    8  A    between atoms: C_19  and  N_20 
REMARK    9  A    between atoms: N_20  and  C_21 
REMARK   10  A    between atoms: C_24  and  N_25 
ROOT
HETATM    1  C   UNL     1      43.033 -10.151   6.764  1.00  0.00     0.103 A 
HETATM    2  C   UNL     1      41.999  -9.208   6.635  1.00  0.00     0.120 A 
HETATM    3  C   UNL     1      41.396  -8.987   5.392  1.00  0.00     0.047 A 
HETATM    4 BR   UNL     1      40.070  -7.656   5.141  1.00  0.00    -0.048 Br
HETATM    5  C   UNL     1      41.772  -9.755   4.288  1.00  0.00     0.031 A 
HETATM    6  C   UNL     1      42.769 -10.735   4.410  1.00  0.00    -0.036 A 
HETATM    7  C   UNL     1      43.395 -10.922   5.654  1.00  0.00     0.048 A 
ENDROOT
BRANCH   6   8
HETATM    8  C   UNL     1      43.151 -11.587   3.221  1.00  0.00     0.158 C 
BRANCH   8   9
HETATM    9  N   UNL     1      42.200 -12.685   3.083  1.00  0.00    -0.386 N 
HETATM   10  H   UNL     1      41.534 -12.528   2.328  1.00  0.00     0.160 HD
BRANCH   9  11
HETATM   11  C   UNL     1      42.634 -14.006   3.162  1.00  0.00     0.028 A 
HETATM   12  C   UNL     1      42.712 -14.728   4.359  1.00  0.00     0.031 A 
HETATM   13  C   UNL     1      43.108 -16.071   4.376  1.00  0.00     0.039 A 
HETATM   14  C   UNL     1      43.402 -16.725   3.180  1.00  0.00     0.134 A 
HETATM   15  C   UNL     1      43.276 -16.044   1.971  1.00  0.00     0.039 A 
HETATM   16  C   UNL     1      42.880 -14.703   1.969  1.00  0.00     0.031 A 
BRANCH  14  17
HETATM   17  N   UNL     1      43.857 -18.128   3.233  1.00  0.00    -0.041 N 
HETATM   18  H   UNL     1      44.833 -18.123   2.910  1.00  0.00     0.286 HD
HETATM   19  C   UNL     1      43.875 -18.661   4.642  1.00  0.00     0.241 C 
HETATM   20  C   UNL     1      44.496 -20.054   4.627  1.00  0.00     0.028 C 
HETATM   21  C   UNL     1      43.779 -20.985   3.651  1.00  0.00     0.003 C 
HETATM   22  C   UNL     1      43.709 -20.382   2.251  1.00  0.00     0.028 C 
HETATM   23  C   UNL     1      43.086 -18.990   2.267  1.00  0.00     0.241 C 
ENDBRANCH  14  17
ENDBRANCH   9  11
ENDBRANCH   8   9
ENDBRANCH   6   8
BRANCH   1  24
HETATM   24  O   UNL     1      43.579 -10.282   8.013  1.00  0.00    -0.349 OA
BRANCH  24  25
HETATM   25  C   UNL     1      44.974 -10.023   8.167  1.00  0.00     0.171 C 
HETATM   26  C   UNL     1      45.183  -8.671   8.824  1.00  0.00     0.034 C 
ENDBRANCH  24  25
ENDBRANCH   1  24
BRANCH   2  27
HETATM   27  O   UNL     1      41.637  -8.466   7.734  1.00  0.00    -0.338 OA
BRANCH  27  28
HETATM   28  C   UNL     1      40.724  -9.211   8.548  1.00  0.00     0.278 C 
BRANCH  28  29
HETATM   29  C   UNL     1      41.056  -9.076  10.032  1.00  0.00     0.242 C 
HETATM   30  N   UNL     1      42.126  -9.844  10.441  1.00  0.00    -0.351 N 
HETATM   31  H   UNL     1      42.664 -10.267   9.689  1.00  0.00     0.163 HD
HETATM   32  O   UNL     1      40.372  -8.384  10.781  1.00  0.00    -0.271 OA
BRANCH  30  33
HETATM   33  C   UNL     1      42.670  -9.886  11.804  1.00  0.00     0.022 C 
HETATM   34  C   UNL     1      41.565 -10.178  12.832  1.00  0.00     0.037 C 
HETATM   35  C   UNL     1      43.701 -11.026  11.871  1.00  0.00     0.037 C 
HETATM   36  C   UNL     1      43.375  -8.566  12.150  1.00  0.00     0.037 C 
ENDBRANCH  30  33
ENDBRANCH  28  29
ENDBRANCH  27  28
ENDBRANCH   2  27
TORSDOF 10
ENDMDL
MODEL 2
REMARK VINA RESULT:      -7.8      1.689      2.514
REMARK  10 active torsions:
REMARK  status: ('A' for Active; 'I' for Inactive)
REMARK    1  A    between atoms: C_2  and  O_3 
REMARK    2  A    between atoms: O_3  and  C_4 
REMARK    3  A    between atoms: C_5  and  O_6 
REMARK    4  A    between atoms: O_6  and  C_7 
REMARK    5  A    between atoms: C_7  and  C_8 
REMARK       I    between atoms: C_8  and  N_9 
REMARK    6  A    between atoms: N_9  and  C_10 
REMARK    7  A    between atoms: C_18  and  C_19 
REMARK    8  A    between atoms: C_19  and  N_20 
REMARK    9  A    between atoms: N_20  and  C_21 
REMARK   10  A    between atoms: C_24  and  N_25 
ROOT
HETATM    1  C   UNL     1      42.052  -9.732   6.510  1.00  0.00     0.103 A 
HETATM    2  C   UNL     1      43.206  -9.751   7.312  1.00  0.00     0.120 A 
HETATM    3  C   UNL     1      44.333 -10.476   6.911  1.00  0.00     0.047 A 
HETATM    4 BR   UNL     1      45.878 -10.618   8.001  1.00  0.00    -0.048 Br
HETATM    5  C   UNL     1      44.339 -11.128   5.676  1.00  0.00     0.031 A 
HETATM    6  C   UNL     1      43.213 -11.081   4.841  1.00  0.00    -0.036 A 
HETATM    7  C   UNL     1      42.072 -10.381   5.271  1.00  0.00     0.048 A 
ENDROOT
BRANCH   6   8
HETATM    8  C   UNL     1      43.234 -11.761   3.491  1.00  0.00     0.158 C 
BRANCH   8   9
HETATM    9  N   UNL     1      42.269 -12.857   3.483  1.00  0.00    -0.386 N 
HETATM   10  H   UNL     1      41.520 -12.707   2.809  1.00  0.00     0.160 HD
BRANCH   9  11
HETATM   11  C   UNL     1      42.705 -14.179   3.531  1.00  0.00     0.028 A 
HETATM   12  C   UNL     1      42.879 -14.896   4.721  1.00  0.00     0.031 A 
HETATM   13  C   UNL     1      43.272 -16.241   4.710  1.00  0.00     0.039 A 
HETATM   14  C   UNL     1      43.467 -16.899   3.497  1.00  0.00     0.134 A 
HETATM   15  C   UNL     1      43.244 -16.222   2.299  1.00  0.00     0.039 A 
HETATM   16  C   UNL     1      42.852 -14.879   2.324  1.00  0.00     0.031 A 
BRANCH  14  17
HETATM   17  N   UNL     1      43.921 -18.303   3.517  1.00  0.00    -0.041 N 
HETATM   18  H   UNL     1      44.918 -18.282   3.270  1.00  0.00     0.286 HD
HETATM   19  C   UNL     1      43.834 -18.903   4.897  1.00  0.00     0.241 C 
HETATM   20  C   UNL     1      44.460 -20.294   4.862  1.00  0.00     0.028 C 
HETATM   21  C   UNL     1      43.822 -21.176   3.791  1.00  0.00     0.003 C 
HETATM   22  C   UNL     1      43.856 -20.507   2.420  1.00  0.00     0.028 C 
HETATM   23  C   UNL     1      43.229 -19.118   2.455  1.00  0.00     0.241 C 
ENDBRANCH  14  17
ENDBRANCH   9  11
ENDBRANCH   8   9
ENDBRANCH   6   8
BRANCH   1  24
HETATM   24  O   UNL     1      40.991  -9.015   6.995  1.00  0.00    -0.349 OA
BRANCH  24  25
HETATM   25  C   UNL     1      39.837  -9.734   7.432  1.00  0.00     0.171 C 
HETATM   26  C   UNL     1      39.357  -9.188   8.764  1.00  0.00     0.034 C 
ENDBRANCH  24  25
ENDBRANCH   1  24
BRANCH   2  27
HETATM   27  O   UNL     1      43.185  -9.097   8.521  1.00  0.00    -0.338 OA
BRANCH  27  28
HETATM   28  C   UNL     1      43.022 -10.041   9.586  1.00  0.00     0.278 C 
BRANCH  28  29
HETATM   29  C   UNL     1      42.466  -9.378  10.844  1.00  0.00     0.242 C 
HETATM   30  N   UNL     1      41.406 -10.051  11.412  1.00  0.00    -0.351 N 
HETATM   31  H   UNL     1      41.234 -10.980  11.037  1.00  0.00     0.163 HD
HETATM   32  O   UNL     1      42.907  -8.306  11.251  1.00  0.00    -0.271 OA
BRANCH  30  33
HETATM   33  C   UNL     1      40.701  -9.646  12.636  1.00  0.00     0.022 C 
HETATM   34  C   UNL     1      39.905  -8.350  12.414  1.00  0.00     0.037 C 
HETATM   35  C   UNL     1      39.708 -10.762  13.005  1.00  0.00     0.037 C 
HETATM   36  C   UNL     1      41.688  -9.465  13.799  1.00  0.00     0.037 C 
ENDBRANCH  30  33
ENDBRANCH  28  29
ENDBRANCH  27  28
ENDBRANCH   2  27
TORSDOF 10
ENDMDL
MODEL 3
REMARK VINA RESULT:      -7.6      1.932      3.015
REMARK  10 active torsions:
REMARK  status: ('A' for Active; 'I' for Inactive)
REMARK    1  A    between atoms: C_2  and  O_3 
REMARK    2  A    between atoms: O_3  and  C_4 
REMARK    3  A    between atoms: C_5  and  O_6 
REMARK    4  A    between atoms: O_6  and  C_7 
REMARK    5  A    between atoms: C_7  and  C_8 
REMARK       I    between atoms: C_8  and  N_9 
REMARK    6  A    between atoms: N_9  and  C_10 
REMARK    7  A    between atoms: C_18  and  C_19 
REMARK    8  A    between atoms: C_19  and  N_20 
REMARK    9  A    between atoms: N_20  and  C_21 
REMARK   10  A    between atoms: C_24  and  N_25 
ROOT
HETATM    1  C   UNL     1      42.145  -9.615   7.908  1.00  0.00     0.103 A 
HETATM    2  C   UNL     1      43.527  -9.696   8.151  1.00  0.00     0.120 A 
HETATM    3  C   UNL     1      44.346 -10.459   7.313  1.00  0.00     0.047 A 
HETATM    4 BR   UNL     1      46.198 -10.685   7.653  1.00  0.00    -0.048 Br
HETATM    5  C   UNL     1      43.805 -11.088   6.190  1.00  0.00     0.031 A 
HETATM    6  C   UNL     1      42.435 -10.979   5.906  1.00  0.00    -0.036 A 
HETATM    7  C   UNL     1      41.613 -10.240   6.775  1.00  0.00     0.048 A 
ENDROOT
BRANCH   6   8
HETATM    8  C   UNL     1      41.857 -11.634   4.672  1.00  0.00     0.158 C 
BRANCH   8   9
HETATM    9  N   UNL     1      42.922 -12.301   3.930  1.00  0.00    -0.386 N 
HETATM   10  H   UNL     1      43.830 -11.864   4.080  1.00  0.00     0.160 HD
BRANCH   9  11
HETATM   11  C   UNL     1      42.985 -13.692   3.888  1.00  0.00     0.028 A 
HETATM   12  C   UNL     1      42.880 -14.509   5.020  1.00  0.00     0.031 A 
HETATM   13  C   UNL     1      42.901 -15.906   4.915  1.00  0.00     0.039 A 
HETATM   14  C   UNL     1      42.996 -16.507   3.661  1.00  0.00     0.134 A 
HETATM   15  C   UNL     1      43.043 -15.716   2.515  1.00  0.00     0.039 A 
HETATM   16  C   UNL     1      43.022 -14.322   2.635  1.00  0.00     0.031 A 
BRANCH  14  17
HETATM   17  N   UNL     1      43.057 -17.980   3.585  1.00  0.00    -0.041 N 
HETATM   18  H   UNL     1      42.175 -18.323   3.986  1.00  0.00     0.286 HD
HETATM   19  C   UNL     1      43.099 -18.469   2.160  1.00  0.00     0.241 C 
HETATM   20  C   UNL     1      43.008 -19.992   2.165  1.00  0.00     0.028 C 
HETATM   21  C   UNL     1      44.091 -20.621   3.039  1.00  0.00     0.003 C 
HETATM   22  C   UNL     1      44.073 -20.049   4.454  1.00  0.00     0.028 C 
HETATM   23  C   UNL     1      44.166 -18.528   4.448  1.00  0.00     0.241 C 
ENDBRANCH  14  17
ENDBRANCH   9  11
ENDBRANCH   8   9
ENDBRANCH   6   8
BRANCH   1  24
HETATM   24  O   UNL     1      41.419  -8.864   8.794  1.00  0.00    -0.349 OA
BRANCH  24  25
HETATM   25  C   UNL     1      40.139  -9.351   9.197  1.00  0.00     0.171 C 
HETATM   26  C   UNL     1      39.170  -8.194   9.362  1.00  0.00     0.034 C 
ENDBRANCH  24  25
ENDBRANCH   1  24
BRANCH   2  27
HETATM   27  O   UNL     1      44.044  -9.064   9.256  1.00  0.00    -0.338 OA
BRANCH  27  28
HETATM   28  C   UNL     1      44.100  -9.976  10.360  1.00  0.00     0.278 C 
BRANCH  28  29
HETATM   29  C   UNL     1      43.306  -9.458  11.557  1.00  0.00     0.242 C 
HETATM   30  N   UNL     1      43.026  -8.109  11.503  1.00  0.00    -0.351 N 
HETATM   31  H   UNL     1      43.224  -7.663  10.611  1.00  0.00     0.163 HD
HETATM   32  O   UNL     1      43.014 -10.191  12.498  1.00  0.00    -0.271 OA
BRANCH  30  33
HETATM   33  C   UNL     1      42.261  -7.360  12.508  1.00  0.00     0.022 C 
HETATM   34  C   UNL     1      43.008  -7.313  13.851  1.00  0.00     0.037 C 
HETATM   35  C   UNL     1      42.092  -5.917  12.001  1.00  0.00     0.037 C 
HETATM   36  C   UNL     1      40.868  -7.977  12.703  1.00  0.00     0.037 C 
ENDBRANCH  30  33
ENDBRANCH  28  29
ENDBRANCH  27  28
ENDBRANCH   2  27
TORSDOF 10
ENDMDL
MODEL 4
REMARK VINA RESULT:      -7.5      1.520      2.202
REMARK  10 active torsions:
REMARK  status: ('A' for Active; 'I' for Inactive)
REMARK    1  A    between atoms: C_2  and  O_3 
REMARK    2  A    between atoms: O_3  and  C_4 
REMARK    3  A    between atoms: C_5  and  O_6 
REMARK    4  A    between atoms: O_6  and  C_7 
REMARK    5  A    between atoms: C_7  and  C_8 
REMARK       I    between atoms: C_8  and  N_9 
REMARK    6  A    between atoms: N_9  and  C_10 
REMARK    7  A    between atoms: C_18  and  C_19 
REMARK    8  A    between atoms: C_19  and  N_20 
REMARK    9  A    between atoms: N_20  and  C_21 
REMARK   10  A    between atoms: C_24  and  N_25 
ROOT
HETATM    1  C   UNL     1      42.811 -10.802   5.759  1.00  0.00     0.103 A 
HETATM    2  C   UNL     1      41.517 -10.500   6.219  1.00  0.00     0.120 A 
HETATM    3  C   UNL     1      40.454 -10.398   5.316  1.00  0.00     0.047 A 
HETATM    4 BR   UNL     1      38.712  -9.893   5.869  1.00  0.00    -0.048 Br
HETATM    5  C   UNL     1      40.661 -10.665   3.961  1.00  0.00     0.031 A 
HETATM    6  C   UNL     1      41.936 -11.014   3.491  1.00  0.00    -0.036 A 
HETATM    7  C   UNL     1      43.006 -11.077   4.401  1.00  0.00     0.048 A 
ENDROOT
BRANCH   6   8
HETATM    8  C   UNL     1      42.150 -11.334   2.030  1.00  0.00     0.158 C 
BRANCH   8   9
HETATM    9  N   UNL     1      41.368 -12.513   1.669  1.00  0.00    -0.386 N 
HETATM   10  H   UNL     1      41.095 -12.510   0.687  1.00  0.00     0.160 HD
BRANCH   9  11
HETATM   11  C   UNL     1      41.742 -13.773   2.129  1.00  0.00     0.028 A 
HETATM   12  C   UNL     1      42.980 -14.364   1.852  1.00  0.00     0.031 A 
HETATM   13  C   UNL     1      43.325 -15.615   2.381  1.00  0.00     0.039 A 
HETATM   14  C   UNL     1      42.440 -16.280   3.228  1.00  0.00     0.134 A 
HETATM   15  C   UNL     1      41.226 -15.685   3.565  1.00  0.00     0.039 A 
HETATM   16  C   UNL     1      40.894 -14.436   3.028  1.00  0.00     0.031 A 
BRANCH  14  17
HETATM   17  N   UNL     1      42.813 -17.614   3.737  1.00  0.00    -0.041 N 
HETATM   18  H   UNL     1      41.932 -18.129   3.858  1.00  0.00     0.286 HD
HETATM   19  C   UNL     1      43.628 -18.391   2.735  1.00  0.00     0.241 C 
HETATM   20  C   UNL     1      43.842 -19.802   3.272  1.00  0.00     0.028 C 
HETATM   21  C   UNL     1      44.468 -19.791   4.665  1.00  0.00     0.003 C 
HETATM   22  C   UNL     1      43.661 -18.934   5.636  1.00  0.00     0.028 C 
HETATM   23  C   UNL     1      43.451 -17.522   5.100  1.00  0.00     0.241 C 
ENDBRANCH  14  17
ENDBRANCH   9  11
ENDBRANCH   8   9
ENDBRANCH   6   8
BRANCH   1  24
HETATM   24  O   UNL     1      43.793 -10.858   6.712  1.00  0.00    -0.349 OA
BRANCH  24  25
HETATM   25  C   UNL     1      44.579 -12.046   6.798  1.00  0.00     0.171 C 
HETATM   26  C   UNL     1      43.684 -13.246   7.048  1.00  0.00     0.034 C 
ENDBRANCH  24  25
ENDBRANCH   1  24
BRANCH   2  27
HETATM   27  O   UNL     1      41.331 -10.248   7.557  1.00  0.00    -0.338 OA
BRANCH  27  28
HETATM   28  C   UNL     1      41.502  -8.850   7.820  1.00  0.00     0.278 C 
BRANCH  28  29
HETATM   29  C   UNL     1      42.579  -8.604   8.874  1.00  0.00     0.242 C 
HETATM   30  N   UNL     1      42.854  -9.702   9.662  1.00  0.00    -0.351 N 
HETATM   31  H   UNL     1      42.442 -10.575   9.343  1.00  0.00     0.163 HD
HETATM   32  O   UNL     1      43.090  -7.498   9.022  1.00  0.00    -0.271 OA
BRANCH  30  33
HETATM   33  C   UNL     1      43.858  -9.748  10.733  1.00  0.00     0.022 C 
HETATM   34  C   UNL     1      43.660  -8.593  11.727  1.00  0.00     0.037 C 
HETATM   35  C   UNL     1      43.682 -11.073  11.494  1.00  0.00     0.037 C 
HETATM   36  C   UNL     1      45.278  -9.703  10.149  1.00  0.00     0.037 C 
ENDBRANCH  30  33
ENDBRANCH  28  29
ENDBRANCH  27  28
ENDBRANCH   2  27
TORSDOF 10
ENDMDL
MODEL 5
REMARK VINA RESULT:      -7.4      2.791      4.617
REMARK  10 active torsions:
REMARK  status: ('A' for Active; 'I' for Inactive)
REMARK    1  A    between atoms: C_2  and  O_3 
REMARK    2  A    between atoms: O_3  and  C_4 
REMARK    3  A    between atoms: C_5  and  O_6 
REMARK    4  A    between atoms: O_6  and  C_7 
REMARK    5  A    between atoms: C_7  and  C_8 
REMARK       I    between atoms: C_8  and  N_9 
REMARK    6  A    between atoms: N_9  and  C_10 
REMARK    7  A    between atoms: C_18  and  C_19 
REMARK    8  A    between atoms: C_19  and  N_20 
REMARK    9  A    between atoms: N_20  and  C_21 
REMARK   10  A    between atoms: C_24  and  N_25 
ROOT
HETATM    1  C   UNL     1      42.927 -12.370   6.737  1.00  0.00     0.103 A 
HETATM    2  C   UNL     1      41.980 -11.409   6.343  1.00  0.00     0.120 A 
HETATM    3  C   UNL     1      40.788 -11.805   5.728  1.00  0.00     0.047 A 
HETATM    4 BR   UNL     1      39.522 -10.547   5.086  1.00  0.00    -0.048 Br
HETATM    5  C   UNL     1      40.503 -13.162   5.567  1.00  0.00     0.031 A 
HETATM    6  C   UNL     1      41.416 -14.137   5.997  1.00  0.00    -0.036 A 
HETATM    7  C   UNL     1      42.628 -13.728   6.579  1.00  0.00     0.048 A 
ENDROOT
BRANCH   6   8
HETATM    8  C   UNL     1      41.091 -15.606   5.850  1.00  0.00     0.158 C 
BRANCH   8   9
HETATM    9  N   UNL     1      41.823 -16.155   4.712  1.00  0.00    -0.386 N 
HETATM   10  H   UNL     1      41.952 -17.163   4.785  1.00  0.00     0.160 HD
BRANCH   9  11
HETATM   11  C   UNL     1      41.532 -15.733   3.417  1.00  0.00     0.028 A 
HETATM   12  C   UNL     1      40.231 -15.626   2.910  1.00  0.00     0.031 A 
HETATM   13  C   UNL     1      39.991 -15.149   1.615  1.00  0.00     0.039 A 
HETATM   14  C   UNL     1      41.057 -14.739   0.817  1.00  0.00     0.134 A 
HETATM   15  C   UNL     1      42.356 -14.782   1.320  1.00  0.00     0.039 A 
HETATM   16  C   UNL     1      42.581 -15.262   2.615  1.00  0.00     0.031 A 
BRANCH  14  17
HETATM   17  N   UNL     1      40.777 -14.280  -0.558  1.00  0.00    -0.041 N 
HETATM   18  H   UNL     1      41.533 -14.659  -1.144  1.00  0.00     0.286 HD
HETATM   19  C   UNL     1      39.492 -14.856  -1.093  1.00  0.00     0.241 C 
HETATM   20  C   UNL     1      39.354 -14.459  -2.559  1.00  0.00     0.028 C 
HETATM   21  C   UNL     1      39.449 -12.946  -2.749  1.00  0.00     0.003 C 
HETATM   22  C   UNL     1      40.725 -12.383  -2.128  1.00  0.00     0.028 C 
HETATM   23  C   UNL     1      40.861 -12.778  -0.662  1.00  0.00     0.241 C 
ENDBRANCH  14  17
ENDBRANCH   9  11
ENDBRANCH   8   9
ENDBRANCH   6   8
BRANCH   1  24
HETATM   24  O   UNL     1      44.074 -11.888   7.309  1.00  0.00    -0.349 OA
BRANCH  24  25
HETATM   25  C   UNL     1      45.209 -11.682   6.469  1.00  0.00     0.171 C 
HETATM   26  C   UNL     1      46.237 -10.824   7.184  1.00  0.00     0.034 C 
ENDBRANCH  24  25
ENDBRANCH   1  24
BRANCH   2  27
HETATM   27  O   UNL     1      42.273 -10.078   6.517  1.00  0.00    -0.338 OA
BRANCH  27  28
HETATM   28  C   UNL     1      41.561  -9.563   7.649  1.00  0.00     0.278 C 
BRANCH  28  29
HETATM   29  C   UNL     1      42.477  -9.393   8.859  1.00  0.00     0.242 C 
HETATM   30  N   UNL     1      41.890  -9.733  10.059  1.00  0.00    -0.351 N 
HETATM   31  H   UNL     1      40.997 -10.212   9.982  1.00  0.00     0.163 HD
HETATM   32  O   UNL     1      43.609  -8.931   8.745  1.00  0.00    -0.271 OA
BRANCH  30  33
HETATM   33  C   UNL     1      42.550  -9.685  11.370  1.00  0.00     0.022 C 
HETATM   34  C   UNL     1      43.081  -8.274  11.672  1.00  0.00     0.037 C 
HETATM   35  C   UNL     1      41.507 -10.046  12.443  1.00  0.00     0.037 C 
HETATM   36  C   UNL     1      43.697 -10.705  11.440  1.00  0.00     0.037 C 
ENDBRANCH  30  33
ENDBRANCH  28  29
ENDBRANCH  27  28
ENDBRANCH   2  27
TORSDOF 10
ENDMDL
MODEL 6
REMARK VINA RESULT:      -7.3      2.892     10.607
REMARK  10 active torsions:
REMARK  status: ('A' for Active; 'I' for Inactive)
REMARK    1  A    between atoms: C_2  and  O_3 
REMARK    2  A    between atoms: O_3  and  C_4 
REMARK    3  A    between atoms: C_5  and  O_6 
REMARK    4  A    between atoms: O_6  and  C_7 
REMARK    5  A    between atoms: C_7  and  C_8 
REMARK       I    between atoms: C_8  and  N_9 
REMARK    6  A    between atoms: N_9  and  C_10 
REMARK    7  A    between atoms: C_18  and  C_19 
REMARK    8  A    between atoms: C_19  and  N_20 
REMARK    9  A    between atoms: N_20  and  C_21 
REMARK   10  A    between atoms: C_24  and  N_25 
ROOT
HETATM    1  C   UNL     1      43.332 -12.712   6.332  1.00  0.00     0.103 A 
HETATM    2  C   UNL     1      42.271 -11.979   5.771  1.00  0.00     0.120 A 
HETATM    3  C   UNL     1      41.991 -10.686   6.224  1.00  0.00     0.047 A 
HETATM    4 BR   UNL     1      40.511  -9.693   5.576  1.00  0.00    -0.048 Br
HETATM    5  C   UNL     1      42.808 -10.091   7.187  1.00  0.00     0.031 A 
HETATM    6  C   UNL     1      43.900 -10.790   7.723  1.00  0.00    -0.036 A 
HETATM    7  C   UNL     1      44.151 -12.104   7.289  1.00  0.00     0.048 A 
ENDROOT
BRANCH   6   8
HETATM    8  C   UNL     1      44.803 -10.132   8.742  1.00  0.00     0.158 C 
BRANCH   8   9
HETATM    9  N   UNL     1      44.412  -8.736   8.909  1.00  0.00    -0.386 N 
HETATM   10  H   UNL     1      43.997  -8.347   8.064  1.00  0.00     0.160 HD
BRANCH   9  11
HETATM   11  C   UNL     1      43.775  -8.317  10.074  1.00  0.00     0.028 A 
HETATM   12  C   UNL     1      43.906  -8.967  11.307  1.00  0.00     0.031 A 
HETATM   13  C   UNL     1      43.281  -8.475  12.460  1.00  0.00     0.039 A 
HETATM   14  C   UNL     1      42.537  -7.297  12.399  1.00  0.00     0.134 A 
HETATM   15  C   UNL     1      42.440  -6.602  11.196  1.00  0.00     0.039 A 
HETATM   16  C   UNL     1      43.068  -7.105  10.052  1.00  0.00     0.031 A 
BRANCH  14  17
HETATM   17  N   UNL     1      41.856  -6.825  13.621  1.00  0.00    -0.041 N 
HETATM   18  H   UNL     1      41.849  -5.799  13.564  1.00  0.00     0.286 HD
HETATM   19  C   UNL     1      40.415  -7.262  13.666  1.00  0.00     0.241 C 
HETATM   20  C   UNL     1      39.747  -6.611  14.874  1.00  0.00     0.028 C 
HETATM   21  C   UNL     1      40.498  -6.914  16.168  1.00  0.00     0.003 C 
HETATM   22  C   UNL     1      41.972  -6.532  16.064  1.00  0.00     0.028 C 
HETATM   23  C   UNL     1      42.639  -7.184  14.858  1.00  0.00     0.241 C 
ENDBRANCH  14  17
ENDBRANCH   9  11
ENDBRANCH   8   9
ENDBRANCH   6   8
BRANCH   1  24
HETATM   24  O   UNL     1      43.517 -13.977   5.842  1.00  0.00    -0.349 OA
BRANCH  24  25
HETATM   25  C   UNL     1      43.543 -15.061   6.772  1.00  0.00     0.171 C 
HETATM   26  C   UNL     1      42.128 -15.515   7.081  1.00  0.00     0.034 C 
ENDBRANCH  24  25
ENDBRANCH   1  24
BRANCH   2  27
HETATM   27  O   UNL     1      41.482 -12.578   4.819  1.00  0.00    -0.338 OA
BRANCH  27  28
HETATM   28  C   UNL     1      41.954 -12.240   3.509  1.00  0.00     0.278 C 
BRANCH  28  29
HETATM   29  C   UNL     1      42.001 -13.465   2.597  1.00  0.00     0.242 C 
HETATM   30  N   UNL     1      42.293 -14.642   3.252  1.00  0.00    -0.351 N 
HETATM   31  H   UNL     1      42.271 -14.587   4.267  1.00  0.00     0.163 HD
HETATM   32  O   UNL     1      41.850 -13.365   1.383  1.00  0.00    -0.271 OA
BRANCH  30  33
HETATM   33  C   UNL     1      42.378 -15.966   2.622  1.00  0.00     0.022 C 
HETATM   34  C   UNL     1      43.426 -15.977   1.497  1.00  0.00     0.037 C 
HETATM   35  C   UNL     1      42.815 -16.978   3.696  1.00  0.00     0.037 C 
HETATM   36  C   UNL     1      41.010 -16.396   2.072  1.00  0.00     0.037 C 
ENDBRANCH  30  33
ENDBRANCH  28  29
ENDBRANCH  27  28
ENDBRANCH   2  27
TORSDOF 10
ENDMDL
MODEL 7
REMARK VINA RESULT:      -7.2      3.808     10.467
REMARK  10 active torsions:
REMARK  status: ('A' for Active; 'I' for Inactive)
REMARK    1  A    between atoms: C_2  and  O_3 
REMARK    2  A    between atoms: O_3  and  C_4 
REMARK    3  A    between atoms: C_5  and  O_6 
REMARK    4  A    between atoms: O_6  and  C_7 
REMARK    5  A    between atoms: C_7  and  C_8 
REMARK       I    between atoms: C_8  and  N_9 
REMARK    6  A    between atoms: N_9  and  C_10 
REMARK    7  A    between atoms: C_18  and  C_19 
REMARK    8  A    between atoms: C_19  and  N_20 
REMARK    9  A    between atoms: N_20  and  C_21 
REMARK   10  A    between atoms: C_24  and  N_25 
ROOT
HETATM    1  C   UNL     1      41.952 -15.627   3.886  1.00  0.00     0.103 A 
HETATM    2  C   UNL     1      40.949 -14.766   3.407  1.00  0.00     0.120 A 
HETATM    3  C   UNL     1      40.814 -13.478   3.935  1.00  0.00     0.047 A 
HETATM    4 BR   UNL     1      39.417 -12.314   3.399  1.00  0.00    -0.048 Br
HETATM    5  C   UNL     1      41.721 -13.017   4.892  1.00  0.00     0.031 A 
HETATM    6  C   UNL     1      42.757 -13.846   5.347  1.00  0.00    -0.036 A 
HETATM    7  C   UNL     1      42.862 -15.153   4.838  1.00  0.00     0.048 A 
ENDROOT
BRANCH   6   8
HETATM    8  C   UNL     1      43.756 -13.334   6.359  1.00  0.00     0.158 C 
BRANCH   8   9
HETATM    9  N   UNL     1      43.999 -11.914   6.128  1.00  0.00    -0.386 N 
HETATM   10  H   UNL     1      43.602 -11.592   5.247  1.00  0.00     0.160 HD
BRANCH   9  11
HETATM   11  C   UNL     1      43.847 -10.995   7.164  1.00  0.00     0.028 A 
HETATM   12  C   UNL     1      42.704 -10.206   7.339  1.00  0.00     0.031 A 
HETATM   13  C   UNL     1      42.581  -9.333   8.428  1.00  0.00     0.039 A 
HETATM   14  C   UNL     1      43.596  -9.263   9.381  1.00  0.00     0.134 A 
HETATM   15  C   UNL     1      44.718 -10.081   9.259  1.00  0.00     0.039 A 
HETATM   16  C   UNL     1      44.827 -10.948   8.166  1.00  0.00     0.031 A 
BRANCH  14  17
HETATM   17  N   UNL     1      43.458  -8.304  10.494  1.00  0.00    -0.041 N 
HETATM   18  H   UNL     1      44.346  -7.788  10.537  1.00  0.00     0.286 HD
HETATM   19  C   UNL     1      42.381  -7.284  10.228  1.00  0.00     0.241 C 
HETATM   20  C   UNL     1      42.405  -6.248  11.348  1.00  0.00     0.028 C 
HETATM   21  C   UNL     1      42.279  -6.897  12.724  1.00  0.00     0.003 C 
HETATM   22  C   UNL     1      43.335  -7.980  12.933  1.00  0.00     0.028 C 
HETATM   23  C   UNL     1      43.308  -9.016  11.815  1.00  0.00     0.241 C 
ENDBRANCH  14  17
ENDBRANCH   9  11
ENDBRANCH   8   9
ENDBRANCH   6   8
BRANCH   1  24
HETATM   24  O   UNL     1      41.994 -16.876   3.327  1.00  0.00    -0.349 OA
BRANCH  24  25
HETATM   25  C   UNL     1      43.272 -17.438   3.030  1.00  0.00     0.171 C 
HETATM   26  C   UNL     1      43.104 -18.751   2.287  1.00  0.00     0.034 C 
ENDBRANCH  24  25
ENDBRANCH   1  24
BRANCH   2  27
HETATM   27  O   UNL     1      40.070 -15.234   2.460  1.00  0.00    -0.338 OA
BRANCH  27  28
HETATM   28  C   UNL     1      40.733 -15.355   1.195  1.00  0.00     0.278 C 
BRANCH  28  29
HETATM   29  C   UNL     1      40.475 -14.139   0.308  1.00  0.00     0.242 C 
HETATM   30  N   UNL     1      39.456 -14.315  -0.603  1.00  0.00    -0.351 N 
HETATM   31  H   UNL     1      38.892 -15.150  -0.463  1.00  0.00     0.163 HD
HETATM   32  O   UNL     1      41.175 -13.133   0.381  1.00  0.00    -0.271 OA
BRANCH  30  33
HETATM   33  C   UNL     1      38.986 -13.303  -1.558  1.00  0.00     0.022 C 
HETATM   34  C   UNL     1      38.449 -12.060  -0.829  1.00  0.00     0.037 C 
HETATM   35  C   UNL     1      40.183 -12.872  -2.424  1.00  0.00     0.037 C 
HETATM   36  C   UNL     1      37.901 -13.883  -2.478  1.00  0.00     0.037 C 
ENDBRANCH  30  33
ENDBRANCH  28  29
ENDBRANCH  27  28
ENDBRANCH   2  27
TORSDOF 10
ENDMDL
MODEL 8
REMARK VINA RESULT:      -7.0      2.066      3.083
REMARK  10 active torsions:
REMARK  status: ('A' for Active; 'I' for Inactive)
REMARK    1  A    between atoms: C_2  and  O_3 
REMARK    2  A    between atoms: O_3  and  C_4 
REMARK    3  A    between atoms: C_5  and  O_6 
REMARK    4  A    between atoms: O_6  and  C_7 
REMARK    5  A    between atoms: C_7  and  C_8 
REMARK       I    between atoms: C_8  and  N_9 
REMARK    6  A    between atoms: N_9  and  C_10 
REMARK    7  A    between atoms: C_18  and  C_19 
REMARK    8  A    between atoms: C_19  and  N_20 
REMARK    9  A    between atoms: N_20  and  C_21 
REMARK   10  A    between atoms: C_24  and  N_25 
ROOT
HETATM    1  C   UNL     1      41.833  -9.595   7.455  1.00  0.00     0.103 A 
HETATM    2  C   UNL     1      42.645  -9.403   8.586  1.00  0.00     0.120 A 
HETATM    3  C   UNL     1      43.876 -10.058   8.689  1.00  0.00     0.047 A 
HETATM    4 BR   UNL     1      44.964  -9.915  10.236  1.00  0.00    -0.048 Br
HETATM    5  C   UNL     1      44.335 -10.853   7.637  1.00  0.00     0.031 A 
HETATM    6  C   UNL     1      43.558 -11.018   6.480  1.00  0.00    -0.036 A 
HETATM    7  C   UNL     1      42.305 -10.385   6.401  1.00  0.00     0.048 A 
ENDROOT
BRANCH   6   8
HETATM    8  C   UNL     1      44.071 -11.852   5.328  1.00  0.00     0.158 C 
BRANCH   8   9
HETATM    9  N   UNL     1      42.956 -12.559   4.705  1.00  0.00    -0.386 N 
HETATM   10  H   UNL     1      42.578 -12.056   3.904  1.00  0.00     0.160 HD
BRANCH   9  11
HETATM   11  C   UNL     1      43.019 -13.936   4.505  1.00  0.00     0.028 A 
HETATM   12  C   UNL     1      42.941 -14.875   5.540  1.00  0.00     0.031 A 
HETATM   13  C   UNL     1      42.960 -16.252   5.279  1.00  0.00     0.039 A 
HETATM   14  C   UNL     1      43.024 -16.708   3.963  1.00  0.00     0.134 A 
HETATM   15  C   UNL     1      43.045 -15.793   2.913  1.00  0.00     0.039 A 
HETATM   16  C   UNL     1      43.026 -14.422   3.189  1.00  0.00     0.031 A 
BRANCH  14  17
HETATM   17  N   UNL     1      43.085 -18.163   3.721  1.00  0.00    -0.041 N 
HETATM   18  H   UNL     1      42.170 -18.537   4.004  1.00  0.00     0.286 HD
HETATM   19  C   UNL     1      43.243 -18.483   2.257  1.00  0.00     0.241 C 
HETATM   20  C   UNL     1      43.144 -19.995   2.076  1.00  0.00     0.028 C 
HETATM   21  C   UNL     1      44.147 -20.738   2.956  1.00  0.00     0.003 C 
HETATM   22  C   UNL     1      44.014 -20.334   4.422  1.00  0.00     0.028 C 
HETATM   23  C   UNL     1      44.114 -18.824   4.602  1.00  0.00     0.241 C 
ENDBRANCH  14  17
ENDBRANCH   9  11
ENDBRANCH   8   9
ENDBRANCH   6   8
BRANCH   1  24
HETATM   24  O   UNL     1      40.635  -8.931   7.452  1.00  0.00    -0.349 OA
BRANCH  24  25
HETATM   25  C   UNL     1      39.459  -9.663   7.796  1.00  0.00     0.171 C 
HETATM   26  C   UNL     1      39.054 -10.567   6.647  1.00  0.00     0.034 C 
ENDBRANCH  24  25
ENDBRANCH   1  24
BRANCH   2  27
HETATM   27  O   UNL     1      42.181  -8.611   9.609  1.00  0.00    -0.338 OA
BRANCH  27  28
HETATM   28  C   UNL     1      41.489  -9.414  10.573  1.00  0.00     0.278 C 
BRANCH  28  29
HETATM   29  C   UNL     1      41.049  -8.587  11.779  1.00  0.00     0.242 C 
HETATM   30  N   UNL     1      42.092  -8.052  12.505  1.00  0.00    -0.351 N 
HETATM   31  H   UNL     1      43.005  -8.123  12.063  1.00  0.00     0.163 HD
HETATM   32  O   UNL     1      39.864  -8.480  12.084  1.00  0.00    -0.271 OA
BRANCH  30  33
HETATM   33  C   UNL     1      41.951  -7.201  13.694  1.00  0.00     0.022 C 
HETATM   34  C   UNL     1      41.063  -7.872  14.753  1.00  0.00     0.037 C 
HETATM   35  C   UNL     1      43.350  -6.995  14.301  1.00  0.00     0.037 C 
HETATM   36  C   UNL     1      41.374  -5.829  13.316  1.00  0.00     0.037 C 
ENDBRANCH  30  33
ENDBRANCH  28  29
ENDBRANCH  27  28
ENDBRANCH   2  27
TORSDOF 10
ENDMDL
MODEL 9
REMARK VINA RESULT:      -6.9     18.220     20.314
REMARK  10 active torsions:
REMARK  status: ('A' for Active; 'I' for Inactive)
REMARK    1  A    between atoms: C_2  and  O_3 
REMARK    2  A    between atoms: O_3  and  C_4 
REMARK    3  A    between atoms: C_5  and  O_6 
REMARK    4  A    between atoms: O_6  and  C_7 
REMARK    5  A    between atoms: C_7  and  C_8 
REMARK       I    between atoms: C_8  and  N_9 
REMARK    6  A    between atoms: N_9  and  C_10 
REMARK    7  A    between atoms: C_18  and  C_19 
REMARK    8  A    between atoms: C_19  and  N_20 
REMARK    9  A    between atoms: N_20  and  C_21 
REMARK   10  A    between atoms: C_24  and  N_25 
ROOT
HETATM    1  C   UNL     1      46.314 -29.182   0.904  1.00  0.00     0.103 A 
HETATM    2  C   UNL     1      46.464 -28.775  -0.433  1.00  0.00     0.120 A 
HETATM    3  C   UNL     1      45.347 -28.663  -1.266  1.00  0.00     0.047 A 
HETATM    4 BR   UNL     1      45.503 -28.217  -3.103  1.00  0.00    -0.048 Br
HETATM    5  C   UNL     1      44.068 -28.888  -0.753  1.00  0.00     0.031 A 
HETATM    6  C   UNL     1      43.895 -29.249   0.591  1.00  0.00    -0.036 A 
HETATM    7  C   UNL     1      45.028 -29.396   1.411  1.00  0.00     0.048 A 
ENDROOT
BRANCH   6   8
HETATM    8  C   UNL     1      42.508 -29.461   1.153  1.00  0.00     0.158 C 
BRANCH   8   9
HETATM    9  N   UNL     1      42.602 -29.791   2.572  1.00  0.00    -0.386 N 
HETATM   10  H   UNL     1      42.799 -28.974   3.147  1.00  0.00     0.160 HD
BRANCH   9  11
HETATM   11  C   UNL     1      41.683 -30.661   3.155  1.00  0.00     0.028 A 
HETATM   12  C   UNL     1      41.208 -30.524   4.465  1.00  0.00     0.031 A 
HETATM   13  C   UNL     1      40.246 -31.398   4.986  1.00  0.00     0.039 A 
HETATM   14  C   UNL     1      39.719 -32.409   4.185  1.00  0.00     0.134 A 
HETATM   15  C   UNL     1      40.133 -32.530   2.860  1.00  0.00     0.039 A 
HETATM   16  C   UNL     1      41.095 -31.650   2.353  1.00  0.00     0.031 A 
BRANCH  14  17
HETATM   17  N   UNL     1      38.737 -33.341   4.774  1.00  0.00    -0.041 N 
HETATM   18  H   UNL     1      39.155 -34.278   4.701  1.00  0.00     0.286 HD
HETATM   19  C   UNL     1      38.524 -33.080   6.243  1.00  0.00     0.241 C 
HETATM   20  C   UNL     1      37.620 -34.172   6.805  1.00  0.00     0.028 C 
HETATM   21  C   UNL     1      36.310 -34.280   6.027  1.00  0.00     0.003 C 
HETATM   22  C   UNL     1      36.559 -34.466   4.533  1.00  0.00     0.028 C 
HETATM   23  C   UNL     1      37.461 -33.374   3.971  1.00  0.00     0.241 C 
ENDBRANCH  14  17
ENDBRANCH   9  11
ENDBRANCH   8   9
ENDBRANCH   6   8
BRANCH   1  24
HETATM   24  O   UNL     1      47.466 -29.286   1.637  1.00  0.00    -0.349 OA
BRANCH  24  25
HETATM   25  C   UNL     1      47.351 -29.533   3.038  1.00  0.00     0.171 C 
HETATM   26  C   UNL     1      48.543 -28.944   3.770  1.00  0.00     0.034 C 
ENDBRANCH  24  25
ENDBRANCH   1  24
BRANCH   2  27
HETATM   27  O   UNL     1      47.730 -28.550  -0.920  1.00  0.00    -0.338 OA
BRANCH  27  28
HETATM   28  C   UNL     1      48.249 -29.749  -1.506  1.00  0.00     0.278 C 
BRANCH  28  29
HETATM   29  C   UNL     1      49.531 -30.204  -0.811  1.00  0.00     0.242 C 
HETATM   30  N   UNL     1      49.320 -31.034   0.269  1.00  0.00    -0.351 N 
HETATM   31  H   UNL     1      48.368 -31.379   0.368  1.00  0.00     0.163 HD
HETATM   32  O   UNL     1      50.633 -29.798  -1.169  1.00  0.00    -0.271 OA
BRANCH  30  33
HETATM   33  C   UNL     1      50.373 -31.633   1.099  1.00  0.00     0.022 C 
HETATM   34  C   UNL     1      51.057 -30.571   1.976  1.00  0.00     0.037 C 
HETATM   35  C   UNL     1      49.718 -32.671   2.027  1.00  0.00     0.037 C 
HETATM   36  C   UNL     1      51.416 -32.345   0.225  1.00  0.00     0.037 C 
ENDBRANCH  30  33
ENDBRANCH  28  29
ENDBRANCH  27  28
ENDBRANCH   2  27
TORSDOF 10
ENDMDL
MODEL 10
REMARK VINA RESULT:      -6.7      3.864     10.293
REMARK  10 active torsions:
REMARK  status: ('A' for Active; 'I' for Inactive)
REMARK    1  A    between atoms: C_2  and  O_3 
REMARK    2  A    between atoms: O_3  and  C_4 
REMARK    3  A    between atoms: C_5  and  O_6 
REMARK    4  A    between atoms: O_6  and  C_7 
REMARK    5  A    between atoms: C_7  and  C_8 
REMARK       I    between atoms: C_8  and  N_9 
REMARK    6  A    between atoms: N_9  and  C_10 
REMARK    7  A    between atoms: C_18  and  C_19 
REMARK    8  A    between atoms: C_19  and  N_20 
REMARK    9  A    between atoms: N_20  and  C_21 
REMARK   10  A    between atoms: C_24  and  N_25 
ROOT
HETATM    1  C   UNL     1      41.654 -12.134   4.244  1.00  0.00     0.103 A 
HETATM    2  C   UNL     1      41.414 -13.505   4.047  1.00  0.00     0.120 A 
HETATM    3  C   UNL     1      42.217 -14.459   4.681  1.00  0.00     0.047 A 
HETATM    4 BR   UNL     1      42.003 -16.318   4.372  1.00  0.00    -0.048 Br
HETATM    5  C   UNL     1      43.216 -14.053   5.568  1.00  0.00     0.031 A 
HETATM    6  C   UNL     1      43.438 -12.689   5.812  1.00  0.00    -0.036 A 
HETATM    7  C   UNL     1      42.651 -11.737   5.141  1.00  0.00     0.048 A 
ENDROOT
BRANCH   6   8
HETATM    8  C   UNL     1      44.499 -12.252   6.797  1.00  0.00     0.158 C 
BRANCH   8   9
HETATM    9  N   UNL     1      44.370 -10.820   7.049  1.00  0.00    -0.386 N 
HETATM   10  H   UNL     1      43.979 -10.321   6.251  1.00  0.00     0.160 HD
BRANCH   9  11
HETATM   11  C   UNL     1      43.886 -10.361   8.271  1.00  0.00     0.028 A 
HETATM   12  C   UNL     1      44.625 -10.393   9.460  1.00  0.00     0.031 A 
HETATM   13  C   UNL     1      44.109  -9.872  10.653  1.00  0.00     0.039 A 
HETATM   14  C   UNL     1      42.848  -9.278  10.665  1.00  0.00     0.134 A 
HETATM   15  C   UNL     1      42.117  -9.183   9.482  1.00  0.00     0.039 A 
HETATM   16  C   UNL     1      42.644  -9.708   8.298  1.00  0.00     0.031 A 
BRANCH  14  17
HETATM   17  N   UNL     1      42.312  -8.776  11.945  1.00  0.00    -0.041 N 
HETATM   18  H   UNL     1      41.637  -8.041  11.702  1.00  0.00     0.286 HD
HETATM   19  C   UNL     1      41.542  -9.836  12.688  1.00  0.00     0.241 C 
HETATM   20  C   UNL     1      40.899  -9.200  13.916  1.00  0.00     0.028 C 
HETATM   21  C   UNL     1      41.929  -8.492  14.794  1.00  0.00     0.003 C 
HETATM   22  C   UNL     1      42.746  -7.480  13.995  1.00  0.00     0.028 C 
HETATM   23  C   UNL     1      43.390  -8.118  12.769  1.00  0.00     0.241 C 
ENDBRANCH  14  17
ENDBRANCH   9  11
ENDBRANCH   8   9
ENDBRANCH   6   8
BRANCH   1  24
HETATM   24  O   UNL     1      40.833 -11.274   3.564  1.00  0.00    -0.349 OA
BRANCH  24  25
HETATM   25  C   UNL     1      39.941 -10.456   4.322  1.00  0.00     0.171 C 
HETATM   26  C   UNL     1      40.352  -8.999   4.213  1.00  0.00     0.034 C 
ENDBRANCH  24  25
ENDBRANCH   1  24
BRANCH   2  27
HETATM   27  O   UNL     1      40.422 -13.887   3.177  1.00  0.00    -0.338 OA
BRANCH  27  28
HETATM   28  C   UNL     1      40.972 -14.107   1.873  1.00  0.00     0.278 C 
BRANCH  28  29
HETATM   29  C   UNL     1      40.158 -13.399   0.793  1.00  0.00     0.242 C 
HETATM   30  N   UNL     1      40.624 -13.604  -0.488  1.00  0.00    -0.351 N 
HETATM   31  H   UNL     1      41.334 -14.327  -0.577  1.00  0.00     0.163 HD
HETATM   32  O   UNL     1      39.214 -12.668   1.079  1.00  0.00    -0.271 OA
BRANCH  30  33
HETATM   33  C   UNL     1      40.018 -13.061  -1.711  1.00  0.00     0.022 C 
HETATM   34  C   UNL     1      40.235 -11.542  -1.808  1.00  0.00     0.037 C 
HETATM   35  C   UNL     1      40.704 -13.723  -2.918  1.00  0.00     0.037 C 
HETATM   36  C   UNL     1      38.517 -13.382  -1.763  1.00  0.00     0.037 C 
ENDBRANCH  30  33
ENDBRANCH  28  29
ENDBRANCH  27  28
ENDBRANCH   2  27
TORSDOF 10
ENDMDL
