MODEL 1
REMARK VINA RESULT:      -7.9      0.000      0.000
REMARK  7 active torsions:
REMARK  status: ('A' for Active; 'I' for Inactive)
REMARK    1  A    between atoms: C_2  and  C_3 
REMARK    2  A    between atoms: C_3  and  O_4 
REMARK    3  A    between atoms: O_4  and  C_5 
REMARK    4  A    between atoms: C_9  and  C_10 
REMARK    5  A    between atoms: C_10  and  N_11 
REMARK    6  A    between atoms: N_11  and  C_12 
REMARK    7  A    between atoms: C_19  and  C_20 
REMARK       I    between atoms: C_20  and  N_21 
ROOT
HETATM    1  C   UNL     1      43.816 -12.278   7.122  1.00  0.00     0.009 A 
HETATM    2  C   UNL     1      43.580 -11.135   7.909  1.00  0.00     0.039 A 
HETATM    3  C   UNL     1      44.542 -10.105   7.984  1.00  0.00     0.030 A 
HETATM    4  C   UNL     1      45.737 -10.260   7.298  1.00  0.00     0.063 A 
HETATM    5  N   UNL     1      46.457  -9.129   7.563  1.00  0.00    -0.277 N 
HETATM    6  H   UNL     1      47.387  -8.901   7.229  1.00  0.00     0.189 HD
HETATM    7  N   UNL     1      45.833  -8.246   8.361  1.00  0.00    -0.168 NA
HETATM    8  C   UNL     1      44.647  -8.839   8.631  1.00  0.00     0.156 A 
HETATM    9  C   UNL     1      46.034 -11.392   6.538  1.00  0.00     0.034 A 
HETATM   10  C   UNL     1      45.055 -12.396   6.480  1.00  0.00     0.026 A 
ENDROOT
BRANCH   1  11
HETATM   11  N   UNL     1      42.857 -13.301   7.139  1.00  0.00    -0.289 NA
HETATM   12  H   UNL     1      42.208 -13.196   7.918  1.00  0.00     0.128 HD
BRANCH  11  13
HETATM   13  C   UNL     1      42.180 -13.664   5.904  1.00  0.00     0.131 C 
BRANCH  13  14
HETATM   14  C   UNL     1      42.763 -14.951   5.365  1.00  0.00    -0.043 A 
HETATM   15  C   UNL     1      42.696 -15.256   4.000  1.00  0.00     0.035 A 
HETATM   16  C   UNL     1      43.269 -16.434   3.509  1.00  0.00     0.068 A 
HETATM   17  C   UNL     1      43.928 -17.323   4.371  1.00  0.00     0.090 A 
HETATM   18 CL   UNL     1      43.168 -16.737   1.809  1.00  0.00    -0.081 Cl
HETATM   19  C   UNL     1      43.960 -17.039   5.740  1.00  0.00     0.039 A 
HETATM   20  C   UNL     1      43.387 -15.861   6.230  1.00  0.00     0.011 A 
BRANCH  17  21
HETATM   21  O   UNL     1      44.474 -18.453   3.820  1.00  0.00    -0.346 OA
BRANCH  21  22
HETATM   22  C   UNL     1      44.083 -19.689   4.417  1.00  0.00     0.202 C 
BRANCH  22  23
HETATM   23  C   UNL     1      43.797 -20.653   3.304  1.00  0.00    -0.011 C 
HETATM   24  C   UNL     1      43.461 -20.304   2.055  1.00  0.00     0.009 C 
ENDBRANCH  22  23
ENDBRANCH  21  22
ENDBRANCH  17  21
ENDBRANCH  13  14
ENDBRANCH  11  13
ENDBRANCH   1  11
BRANCH   8  25
HETATM   25  C   UNL     1      43.647  -8.190   9.490  1.00  0.00     0.270 C 
HETATM   26  N   UNL     1      42.865  -7.273   8.841  1.00  0.00    -0.365 N 
HETATM   27  H   UNL     1      43.023  -7.114   7.854  1.00  0.00     0.159 HD
HETATM   28  H   UNL     1      42.146  -6.780   9.347  1.00  0.00     0.159 HD
HETATM   29  O   UNL     1      43.494  -8.427  10.684  1.00  0.00    -0.266 OA
ENDBRANCH   8  25
TORSDOF 7
ENDMDL
MODEL 2
REMARK VINA RESULT:      -7.5      5.834      7.578
REMARK  7 active torsions:
REMARK  status: ('A' for Active; 'I' for Inactive)
REMARK    1  A    between atoms: C_2  and  C_3 
REMARK    2  A    between atoms: C_3  and  O_4 
REMARK    3  A    between atoms: O_4  and  C_5 
REMARK    4  A    between atoms: C_9  and  C_10 
REMARK    5  A    between atoms: C_10  and  N_11 
REMARK    6  A    between atoms: N_11  and  C_12 
REMARK    7  A    between atoms: C_19  and  C_20 
REMARK       I    between atoms: C_20  and  N_21 
ROOT
HETATM    1  C   UNL     1      39.863 -14.386   0.213  1.00  0.00     0.009 A 
HETATM    2  C   UNL     1      40.415 -13.093   0.301  1.00  0.00     0.039 A 
HETATM    3  C   UNL     1      40.611 -12.317  -0.861  1.00  0.00     0.030 A 
HETATM    4  C   UNL     1      40.283 -12.866  -2.092  1.00  0.00     0.063 A 
HETATM    5  N   UNL     1      40.585 -11.903  -3.012  1.00  0.00    -0.277 N 
HETATM    6  H   UNL     1      40.478 -11.960  -4.019  1.00  0.00     0.189 HD
HETATM    7  N   UNL     1      41.079 -10.767  -2.488  1.00  0.00    -0.168 NA
HETATM    8  C   UNL     1      41.102 -11.011  -1.157  1.00  0.00     0.156 A 
HETATM    9  C   UNL     1      39.771 -14.157  -2.233  1.00  0.00     0.034 A 
HETATM   10  C   UNL     1      39.584 -14.902  -1.059  1.00  0.00     0.026 A 
ENDROOT
BRANCH   1  11
HETATM   11  N   UNL     1      39.756 -15.139   1.390  1.00  0.00    -0.289 NA
HETATM   12  H   UNL     1      39.878 -16.135   1.212  1.00  0.00     0.128 HD
BRANCH  11  13
HETATM   13  C   UNL     1      40.463 -14.702   2.584  1.00  0.00     0.131 C 
BRANCH  13  14
HETATM   14  C   UNL     1      41.532 -15.711   2.938  1.00  0.00    -0.043 A 
HETATM   15  C   UNL     1      42.287 -15.579   4.110  1.00  0.00     0.035 A 
HETATM   16  C   UNL     1      43.249 -16.538   4.444  1.00  0.00     0.068 A 
HETATM   17  C   UNL     1      43.469 -17.650   3.617  1.00  0.00     0.090 A 
HETATM   18 CL   UNL     1      44.130 -16.324   5.917  1.00  0.00    -0.081 Cl
HETATM   19  C   UNL     1      42.744 -17.761   2.427  1.00  0.00     0.039 A 
HETATM   20  C   UNL     1      41.781 -16.802   2.095  1.00  0.00     0.011 A 
BRANCH  17  21
HETATM   21  O   UNL     1      44.422 -18.554   4.010  1.00  0.00    -0.346 OA
BRANCH  21  22
HETATM   22  C   UNL     1      44.066 -19.930   3.880  1.00  0.00     0.202 C 
BRANCH  22  23
HETATM   23  C   UNL     1      44.068 -20.524   5.257  1.00  0.00    -0.011 C 
HETATM   24  C   UNL     1      43.557 -19.937   6.347  1.00  0.00     0.009 C 
ENDBRANCH  22  23
ENDBRANCH  21  22
ENDBRANCH  17  21
ENDBRANCH  13  14
ENDBRANCH  11  13
ENDBRANCH   1  11
BRANCH   8  25
HETATM   25  C   UNL     1      41.586 -10.003  -0.204  1.00  0.00     0.270 C 
HETATM   26  N   UNL     1      41.487  -8.715  -0.656  1.00  0.00    -0.365 N 
HETATM   27  H   UNL     1      41.102  -8.554  -1.579  1.00  0.00     0.159 HD
HETATM   28  H   UNL     1      41.790  -7.953  -0.070  1.00  0.00     0.159 HD
HETATM   29  O   UNL     1      42.038 -10.255   0.908  1.00  0.00    -0.266 OA
ENDBRANCH   8  25
TORSDOF 7
ENDMDL
MODEL 3
REMARK VINA RESULT:      -7.4      1.496      1.650
REMARK  7 active torsions:
REMARK  status: ('A' for Active; 'I' for Inactive)
REMARK    1  A    between atoms: C_2  and  C_3 
REMARK    2  A    between atoms: C_3  and  O_4 
REMARK    3  A    between atoms: O_4  and  C_5 
REMARK    4  A    between atoms: C_9  and  C_10 
REMARK    5  A    between atoms: C_10  and  N_11 
REMARK    6  A    between atoms: N_11  and  C_12 
REMARK    7  A    between atoms: C_19  and  C_20 
REMARK       I    between atoms: C_20  and  N_21 
ROOT
HETATM    1  C   UNL     1      44.139 -11.248   6.256  1.00  0.00     0.009 A 
HETATM    2  C   UNL     1      43.331 -10.699   7.269  1.00  0.00     0.039 A 
HETATM    3  C   UNL     1      43.911 -10.164   8.439  1.00  0.00     0.030 A 
HETATM    4  C   UNL     1      45.289 -10.221   8.585  1.00  0.00     0.063 A 
HETATM    5  N   UNL     1      45.551  -9.646   9.795  1.00  0.00    -0.277 N 
HETATM    6  H   UNL     1      46.458  -9.520  10.232  1.00  0.00     0.189 HD
HETATM    7  N   UNL     1      44.462  -9.213  10.454  1.00  0.00    -0.168 NA
HETATM    8  C   UNL     1      43.440  -9.529   9.626  1.00  0.00     0.156 A 
HETATM    9  C   UNL     1      46.129 -10.791   7.626  1.00  0.00     0.034 A 
HETATM   10  C   UNL     1      45.522 -11.311   6.473  1.00  0.00     0.026 A 
ENDROOT
BRANCH   1  11
HETATM   11  N   UNL     1      43.507 -11.829   5.148  1.00  0.00    -0.289 NA
HETATM   12  H   UNL     1      44.182 -12.175   4.468  1.00  0.00     0.128 HD
BRANCH  11  13
HETATM   13  C   UNL     1      42.412 -12.762   5.361  1.00  0.00     0.131 C 
BRANCH  13  14
HETATM   14  C   UNL     1      42.910 -14.178   5.179  1.00  0.00    -0.043 A 
HETATM   15  C   UNL     1      42.839 -14.812   3.932  1.00  0.00     0.035 A 
HETATM   16  C   UNL     1      43.335 -16.110   3.769  1.00  0.00     0.068 A 
HETATM   17  C   UNL     1      43.918 -16.795   4.845  1.00  0.00     0.090 A 
HETATM   18 CL   UNL     1      43.233 -16.824   2.196  1.00  0.00    -0.081 Cl
HETATM   19  C   UNL     1      43.954 -16.178   6.099  1.00  0.00     0.039 A 
HETATM   20  C   UNL     1      43.458 -14.880   6.261  1.00  0.00     0.011 A 
BRANCH  17  21
HETATM   21  O   UNL     1      44.391 -18.060   4.611  1.00  0.00    -0.346 OA
BRANCH  21  22
HETATM   22  C   UNL     1      43.964 -19.065   5.530  1.00  0.00     0.202 C 
BRANCH  22  23
HETATM   23  C   UNL     1      44.366 -20.392   4.961  1.00  0.00    -0.011 C 
HETATM   24  C   UNL     1      43.891 -20.914   3.823  1.00  0.00     0.009 C 
ENDBRANCH  22  23
ENDBRANCH  21  22
ENDBRANCH  17  21
ENDBRANCH  13  14
ENDBRANCH  11  13
ENDBRANCH   1  11
BRANCH   8  25
HETATM   25  C   UNL     1      42.047  -9.220   9.979  1.00  0.00     0.270 C 
HETATM   26  N   UNL     1      41.464 -10.141  10.806  1.00  0.00    -0.365 N 
HETATM   27  H   UNL     1      42.012 -10.938  11.107  1.00  0.00     0.159 HD
HETATM   28  H   UNL     1      40.511 -10.012  11.108  1.00  0.00     0.159 HD
HETATM   29  O   UNL     1      41.432  -8.233   9.590  1.00  0.00    -0.266 OA
ENDBRANCH   8  25
TORSDOF 7
ENDMDL
MODEL 4
REMARK VINA RESULT:      -7.3      5.380      8.128
REMARK  7 active torsions:
REMARK  status: ('A' for Active; 'I' for Inactive)
REMARK    1  A    between atoms: C_2  and  C_3 
REMARK    2  A    between atoms: C_3  and  O_4 
REMARK    3  A    between atoms: O_4  and  C_5 
REMARK    4  A    between atoms: C_9  and  C_10 
REMARK    5  A    between atoms: C_10  and  N_11 
REMARK    6  A    between atoms: N_11  and  C_12 
REMARK    7  A    between atoms: C_19  and  C_20 
REMARK       I    between atoms: C_20  and  N_21 
ROOT
HETATM    1  C   UNL     1      41.026 -12.495   1.651  1.00  0.00     0.009 A 
HETATM    2  C   UNL     1      40.730 -13.145   0.438  1.00  0.00     0.039 A 
HETATM    3  C   UNL     1      39.511 -12.898  -0.229  1.00  0.00     0.030 A 
HETATM    4  C   UNL     1      38.598 -12.030   0.352  1.00  0.00     0.063 A 
HETATM    5  N   UNL     1      37.533 -11.997  -0.502  1.00  0.00    -0.277 N 
HETATM    6  H   UNL     1      36.675 -11.469  -0.393  1.00  0.00     0.189 HD
HETATM    7  N   UNL     1      37.672 -12.767  -1.595  1.00  0.00    -0.168 NA
HETATM    8  C   UNL     1      38.891 -13.331  -1.438  1.00  0.00     0.156 A 
HETATM    9  C   UNL     1      38.830 -11.393   1.572  1.00  0.00     0.034 A 
HETATM   10  C   UNL     1      40.052 -11.657   2.209  1.00  0.00     0.026 A 
ENDROOT
BRANCH   1  11
HETATM   11  N   UNL     1      42.219 -12.831   2.306  1.00  0.00    -0.289 NA
HETATM   12  H   UNL     1      42.979 -12.202   2.050  1.00  0.00     0.128 HD
BRANCH  11  13
HETATM   13  C   UNL     1      42.195 -13.113   3.733  1.00  0.00     0.131 C 
BRANCH  13  14
HETATM   14  C   UNL     1      42.638 -14.538   3.976  1.00  0.00    -0.043 A 
HETATM   15  C   UNL     1      42.718 -15.055   5.275  1.00  0.00     0.035 A 
HETATM   16  C   UNL     1      43.096 -16.385   5.485  1.00  0.00     0.068 A 
HETATM   17  C   UNL     1      43.391 -17.225   4.401  1.00  0.00     0.090 A 
HETATM   18 CL   UNL     1      43.154 -16.964   7.114  1.00  0.00    -0.081 Cl
HETATM   19  C   UNL     1      43.350 -16.699   3.107  1.00  0.00     0.039 A 
HETATM   20  C   UNL     1      42.972 -15.368   2.898  1.00  0.00     0.011 A 
BRANCH  17  21
HETATM   21  O   UNL     1      43.746 -18.520   4.680  1.00  0.00    -0.346 OA
BRANCH  21  22
HETATM   22  C   UNL     1      44.513 -19.186   3.678  1.00  0.00     0.202 C 
BRANCH  22  23
HETATM   23  C   UNL     1      43.622 -20.208   3.038  1.00  0.00    -0.011 C 
HETATM   24  C   UNL     1      43.546 -20.441   1.721  1.00  0.00     0.009 C 
ENDBRANCH  22  23
ENDBRANCH  21  22
ENDBRANCH  17  21
ENDBRANCH  13  14
ENDBRANCH  11  13
ENDBRANCH   1  11
BRANCH   8  25
HETATM   25  C   UNL     1      39.437 -14.262  -2.435  1.00  0.00     0.270 C 
HETATM   26  N   UNL     1      38.712 -15.414  -2.578  1.00  0.00    -0.365 N 
HETATM   27  H   UNL     1      37.883 -15.539  -2.011  1.00  0.00     0.159 HD
HETATM   28  H   UNL     1      39.006 -16.112  -3.243  1.00  0.00     0.159 HD
HETATM   29  O   UNL     1      40.446 -14.057  -3.102  1.00  0.00    -0.266 OA
ENDBRANCH   8  25
TORSDOF 7
ENDMDL
MODEL 5
REMARK VINA RESULT:      -7.3      3.580      9.279
REMARK  7 active torsions:
REMARK  status: ('A' for Active; 'I' for Inactive)
REMARK    1  A    between atoms: C_2  and  C_3 
REMARK    2  A    between atoms: C_3  and  O_4 
REMARK    3  A    between atoms: O_4  and  C_5 
REMARK    4  A    between atoms: C_9  and  C_10 
REMARK    5  A    between atoms: C_10  and  N_11 
REMARK    6  A    between atoms: N_11  and  C_12 
REMARK    7  A    between atoms: C_19  and  C_20 
REMARK       I    between atoms: C_20  and  N_21 
ROOT
HETATM    1  C   UNL     1      43.277 -15.516   4.548  1.00  0.00     0.009 A 
HETATM    2  C   UNL     1      43.472 -16.839   4.986  1.00  0.00     0.039 A 
HETATM    3  C   UNL     1      43.514 -17.903   4.060  1.00  0.00     0.030 A 
HETATM    4  C   UNL     1      43.325 -17.621   2.715  1.00  0.00     0.063 A 
HETATM    5  N   UNL     1      43.409 -18.826   2.076  1.00  0.00    -0.277 N 
HETATM    6  H   UNL     1      43.313 -19.001   1.082  1.00  0.00     0.189 HD
HETATM    7  N   UNL     1      43.641 -19.872   2.888  1.00  0.00    -0.168 NA
HETATM    8  C   UNL     1      43.706 -19.314   4.119  1.00  0.00     0.156 A 
HETATM    9  C   UNL     1      43.089 -16.331   2.237  1.00  0.00     0.034 A 
HETATM   10  C   UNL     1      43.056 -15.295   3.182  1.00  0.00     0.026 A 
ENDROOT
BRANCH   1  11
HETATM   11  N   UNL     1      43.173 -14.508   5.517  1.00  0.00    -0.289 NA
HETATM   12  H   UNL     1      44.084 -14.260   5.901  1.00  0.00     0.128 HD
BRANCH  11  13
HETATM   13  C   UNL     1      42.354 -13.338   5.245  1.00  0.00     0.131 C 
BRANCH  13  14
HETATM   14  C   UNL     1      42.856 -12.166   6.057  1.00  0.00    -0.043 A 
HETATM   15  C   UNL     1      44.207 -12.063   6.414  1.00  0.00     0.035 A 
HETATM   16  C   UNL     1      44.665 -10.957   7.137  1.00  0.00     0.068 A 
HETATM   17  C   UNL     1      43.786  -9.930   7.509  1.00  0.00     0.090 A 
HETATM   18 CL   UNL     1      46.349 -10.885   7.525  1.00  0.00    -0.081 Cl
HETATM   19  C   UNL     1      42.430 -10.051   7.188  1.00  0.00     0.039 A 
HETATM   20  C   UNL     1      41.973 -11.158   6.465  1.00  0.00     0.011 A 
BRANCH  17  21
HETATM   21  O   UNL     1      44.306  -8.872   8.209  1.00  0.00    -0.346 OA
BRANCH  21  22
HETATM   22  C   UNL     1      43.778  -8.672   9.520  1.00  0.00     0.202 C 
BRANCH  22  23
HETATM   23  C   UNL     1      44.480  -9.628  10.436  1.00  0.00    -0.011 C 
HETATM   24  C   UNL     1      43.874 -10.565  11.178  1.00  0.00     0.009 C 
ENDBRANCH  22  23
ENDBRANCH  21  22
ENDBRANCH  17  21
ENDBRANCH  13  14
ENDBRANCH  11  13
ENDBRANCH   1  11
BRANCH   8  25
HETATM   25  C   UNL     1      43.951 -20.132   5.315  1.00  0.00     0.270 C 
HETATM   26  N   UNL     1      44.787 -21.194   5.104  1.00  0.00    -0.365 N 
HETATM   27  H   UNL     1      45.165 -21.336   4.175  1.00  0.00     0.159 HD
HETATM   28  H   UNL     1      45.018 -21.810   5.867  1.00  0.00     0.159 HD
HETATM   29  O   UNL     1      43.470 -19.910   6.422  1.00  0.00    -0.266 OA
ENDBRANCH   8  25
TORSDOF 7
ENDMDL
MODEL 6
REMARK VINA RESULT:      -7.3      9.675     13.880
REMARK  7 active torsions:
REMARK  status: ('A' for Active; 'I' for Inactive)
REMARK    1  A    between atoms: C_2  and  C_3 
REMARK    2  A    between atoms: C_3  and  O_4 
REMARK    3  A    between atoms: O_4  and  C_5 
REMARK    4  A    between atoms: C_9  and  C_10 
REMARK    5  A    between atoms: C_10  and  N_11 
REMARK    6  A    between atoms: N_11  and  C_12 
REMARK    7  A    between atoms: C_19  and  C_20 
REMARK       I    between atoms: C_20  and  N_21 
ROOT
HETATM    1  C   UNL     1      41.660  -7.205  15.373  1.00  0.00     0.009 A 
HETATM    2  C   UNL     1      40.925  -8.188  14.683  1.00  0.00     0.039 A 
HETATM    3  C   UNL     1      41.468  -8.824  13.546  1.00  0.00     0.030 A 
HETATM    4  C   UNL     1      42.723  -8.435  13.102  1.00  0.00     0.063 A 
HETATM    5  N   UNL     1      42.975  -9.203  12.001  1.00  0.00    -0.277 N 
HETATM    6  H   UNL     1      43.802  -9.185  11.415  1.00  0.00     0.189 HD
HETATM    7  N   UNL     1      41.992 -10.066  11.689  1.00  0.00    -0.168 NA
HETATM    8  C   UNL     1      41.053  -9.839  12.636  1.00  0.00     0.156 A 
HETATM    9  C   UNL     1      43.473  -7.437  13.728  1.00  0.00     0.034 A 
HETATM   10  C   UNL     1      42.907  -6.827  14.859  1.00  0.00     0.026 A 
ENDROOT
BRANCH   1  11
HETATM   11  N   UNL     1      41.044  -6.557  16.453  1.00  0.00    -0.289 NA
HETATM   12  H   UNL     1      40.864  -5.575  16.249  1.00  0.00     0.128 HD
BRANCH  11  13
HETATM   13  C   UNL     1      39.922  -7.196  17.122  1.00  0.00     0.131 C 
BRANCH  13  14
HETATM   14  C   UNL     1      40.375  -7.754  18.452  1.00  0.00    -0.043 A 
HETATM   15  C   UNL     1      41.701  -7.608  18.880  1.00  0.00     0.035 A 
HETATM   16  C   UNL     1      42.100  -8.100  20.128  1.00  0.00     0.068 A 
HETATM   17  C   UNL     1      41.181  -8.737  20.974  1.00  0.00     0.090 A 
HETATM   18 CL   UNL     1      43.747  -7.865  20.601  1.00  0.00    -0.081 Cl
HETATM   19  C   UNL     1      39.867  -8.919  20.530  1.00  0.00     0.039 A 
HETATM   20  C   UNL     1      39.469  -8.427  19.283  1.00  0.00     0.011 A 
BRANCH  17  21
HETATM   21  O   UNL     1      41.639  -9.186  22.185  1.00  0.00    -0.346 OA
BRANCH  21  22
HETATM   22  C   UNL     1      41.583 -10.597  22.389  1.00  0.00     0.202 C 
BRANCH  22  23
HETATM   23  C   UNL     1      42.900 -11.165  21.952  1.00  0.00    -0.011 C 
HETATM   24  C   UNL     1      43.104 -11.843  20.815  1.00  0.00     0.009 C 
ENDBRANCH  22  23
ENDBRANCH  21  22
ENDBRANCH  17  21
ENDBRANCH  13  14
ENDBRANCH  11  13
ENDBRANCH   1  11
BRANCH   8  25
HETATM   25  C   UNL     1      39.790 -10.591  12.655  1.00  0.00     0.270 C 
HETATM   26  N   UNL     1      39.005 -10.392  11.552  1.00  0.00    -0.365 N 
HETATM   27  H   UNL     1      39.337  -9.766  10.828  1.00  0.00     0.159 HD
HETATM   28  H   UNL     1      38.121 -10.869  11.473  1.00  0.00     0.159 HD
HETATM   29  O   UNL     1      39.440 -11.343  13.558  1.00  0.00    -0.266 OA
ENDBRANCH   8  25
TORSDOF 7
ENDMDL
MODEL 7
REMARK VINA RESULT:      -7.2      5.843      8.794
REMARK  7 active torsions:
REMARK  status: ('A' for Active; 'I' for Inactive)
REMARK    1  A    between atoms: C_2  and  C_3 
REMARK    2  A    between atoms: C_3  and  O_4 
REMARK    3  A    between atoms: O_4  and  C_5 
REMARK    4  A    between atoms: C_9  and  C_10 
REMARK    5  A    between atoms: C_10  and  N_11 
REMARK    6  A    between atoms: N_11  and  C_12 
REMARK    7  A    between atoms: C_19  and  C_20 
REMARK       I    between atoms: C_20  and  N_21 
ROOT
HETATM    1  C   UNL     1      42.494 -15.960   2.484  1.00  0.00     0.009 A 
HETATM    2  C   UNL     1      42.272 -15.873   3.872  1.00  0.00     0.039 A 
HETATM    3  C   UNL     1      42.795 -16.851   4.745  1.00  0.00     0.030 A 
HETATM    4  C   UNL     1      43.500 -17.916   4.205  1.00  0.00     0.063 A 
HETATM    5  N   UNL     1      43.866 -18.688   5.271  1.00  0.00    -0.277 N 
HETATM    6  H   UNL     1      44.392 -19.555   5.250  1.00  0.00     0.189 HD
HETATM    7  N   UNL     1      43.465 -18.216   6.464  1.00  0.00    -0.168 NA
HETATM    8  C   UNL     1      42.798 -17.081   6.152  1.00  0.00     0.156 A 
HETATM    9  C   UNL     1      43.712 -18.068   2.833  1.00  0.00     0.034 A 
HETATM   10  C   UNL     1      43.183 -17.077   1.992  1.00  0.00     0.026 A 
ENDROOT
BRANCH   1  11
HETATM   11  N   UNL     1      41.893 -15.001   1.658  1.00  0.00    -0.289 NA
HETATM   12  H   UNL     1      42.525 -14.688   0.923  1.00  0.00     0.128 HD
BRANCH  11  13
HETATM   13  C   UNL     1      40.544 -15.230   1.163  1.00  0.00     0.131 C 
BRANCH  13  14
HETATM   14  C   UNL     1      40.282 -14.335  -0.028  1.00  0.00    -0.043 A 
HETATM   15  C   UNL     1      39.508 -14.781  -1.107  1.00  0.00     0.035 A 
HETATM   16  C   UNL     1      39.245 -13.932  -2.187  1.00  0.00     0.068 A 
HETATM   17  C   UNL     1      39.742 -12.620  -2.205  1.00  0.00     0.090 A 
HETATM   18 CL   UNL     1      38.264 -14.540  -3.475  1.00  0.00    -0.081 Cl
HETATM   19  C   UNL     1      40.548 -12.188  -1.147  1.00  0.00     0.039 A 
HETATM   20  C   UNL     1      40.811 -13.038  -0.067  1.00  0.00     0.011 A 
BRANCH  17  21
HETATM   21  O   UNL     1      39.438 -11.841  -3.291  1.00  0.00    -0.346 OA
BRANCH  21  22
HETATM   22  C   UNL     1      38.576 -10.732  -3.040  1.00  0.00     0.202 C 
BRANCH  22  23
HETATM   23  C   UNL     1      39.391  -9.484  -3.211  1.00  0.00    -0.011 C 
HETATM   24  C   UNL     1      40.403  -9.343  -4.077  1.00  0.00     0.009 C 
ENDBRANCH  22  23
ENDBRANCH  21  22
ENDBRANCH  17  21
ENDBRANCH  13  14
ENDBRANCH  11  13
ENDBRANCH   1  11
BRANCH   8  25
HETATM   25  C   UNL     1      42.186 -16.244   7.193  1.00  0.00     0.270 C 
HETATM   26  N   UNL     1      43.042 -15.894   8.202  1.00  0.00    -0.365 N 
HETATM   27  H   UNL     1      43.999 -16.221   8.161  1.00  0.00     0.159 HD
HETATM   28  H   UNL     1      42.714 -15.316   8.960  1.00  0.00     0.159 HD
HETATM   29  O   UNL     1      41.018 -15.869   7.190  1.00  0.00    -0.266 OA
ENDBRANCH   8  25
TORSDOF 7
ENDMDL
MODEL 8
REMARK VINA RESULT:      -7.2      8.987     12.823
REMARK  7 active torsions:
REMARK  status: ('A' for Active; 'I' for Inactive)
REMARK    1  A    between atoms: C_2  and  C_3 
REMARK    2  A    between atoms: C_3  and  O_4 
REMARK    3  A    between atoms: O_4  and  C_5 
REMARK    4  A    between atoms: C_9  and  C_10 
REMARK    5  A    between atoms: C_10  and  N_11 
REMARK    6  A    between atoms: N_11  and  C_12 
REMARK    7  A    between atoms: C_19  and  C_20 
REMARK       I    between atoms: C_20  and  N_21 
ROOT
HETATM    1  C   UNL     1      41.940  -6.700  18.212  1.00  0.00     0.009 A 
HETATM    2  C   UNL     1      42.246  -7.906  18.871  1.00  0.00     0.039 A 
HETATM    3  C   UNL     1      41.727  -8.174  20.156  1.00  0.00     0.030 A 
HETATM    4  C   UNL     1      40.940  -7.210  20.770  1.00  0.00     0.063 A 
HETATM    5  N   UNL     1      40.599  -7.738  21.982  1.00  0.00    -0.277 N 
HETATM    6  H   UNL     1      40.031  -7.306  22.702  1.00  0.00     0.189 HD
HETATM    7  N   UNL     1      41.092  -8.967  22.214  1.00  0.00    -0.168 NA
HETATM    8  C   UNL     1      41.795  -9.247  21.092  1.00  0.00     0.156 A 
HETATM    9  C   UNL     1      40.642  -5.984  20.174  1.00  0.00     0.034 A 
HETATM   10  C   UNL     1      41.169  -5.749  18.895  1.00  0.00     0.026 A 
ENDROOT
BRANCH   1  11
HETATM   11  N   UNL     1      42.538  -6.456  16.969  1.00  0.00    -0.289 NA
HETATM   12  H   UNL     1      43.261  -7.143  16.758  1.00  0.00     0.128 HD
BRANCH  11  13
HETATM   13  C   UNL     1      41.698  -6.170  15.816  1.00  0.00     0.131 C 
BRANCH  13  14
HETATM   14  C   UNL     1      41.911  -7.229  14.758  1.00  0.00    -0.043 A 
HETATM   15  C   UNL     1      40.964  -8.240  14.551  1.00  0.00     0.035 A 
HETATM   16  C   UNL     1      41.156  -9.194  13.545  1.00  0.00     0.068 A 
HETATM   17  C   UNL     1      42.292  -9.149  12.724  1.00  0.00     0.090 A 
HETATM   18 CL   UNL     1      39.937 -10.401  13.331  1.00  0.00    -0.081 Cl
HETATM   19  C   UNL     1      43.256  -8.164  12.956  1.00  0.00     0.039 A 
HETATM   20  C   UNL     1      43.063  -7.210  13.961  1.00  0.00     0.011 A 
BRANCH  17  21
HETATM   21  O   UNL     1      42.411 -10.110  11.753  1.00  0.00    -0.346 OA
BRANCH  21  22
HETATM   22  C   UNL     1      43.683 -10.751  11.664  1.00  0.00     0.202 C 
BRANCH  22  23
HETATM   23  C   UNL     1      44.253 -10.429  10.315  1.00  0.00    -0.011 C 
HETATM   24  C   UNL     1      45.354  -9.696  10.102  1.00  0.00     0.009 C 
ENDBRANCH  22  23
ENDBRANCH  21  22
ENDBRANCH  17  21
ENDBRANCH  13  14
ENDBRANCH  11  13
ENDBRANCH   1  11
BRANCH   8  25
HETATM   25  C   UNL     1      42.507 -10.523  20.935  1.00  0.00     0.270 C 
HETATM   26  N   UNL     1      41.806 -11.472  20.240  1.00  0.00    -0.365 N 
HETATM   27  H   UNL     1      40.884 -11.236  19.895  1.00  0.00     0.159 HD
HETATM   28  H   UNL     1      42.216 -12.378  20.078  1.00  0.00     0.159 HD
HETATM   29  O   UNL     1      43.631 -10.752  21.369  1.00  0.00    -0.266 OA
ENDBRANCH   8  25
TORSDOF 7
ENDMDL
MODEL 9
REMARK VINA RESULT:      -7.1      6.329     10.019
REMARK  7 active torsions:
REMARK  status: ('A' for Active; 'I' for Inactive)
REMARK    1  A    between atoms: C_2  and  C_3 
REMARK    2  A    between atoms: C_3  and  O_4 
REMARK    3  A    between atoms: O_4  and  C_5 
REMARK    4  A    between atoms: C_9  and  C_10 
REMARK    5  A    between atoms: C_10  and  N_11 
REMARK    6  A    between atoms: N_11  and  C_12 
REMARK    7  A    between atoms: C_19  and  C_20 
REMARK       I    between atoms: C_20  and  N_21 
ROOT
HETATM    1  C   UNL     1      42.408 -15.972   2.197  1.00  0.00     0.009 A 
HETATM    2  C   UNL     1      42.762 -17.335   2.197  1.00  0.00     0.039 A 
HETATM    3  C   UNL     1      43.389 -17.913   3.321  1.00  0.00     0.030 A 
HETATM    4  C   UNL     1      43.683 -17.104   4.408  1.00  0.00     0.063 A 
HETATM    5  N   UNL     1      44.284 -17.924   5.321  1.00  0.00    -0.277 N 
HETATM    6  H   UNL     1      44.638 -17.669   6.236  1.00  0.00     0.189 HD
HETATM    7  N   UNL     1      44.406 -19.203   4.924  1.00  0.00    -0.168 NA
HETATM    8  C   UNL     1      43.857 -19.209   3.687  1.00  0.00     0.156 A 
HETATM    9  C   UNL     1      43.389 -15.739   4.439  1.00  0.00     0.034 A 
HETATM   10  C   UNL     1      42.762 -15.195   3.308  1.00  0.00     0.026 A 
ENDROOT
BRANCH   1  11
HETATM   11  N   UNL     1      41.851 -15.435   1.028  1.00  0.00    -0.289 NA
HETATM   12  H   UNL     1      42.212 -15.894   0.193  1.00  0.00     0.128 HD
BRANCH  11  13
HETATM   13  C   UNL     1      40.415 -15.216   0.958  1.00  0.00     0.131 C 
BRANCH  13  14
HETATM   14  C   UNL     1      40.099 -14.292  -0.197  1.00  0.00    -0.043 A 
HETATM   15  C   UNL     1      39.374 -14.747  -1.305  1.00  0.00     0.035 A 
HETATM   16  C   UNL     1      39.058 -13.874  -2.352  1.00  0.00     0.068 A 
HETATM   17  C   UNL     1      39.453 -12.529  -2.306  1.00  0.00     0.090 A 
HETATM   18 CL   UNL     1      38.142 -14.498  -3.679  1.00  0.00    -0.081 Cl
HETATM   19  C   UNL     1      40.211 -12.084  -1.218  1.00  0.00     0.039 A 
HETATM   20  C   UNL     1      40.526 -12.958  -0.172  1.00  0.00     0.011 A 
BRANCH  17  21
HETATM   21  O   UNL     1      39.102 -11.728  -3.361  1.00  0.00    -0.346 OA
BRANCH  21  22
HETATM   22  C   UNL     1      38.566 -10.449  -3.022  1.00  0.00     0.202 C 
BRANCH  22  23
HETATM   23  C   UNL     1      39.125  -9.457  -3.998  1.00  0.00    -0.011 C 
HETATM   24  C   UNL     1      39.513  -8.213  -3.688  1.00  0.00     0.009 C 
ENDBRANCH  22  23
ENDBRANCH  21  22
ENDBRANCH  17  21
ENDBRANCH  13  14
ENDBRANCH  11  13
ENDBRANCH   1  11
BRANCH   8  25
HETATM   25  C   UNL     1      43.789 -20.440   2.888  1.00  0.00     0.270 C 
HETATM   26  N   UNL     1      44.110 -21.575   3.583  1.00  0.00    -0.365 N 
HETATM   27  H   UNL     1      44.359 -21.490   4.560  1.00  0.00     0.159 HD
HETATM   28  H   UNL     1      44.086 -22.470   3.120  1.00  0.00     0.159 HD
HETATM   29  O   UNL     1      43.473 -20.486   1.704  1.00  0.00    -0.266 OA
ENDBRANCH   8  25
TORSDOF 7
ENDMDL
MODEL 10
REMARK VINA RESULT:      -7.0      3.681      8.535
REMARK  7 active torsions:
REMARK  status: ('A' for Active; 'I' for Inactive)
REMARK    1  A    between atoms: C_2  and  C_3 
REMARK    2  A    between atoms: C_3  and  O_4 
REMARK    3  A    between atoms: O_4  and  C_5 
REMARK    4  A    between atoms: C_9  and  C_10 
REMARK    5  A    between atoms: C_10  and  N_11 
REMARK    6  A    between atoms: N_11  and  C_12 
REMARK    7  A    between atoms: C_19  and  C_20 
REMARK       I    between atoms: C_20  and  N_21 
ROOT
HETATM    1  C   UNL     1      42.960 -14.184   3.113  1.00  0.00     0.009 A 
HETATM    2  C   UNL     1      43.137 -15.084   4.181  1.00  0.00     0.039 A 
HETATM    3  C   UNL     1      43.408 -16.446   3.934  1.00  0.00     0.030 A 
HETATM    4  C   UNL     1      43.461 -16.886   2.619  1.00  0.00     0.063 A 
HETATM    5  N   UNL     1      43.726 -18.224   2.693  1.00  0.00    -0.277 N 
HETATM    6  H   UNL     1      43.829 -18.873   1.921  1.00  0.00     0.189 HD
HETATM    7  N   UNL     1      43.855 -18.697   3.945  1.00  0.00    -0.168 NA
HETATM    8  C   UNL     1      43.659 -17.607   4.722  1.00  0.00     0.156 A 
HETATM    9  C   UNL     1      43.252 -16.040   1.528  1.00  0.00     0.034 A 
HETATM   10  C   UNL     1      42.989 -14.691   1.807  1.00  0.00     0.026 A 
ENDROOT
BRANCH   1  11
HETATM   11  N   UNL     1      42.623 -12.857   3.417  1.00  0.00    -0.289 NA
HETATM   12  H   UNL     1      41.943 -12.805   4.174  1.00  0.00     0.128 HD
BRANCH  11  13
HETATM   13  C   UNL     1      43.680 -11.867   3.558  1.00  0.00     0.131 C 
BRANCH  13  14
HETATM   14  C   UNL     1      43.672 -11.313   4.964  1.00  0.00    -0.043 A 
HETATM   15  C   UNL     1      42.549 -10.644   5.468  1.00  0.00     0.035 A 
HETATM   16  C   UNL     1      42.541 -10.166   6.783  1.00  0.00     0.068 A 
HETATM   17  C   UNL     1      43.650 -10.355   7.621  1.00  0.00     0.090 A 
HETATM   18 CL   UNL     1      41.114  -9.368   7.346  1.00  0.00    -0.081 Cl
HETATM   19  C   UNL     1      44.786 -10.989   7.106  1.00  0.00     0.039 A 
HETATM   20  C   UNL     1      44.792 -11.466   5.791  1.00  0.00     0.011 A 
BRANCH  17  21
HETATM   21  O   UNL     1      43.569  -9.869   8.899  1.00  0.00    -0.346 OA
BRANCH  21  22
HETATM   22  C   UNL     1      44.675 -10.167   9.751  1.00  0.00     0.202 C 
BRANCH  22  23
HETATM   23  C   UNL     1      44.118 -10.630  11.063  1.00  0.00    -0.011 C 
HETATM   24  C   UNL     1      43.143 -10.011  11.743  1.00  0.00     0.009 C 
ENDBRANCH  22  23
ENDBRANCH  21  22
ENDBRANCH  17  21
ENDBRANCH  13  14
ENDBRANCH  11  13
ENDBRANCH   1  11
BRANCH   8  25
HETATM   25  C   UNL     1      43.716 -17.694   6.188  1.00  0.00     0.270 C 
HETATM   26  N   UNL     1      44.354 -16.640   6.785  1.00  0.00    -0.365 N 
HETATM   27  H   UNL     1      44.724 -15.903   6.198  1.00  0.00     0.159 HD
HETATM   28  H   UNL     1      44.438 -16.609   7.788  1.00  0.00     0.159 HD
HETATM   29  O   UNL     1      43.242 -18.611   6.852  1.00  0.00    -0.266 OA
ENDBRANCH   8  25
TORSDOF 7
ENDMDL
