MODEL 1
REMARK VINA RESULT:      -7.3      0.000      0.000
REMARK  7 active torsions:
REMARK  status: ('A' for Active; 'I' for Inactive)
REMARK    1  A    between atoms: C_2  and  N_3 
REMARK    2  A    between atoms: N_3  and  C_5 
REMARK    3  A    between atoms: N_3  and  C_17 
REMARK    4  A    between atoms: C_5  and  C_6 
REMARK       I    between atoms: C_6  and  N_7 
REMARK    5  A    between atoms: N_7  and  C_8 
REMARK    6  A    between atoms: C_17  and  C_18 
REMARK    7  A    between atoms: C_19  and  C_20 
ROOT
HETATM    1  N   UNL     1      41.576 -13.243   3.997  1.00  0.00    -0.059 N 
HETATM    2  H   UNL     1      42.088 -13.783   3.291  1.00  0.00     0.280 HD
ENDROOT
BRANCH   1   3
HETATM    3  C   UNL     1      42.207 -11.869   4.060  1.00  0.00     0.231 C 
HETATM    4  C   UNL     1      43.572 -11.870   3.396  1.00  0.00     0.034 C 
ENDBRANCH   1   3
BRANCH   1   5
HETATM    5  C   UNL     1      41.656 -14.036   5.308  1.00  0.00     0.337 C 
BRANCH   5   6
HETATM    6  C   UNL     1      41.780 -15.555   5.131  1.00  0.00     0.248 C 
HETATM    7  N   UNL     1      43.043 -15.977   4.755  1.00  0.00    -0.325 N 
HETATM    8  H   UNL     1      43.822 -15.376   4.992  1.00  0.00     0.169 HD
HETATM    9  O   UNL     1      40.814 -16.275   5.366  1.00  0.00    -0.271 OA
BRANCH   7  10
HETATM   10  C   UNL     1      43.401 -17.322   4.470  1.00  0.00     0.046 A 
HETATM   11  C   UNL     1      43.645 -18.286   5.473  1.00  0.00    -0.035 A 
HETATM   12  C   UNL     1      43.473 -18.052   6.951  1.00  0.00     0.050 C 
HETATM   13  C   UNL     1      44.026 -19.587   5.094  1.00  0.00     0.009 A 
HETATM   14  C   UNL     1      44.106 -19.954   3.756  1.00  0.00     0.001 A 
HETATM   15  C   UNL     1      43.803 -19.025   2.769  1.00  0.00     0.009 A 
HETATM   16  C   UNL     1      43.447 -17.709   3.106  1.00  0.00    -0.035 A 
HETATM   17  C   UNL     1      43.164 -16.753   1.976  1.00  0.00     0.050 C 
ENDBRANCH   7  10
ENDBRANCH   5   6
ENDBRANCH   1   5
BRANCH   1  18
HETATM   18  C   UNL     1      40.143 -13.170   3.472  1.00  0.00     0.277 C 
BRANCH  18  19
HETATM   19  C   UNL     1      39.975 -13.933   2.203  1.00  0.00     0.012 A 
HETATM   20  C   UNL     1      39.855 -13.444   0.858  1.00  0.00     0.071 A 
HETATM   21  N   UNL     1      39.752 -14.466   0.000  1.00  0.00    -0.178 NA
HETATM   22  N   UNL     1      39.723 -15.567   0.750  1.00  0.00    -0.288 N 
HETATM   23  H   UNL     1      39.601 -16.463   0.283  1.00  0.00     0.188 HD
HETATM   24  C   UNL     1      39.870 -15.308   2.079  1.00  0.00     0.120 A 
BRANCH  20  25
HETATM   25  C   UNL     1      39.829 -12.010   0.315  1.00  0.00    -0.004 C 
HETATM   26  C   UNL     1      41.156 -11.284   0.609  1.00  0.00     0.021 C 
HETATM   27  C   UNL     1      39.633 -11.981  -1.223  1.00  0.00     0.021 C 
HETATM   28  C   UNL     1      38.656 -11.222   0.931  1.00  0.00     0.021 C 
ENDBRANCH  20  25
ENDBRANCH  18  19
ENDBRANCH   1  18
TORSDOF 7
ENDMDL
MODEL 2
REMARK VINA RESULT:      -7.2      0.161      1.966
REMARK  7 active torsions:
REMARK  status: ('A' for Active; 'I' for Inactive)
REMARK    1  A    between atoms: C_2  and  N_3 
REMARK    2  A    between atoms: N_3  and  C_5 
REMARK    3  A    between atoms: N_3  and  C_17 
REMARK    4  A    between atoms: C_5  and  C_6 
REMARK       I    between atoms: C_6  and  N_7 
REMARK    5  A    between atoms: N_7  and  C_8 
REMARK    6  A    between atoms: C_17  and  C_18 
REMARK    7  A    between atoms: C_19  and  C_20 
ROOT
HETATM    1  N   UNL     1      41.525 -13.235   4.062  1.00  0.00    -0.059 N 
HETATM    2  H   UNL     1      42.063 -13.759   3.364  1.00  0.00     0.280 HD
ENDROOT
BRANCH   1   3
HETATM    3  C   UNL     1      42.198 -11.891   4.236  1.00  0.00     0.231 C 
HETATM    4  C   UNL     1      43.538 -11.862   3.524  1.00  0.00     0.034 C 
ENDBRANCH   1   3
BRANCH   1   5
HETATM    5  C   UNL     1      41.489 -14.093   5.333  1.00  0.00     0.337 C 
BRANCH   5   6
HETATM    6  C   UNL     1      41.637 -15.601   5.091  1.00  0.00     0.248 C 
HETATM    7  N   UNL     1      42.915 -15.993   4.735  1.00  0.00    -0.325 N 
HETATM    8  H   UNL     1      43.679 -15.395   5.022  1.00  0.00     0.169 HD
HETATM    9  O   UNL     1      40.673 -16.342   5.265  1.00  0.00    -0.271 OA
BRANCH   7  10
HETATM   10  C   UNL     1      43.298 -17.320   4.400  1.00  0.00     0.046 A 
HETATM   11  C   UNL     1      43.421 -17.775   3.069  1.00  0.00    -0.035 A 
HETATM   12  C   UNL     1      43.259 -16.912   1.846  1.00  0.00     0.050 C 
HETATM   13  C   UNL     1      43.775 -19.117   2.835  1.00  0.00     0.009 A 
HETATM   14  C   UNL     1      44.062 -19.981   3.885  1.00  0.00     0.001 A 
HETATM   15  C   UNL     1      44.005 -19.516   5.192  1.00  0.00     0.009 A 
HETATM   16  C   UNL     1      43.628 -18.192   5.468  1.00  0.00    -0.035 A 
HETATM   17  C   UNL     1      43.559 -17.774   6.914  1.00  0.00     0.050 C 
ENDBRANCH   7  10
ENDBRANCH   5   6
ENDBRANCH   1   5
BRANCH   1  18
HETATM   18  C   UNL     1      40.132 -13.081   3.451  1.00  0.00     0.277 C 
BRANCH  18  19
HETATM   19  C   UNL     1      40.000 -13.835   2.172  1.00  0.00     0.012 A 
HETATM   20  C   UNL     1      39.925 -13.336   0.827  1.00  0.00     0.071 A 
HETATM   21  N   UNL     1      39.842 -14.352  -0.040  1.00  0.00    -0.178 NA
HETATM   22  N   UNL     1      39.783 -15.458   0.701  1.00  0.00    -0.288 N 
HETATM   23  H   UNL     1      39.670 -16.349   0.224  1.00  0.00     0.188 HD
HETATM   24  C   UNL     1      39.891 -15.209   2.036  1.00  0.00     0.120 A 
BRANCH  20  25
HETATM   25  C   UNL     1      39.925 -11.899   0.294  1.00  0.00    -0.004 C 
HETATM   26  C   UNL     1      38.711 -11.112   0.825  1.00  0.00     0.021 C 
HETATM   27  C   UNL     1      41.192 -11.121   0.736  1.00  0.00     0.021 C 
HETATM   28  C   UNL     1      39.914 -11.896  -1.248  1.00  0.00     0.021 C 
ENDBRANCH  20  25
ENDBRANCH  18  19
ENDBRANCH   1  18
TORSDOF 7
ENDMDL
MODEL 3
REMARK VINA RESULT:      -7.2      1.908      3.512
REMARK  7 active torsions:
REMARK  status: ('A' for Active; 'I' for Inactive)
REMARK    1  A    between atoms: C_2  and  N_3 
REMARK    2  A    between atoms: N_3  and  C_5 
REMARK    3  A    between atoms: N_3  and  C_17 
REMARK    4  A    between atoms: C_5  and  C_6 
REMARK       I    between atoms: C_6  and  N_7 
REMARK    5  A    between atoms: N_7  and  C_8 
REMARK    6  A    between atoms: C_17  and  C_18 
REMARK    7  A    between atoms: C_19  and  C_20 
ROOT
HETATM    1  N   UNL     1      41.938 -14.377   1.922  1.00  0.00    -0.059 N 
HETATM    2  H   UNL     1      41.173 -14.674   2.537  1.00  0.00     0.280 HD
ENDROOT
BRANCH   1   3
HETATM    3  C   UNL     1      41.314 -13.785   0.678  1.00  0.00     0.231 C 
HETATM    4  C   UNL     1      40.182 -14.661   0.172  1.00  0.00     0.034 C 
ENDBRANCH   1   3
BRANCH   1   5
HETATM    5  C   UNL     1      42.808 -15.614   1.666  1.00  0.00     0.337 C 
BRANCH   5   6
HETATM    6  C   UNL     1      42.609 -16.757   2.670  1.00  0.00     0.248 C 
HETATM    7  N   UNL     1      43.740 -17.524   2.883  1.00  0.00    -0.325 N 
HETATM    8  H   UNL     1      44.635 -17.090   2.701  1.00  0.00     0.169 HD
HETATM    9  O   UNL     1      41.525 -16.889   3.234  1.00  0.00    -0.271 OA
BRANCH   7  10
HETATM   10  C   UNL     1      43.800 -18.673   3.718  1.00  0.00     0.046 A 
HETATM   11  C   UNL     1      43.872 -18.602   5.126  1.00  0.00    -0.035 A 
HETATM   12  C   UNL     1      43.803 -17.329   5.928  1.00  0.00     0.050 C 
HETATM   13  C   UNL     1      43.961 -19.795   5.868  1.00  0.00     0.009 A 
HETATM   14  C   UNL     1      43.917 -21.037   5.245  1.00  0.00     0.001 A 
HETATM   15  C   UNL     1      43.780 -21.108   3.865  1.00  0.00     0.009 A 
HETATM   16  C   UNL     1      43.718 -19.941   3.088  1.00  0.00    -0.035 A 
HETATM   17  C   UNL     1      43.602 -20.104   1.594  1.00  0.00     0.050 C 
ENDBRANCH   7  10
ENDBRANCH   5   6
ENDBRANCH   1   5
BRANCH   1  18
HETATM   18  C   UNL     1      42.695 -13.316   2.721  1.00  0.00     0.277 C 
BRANCH  18  19
HETATM   19  C   UNL     1      42.200 -13.217   4.123  1.00  0.00     0.012 A 
HETATM   20  C   UNL     1      41.055 -12.518   4.635  1.00  0.00     0.071 A 
HETATM   21  N   UNL     1      40.947 -12.710   5.955  1.00  0.00    -0.178 NA
HETATM   22  N   UNL     1      42.012 -13.429   6.306  1.00  0.00    -0.288 N 
HETATM   23  H   UNL     1      42.141 -13.647   7.291  1.00  0.00     0.188 HD
HETATM   24  C   UNL     1      42.791 -13.777   5.244  1.00  0.00     0.120 A 
BRANCH  20  25
HETATM   25  C   UNL     1      40.016 -11.644   3.922  1.00  0.00    -0.004 C 
HETATM   26  C   UNL     1      40.698 -10.646   2.966  1.00  0.00     0.021 C 
HETATM   27  C   UNL     1      39.043 -12.493   3.063  1.00  0.00     0.021 C 
HETATM   28  C   UNL     1      39.158 -10.880   4.949  1.00  0.00     0.021 C 
ENDBRANCH  20  25
ENDBRANCH  18  19
ENDBRANCH   1  18
TORSDOF 7
ENDMDL
MODEL 4
REMARK VINA RESULT:      -7.1      2.371      5.204
REMARK  7 active torsions:
REMARK  status: ('A' for Active; 'I' for Inactive)
REMARK    1  A    between atoms: C_2  and  N_3 
REMARK    2  A    between atoms: N_3  and  C_5 
REMARK    3  A    between atoms: N_3  and  C_17 
REMARK    4  A    between atoms: C_5  and  C_6 
REMARK       I    between atoms: C_6  and  N_7 
REMARK    5  A    between atoms: N_7  and  C_8 
REMARK    6  A    between atoms: C_17  and  C_18 
REMARK    7  A    between atoms: C_19  and  C_20 
ROOT
HETATM    1  N   UNL     1      40.266 -12.999   4.949  1.00  0.00    -0.059 N 
HETATM    2  H   UNL     1      39.511 -12.418   5.328  1.00  0.00     0.280 HD
ENDROOT
BRANCH   1   3
HETATM    3  C   UNL     1      39.790 -13.550   3.622  1.00  0.00     0.231 C 
HETATM    4  C   UNL     1      40.367 -12.751   2.467  1.00  0.00     0.034 C 
ENDBRANCH   1   3
BRANCH   1   5
HETATM    5  C   UNL     1      40.577 -14.070   6.003  1.00  0.00     0.337 C 
BRANCH   5   6
HETATM    6  C   UNL     1      40.981 -15.434   5.430  1.00  0.00     0.248 C 
HETATM    7  N   UNL     1      42.239 -15.454   4.855  1.00  0.00    -0.325 N 
HETATM    8  H   UNL     1      42.905 -14.762   5.174  1.00  0.00     0.169 HD
HETATM    9  O   UNL     1      40.222 -16.393   5.550  1.00  0.00    -0.271 OA
BRANCH   7  10
HETATM   10  C   UNL     1      42.820 -16.576   4.203  1.00  0.00     0.046 A 
HETATM   11  C   UNL     1      42.469 -16.976   2.895  1.00  0.00    -0.035 A 
HETATM   12  C   UNL     1      41.518 -16.232   1.994  1.00  0.00     0.050 C 
HETATM   13  C   UNL     1      43.075 -18.120   2.344  1.00  0.00     0.009 A 
HETATM   14  C   UNL     1      44.053 -18.823   3.037  1.00  0.00     0.001 A 
HETATM   15  C   UNL     1      44.446 -18.392   4.297  1.00  0.00     0.009 A 
HETATM   16  C   UNL     1      43.845 -17.272   4.893  1.00  0.00    -0.035 A 
HETATM   17  C   UNL     1      44.305 -16.887   6.276  1.00  0.00     0.050 C 
ENDBRANCH   7  10
ENDBRANCH   5   6
ENDBRANCH   1   5
BRANCH   1  18
HETATM   18  C   UNL     1      41.442 -12.041   4.760  1.00  0.00     0.277 C 
BRANCH  18  19
HETATM   19  C   UNL     1      41.669 -11.193   5.964  1.00  0.00     0.012 A 
HETATM   20  C   UNL     1      42.862 -11.025   6.746  1.00  0.00     0.071 A 
HETATM   21  N   UNL     1      42.651 -10.144   7.731  1.00  0.00    -0.178 NA
HETATM   22  N   UNL     1      41.363  -9.813   7.652  1.00  0.00    -0.288 N 
HETATM   23  H   UNL     1      40.987  -9.178   8.351  1.00  0.00     0.188 HD
HETATM   24  C   UNL     1      40.728 -10.399   6.599  1.00  0.00     0.120 A 
BRANCH  20  25
HETATM   25  C   UNL     1      44.244 -11.676   6.611  1.00  0.00    -0.004 C 
HETATM   26  C   UNL     1      44.867 -11.371   5.235  1.00  0.00     0.021 C 
HETATM   27  C   UNL     1      45.236 -11.145   7.679  1.00  0.00     0.021 C 
HETATM   28  C   UNL     1      44.143 -13.201   6.812  1.00  0.00     0.021 C 
ENDBRANCH  20  25
ENDBRANCH  18  19
ENDBRANCH   1  18
TORSDOF 7
ENDMDL
MODEL 5
REMARK VINA RESULT:      -7.1      1.753      3.821
REMARK  7 active torsions:
REMARK  status: ('A' for Active; 'I' for Inactive)
REMARK    1  A    between atoms: C_2  and  N_3 
REMARK    2  A    between atoms: N_3  and  C_5 
REMARK    3  A    between atoms: N_3  and  C_17 
REMARK    4  A    between atoms: C_5  and  C_6 
REMARK       I    between atoms: C_6  and  N_7 
REMARK    5  A    between atoms: N_7  and  C_8 
REMARK    6  A    between atoms: C_17  and  C_18 
REMARK    7  A    between atoms: C_19  and  C_20 
ROOT
HETATM    1  N   UNL     1      41.599 -14.500   1.631  1.00  0.00    -0.059 N 
HETATM    2  H   UNL     1      40.943 -14.801   2.359  1.00  0.00     0.280 HD
ENDROOT
BRANCH   1   3
HETATM    3  C   UNL     1      40.787 -14.181   0.395  1.00  0.00     0.231 C 
HETATM    4  C   UNL     1      40.953 -12.725  -0.000  1.00  0.00     0.034 C 
ENDBRANCH   1   3
BRANCH   1   5
HETATM    5  C   UNL     1      42.611 -15.638   1.446  1.00  0.00     0.337 C 
BRANCH   5   6
HETATM    6  C   UNL     1      42.473 -16.788   2.453  1.00  0.00     0.248 C 
HETATM    7  N   UNL     1      43.627 -17.532   2.622  1.00  0.00    -0.325 N 
HETATM    8  H   UNL     1      44.505 -17.078   2.409  1.00  0.00     0.169 HD
HETATM    9  O   UNL     1      41.413 -16.944   3.056  1.00  0.00    -0.271 OA
BRANCH   7  10
HETATM   10  C   UNL     1      43.741 -18.682   3.449  1.00  0.00     0.046 A 
HETATM   11  C   UNL     1      43.679 -20.001   2.950  1.00  0.00    -0.035 A 
HETATM   12  C   UNL     1      43.576 -20.366   1.493  1.00  0.00     0.050 C 
HETATM   13  C   UNL     1      43.770 -21.079   3.851  1.00  0.00     0.009 A 
HETATM   14  C   UNL     1      43.982 -20.868   5.209  1.00  0.00     0.001 A 
HETATM   15  C   UNL     1      44.110 -19.572   5.691  1.00  0.00     0.009 A 
HETATM   16  C   UNL     1      43.995 -18.470   4.828  1.00  0.00    -0.035 A 
HETATM   17  C   UNL     1      44.114 -17.095   5.434  1.00  0.00     0.050 C 
ENDBRANCH   7  10
ENDBRANCH   5   6
ENDBRANCH   1   5
BRANCH   1  18
HETATM   18  C   UNL     1      42.265 -13.245   2.195  1.00  0.00     0.277 C 
BRANCH  18  19
HETATM   19  C   UNL     1      42.061 -13.120   3.666  1.00  0.00     0.012 A 
HETATM   20  C   UNL     1      41.062 -12.378   4.385  1.00  0.00     0.071 A 
HETATM   21  N   UNL     1      41.211 -12.558   5.703  1.00  0.00    -0.178 NA
HETATM   22  N   UNL     1      42.300 -13.312   5.846  1.00  0.00    -0.288 N 
HETATM   23  H   UNL     1      42.614 -13.528   6.789  1.00  0.00     0.188 HD
HETATM   24  C   UNL     1      42.842 -13.694   4.655  1.00  0.00     0.120 A 
BRANCH  20  25
HETATM   25  C   UNL     1      39.934 -11.473   3.878  1.00  0.00    -0.004 C 
HETATM   26  C   UNL     1      38.921 -12.271   3.035  1.00  0.00     0.021 C 
HETATM   27  C   UNL     1      39.139 -10.836   5.048  1.00  0.00     0.021 C 
HETATM   28  C   UNL     1      40.508 -10.311   3.043  1.00  0.00     0.021 C 
ENDBRANCH  20  25
ENDBRANCH  18  19
ENDBRANCH   1  18
TORSDOF 7
ENDMDL
MODEL 6
REMARK VINA RESULT:      -6.9      3.446      7.035
REMARK  7 active torsions:
REMARK  status: ('A' for Active; 'I' for Inactive)
REMARK    1  A    between atoms: C_2  and  N_3 
REMARK    2  A    between atoms: N_3  and  C_5 
REMARK    3  A    between atoms: N_3  and  C_17 
REMARK    4  A    between atoms: C_5  and  C_6 
REMARK       I    between atoms: C_6  and  N_7 
REMARK    5  A    between atoms: N_7  and  C_8 
REMARK    6  A    between atoms: C_17  and  C_18 
REMARK    7  A    between atoms: C_19  and  C_20 
ROOT
HETATM    1  N   UNL     1      41.347 -13.088   4.312  1.00  0.00    -0.059 N 
HETATM    2  H   UNL     1      42.367 -13.095   4.203  1.00  0.00     0.280 HD
ENDROOT
BRANCH   1   3
HETATM    3  C   UNL     1      40.753 -12.724   2.969  1.00  0.00     0.231 C 
HETATM    4  C   UNL     1      39.516 -13.555   2.682  1.00  0.00     0.034 C 
ENDBRANCH   1   3
BRANCH   1   5
HETATM    5  C   UNL     1      41.027 -12.094   5.435  1.00  0.00     0.337 C 
BRANCH   5   6
HETATM    6  C   UNL     1      42.153 -11.103   5.755  1.00  0.00     0.248 C 
HETATM    7  N   UNL     1      42.673 -11.232   7.030  1.00  0.00    -0.325 N 
HETATM    8  H   UNL     1      42.577 -12.132   7.481  1.00  0.00     0.169 HD
HETATM    9  O   UNL     1      42.540 -10.323   4.888  1.00  0.00    -0.271 OA
BRANCH   7  10
HETATM   10  C   UNL     1      43.679 -10.397   7.589  1.00  0.00     0.046 A 
HETATM   11  C   UNL     1      45.058 -10.585   7.351  1.00  0.00    -0.035 A 
HETATM   12  C   UNL     1      45.638 -11.616   6.420  1.00  0.00     0.050 C 
HETATM   13  C   UNL     1      45.983  -9.726   7.975  1.00  0.00     0.009 A 
HETATM   14  C   UNL     1      45.561  -8.664   8.765  1.00  0.00     0.001 A 
HETATM   15  C   UNL     1      44.203  -8.439   8.946  1.00  0.00     0.009 A 
HETATM   16  C   UNL     1      43.250  -9.290   8.365  1.00  0.00    -0.035 A 
HETATM   17  C   UNL     1      41.796  -8.997   8.635  1.00  0.00     0.050 C 
ENDBRANCH   7  10
ENDBRANCH   5   6
ENDBRANCH   1   5
BRANCH   1  18
HETATM   18  C   UNL     1      40.984 -14.519   4.708  1.00  0.00     0.277 C 
BRANCH  18  19
HETATM   19  C   UNL     1      42.191 -15.326   5.047  1.00  0.00     0.012 A 
HETATM   20  C   UNL     1      42.980 -16.179   4.203  1.00  0.00     0.071 A 
HETATM   21  N   UNL     1      44.002 -16.697   4.894  1.00  0.00    -0.178 NA
HETATM   22  N   UNL     1      43.846 -16.272   6.147  1.00  0.00    -0.288 N 
HETATM   23  H   UNL     1      44.505 -16.597   6.850  1.00  0.00     0.188 HD
HETATM   24  C   UNL     1      42.784 -15.431   6.294  1.00  0.00     0.120 A 
BRANCH  20  25
HETATM   25  C   UNL     1      42.816 -16.548   2.724  1.00  0.00    -0.004 C 
HETATM   26  C   UNL     1      43.510 -17.888   2.409  1.00  0.00     0.021 C 
HETATM   27  C   UNL     1      41.324 -16.714   2.335  1.00  0.00     0.021 C 
HETATM   28  C   UNL     1      43.393 -15.437   1.824  1.00  0.00     0.021 C 
ENDBRANCH  20  25
ENDBRANCH  18  19
ENDBRANCH   1  18
TORSDOF 7
ENDMDL
MODEL 7
REMARK VINA RESULT:      -6.8      2.156      6.853
REMARK  7 active torsions:
REMARK  status: ('A' for Active; 'I' for Inactive)
REMARK    1  A    between atoms: C_2  and  N_3 
REMARK    2  A    between atoms: N_3  and  C_5 
REMARK    3  A    between atoms: N_3  and  C_17 
REMARK    4  A    between atoms: C_5  and  C_6 
REMARK       I    between atoms: C_6  and  N_7 
REMARK    5  A    between atoms: N_7  and  C_8 
REMARK    6  A    between atoms: C_17  and  C_18 
REMARK    7  A    between atoms: C_19  and  C_20 
ROOT
HETATM    1  N   UNL     1      41.853 -13.210   3.749  1.00  0.00    -0.059 N 
HETATM    2  H   UNL     1      41.224 -13.935   3.390  1.00  0.00     0.280 HD
ENDROOT
BRANCH   1   3
HETATM    3  C   UNL     1      41.297 -12.744   5.077  1.00  0.00     0.231 C 
HETATM    4  C   UNL     1      39.794 -12.950   5.134  1.00  0.00     0.034 C 
ENDBRANCH   1   3
BRANCH   1   5
HETATM    5  C   UNL     1      41.929 -12.116   2.677  1.00  0.00     0.337 C 
BRANCH   5   6
HETATM    6  C   UNL     1      40.893 -12.249   1.552  1.00  0.00     0.248 C 
HETATM    7  N   UNL     1      41.290 -13.072   0.514  1.00  0.00    -0.325 N 
HETATM    8  H   UNL     1      41.982 -13.779   0.723  1.00  0.00     0.169 HD
HETATM    9  O   UNL     1      39.808 -11.683   1.656  1.00  0.00    -0.271 OA
BRANCH   7  10
HETATM   10  C   UNL     1      40.540 -13.311  -0.669  1.00  0.00     0.046 A 
HETATM   11  C   UNL     1      40.541 -12.431  -1.774  1.00  0.00    -0.035 A 
HETATM   12  C   UNL     1      41.389 -11.192  -1.888  1.00  0.00     0.050 C 
HETATM   13  C   UNL     1      39.740 -12.736  -2.891  1.00  0.00     0.009 A 
HETATM   14  C   UNL     1      39.001 -13.912  -2.950  1.00  0.00     0.001 A 
HETATM   15  C   UNL     1      39.052 -14.809  -1.891  1.00  0.00     0.009 A 
HETATM   16  C   UNL     1      39.815 -14.527  -0.747  1.00  0.00    -0.035 A 
HETATM   17  C   UNL     1      39.793 -15.537   0.372  1.00  0.00     0.050 C 
ENDBRANCH   7  10
ENDBRANCH   5   6
ENDBRANCH   1   5
BRANCH   1  18
HETATM   18  C   UNL     1      43.199 -13.912   3.929  1.00  0.00     0.277 C 
BRANCH  18  19
HETATM   19  C   UNL     1      43.169 -15.313   3.421  1.00  0.00     0.012 A 
HETATM   20  C   UNL     1      43.174 -16.546   4.157  1.00  0.00     0.071 A 
HETATM   21  N   UNL     1      43.107 -17.587   3.317  1.00  0.00    -0.178 NA
HETATM   22  N   UNL     1      43.139 -17.066   2.091  1.00  0.00    -0.288 N 
HETATM   23  H   UNL     1      43.142 -17.704   1.299  1.00  0.00     0.188 HD
HETATM   24  C   UNL     1      43.159 -15.704   2.093  1.00  0.00     0.120 A 
BRANCH  20  25
HETATM   25  C   UNL     1      43.244 -16.809   5.666  1.00  0.00    -0.004 C 
HETATM   26  C   UNL     1      43.431 -18.310   5.957  1.00  0.00     0.021 C 
HETATM   27  C   UNL     1      44.440 -16.072   6.323  1.00  0.00     0.021 C 
HETATM   28  C   UNL     1      41.966 -16.297   6.361  1.00  0.00     0.021 C 
ENDBRANCH  20  25
ENDBRANCH  18  19
ENDBRANCH   1  18
TORSDOF 7
ENDMDL
MODEL 8
REMARK VINA RESULT:      -6.8      3.457      6.951
REMARK  7 active torsions:
REMARK  status: ('A' for Active; 'I' for Inactive)
REMARK    1  A    between atoms: C_2  and  N_3 
REMARK    2  A    between atoms: N_3  and  C_5 
REMARK    3  A    between atoms: N_3  and  C_17 
REMARK    4  A    between atoms: C_5  and  C_6 
REMARK       I    between atoms: C_6  and  N_7 
REMARK    5  A    between atoms: N_7  and  C_8 
REMARK    6  A    between atoms: C_17  and  C_18 
REMARK    7  A    between atoms: C_19  and  C_20 
ROOT
HETATM    1  N   UNL     1      41.270 -13.127   4.346  1.00  0.00    -0.059 N 
HETATM    2  H   UNL     1      42.284 -13.096   4.194  1.00  0.00     0.280 HD
ENDROOT
BRANCH   1   3
HETATM    3  C   UNL     1      40.607 -12.685   3.060  1.00  0.00     0.231 C 
HETATM    4  C   UNL     1      41.600 -12.684   1.912  1.00  0.00     0.034 C 
ENDBRANCH   1   3
BRANCH   1   5
HETATM    5  C   UNL     1      40.973 -12.228   5.552  1.00  0.00     0.337 C 
BRANCH   5   6
HETATM    6  C   UNL     1      42.037 -11.157   5.830  1.00  0.00     0.248 C 
HETATM    7  N   UNL     1      42.598 -11.234   7.092  1.00  0.00    -0.325 N 
HETATM    8  H   UNL     1      42.576 -12.133   7.554  1.00  0.00     0.169 HD
HETATM    9  O   UNL     1      42.346 -10.364   4.944  1.00  0.00    -0.271 OA
BRANCH   7  10
HETATM   10  C   UNL     1      43.558 -10.325   7.614  1.00  0.00     0.046 A 
HETATM   11  C   UNL     1      43.209  -9.182   8.367  1.00  0.00    -0.035 A 
HETATM   12  C   UNL     1      41.809  -8.825   8.791  1.00  0.00     0.050 C 
HETATM   13  C   UNL     1      44.229  -8.322   8.815  1.00  0.00     0.009 A 
HETATM   14  C   UNL     1      45.569  -8.609   8.584  1.00  0.00     0.001 A 
HETATM   15  C   UNL     1      45.915  -9.767   7.900  1.00  0.00     0.009 A 
HETATM   16  C   UNL     1      44.926 -10.635   7.411  1.00  0.00    -0.035 A 
HETATM   17  C   UNL     1      45.383 -11.854   6.652  1.00  0.00     0.050 C 
ENDBRANCH   7  10
ENDBRANCH   5   6
ENDBRANCH   1   5
BRANCH   1  18
HETATM   18  C   UNL     1      40.964 -14.593   4.651  1.00  0.00     0.277 C 
BRANCH  18  19
HETATM   19  C   UNL     1      42.203 -15.378   4.915  1.00  0.00     0.012 A 
HETATM   20  C   UNL     1      42.926 -16.256   4.038  1.00  0.00     0.071 A 
HETATM   21  N   UNL     1      44.009 -16.741   4.658  1.00  0.00    -0.178 NA
HETATM   22  N   UNL     1      43.956 -16.270   5.903  1.00  0.00    -0.288 N 
HETATM   23  H   UNL     1      44.676 -16.564   6.559  1.00  0.00     0.188 HD
HETATM   24  C   UNL     1      42.901 -15.432   6.110  1.00  0.00     0.120 A 
BRANCH  20  25
HETATM   25  C   UNL     1      42.641 -16.682   2.593  1.00  0.00    -0.004 C 
HETATM   26  C   UNL     1      41.155 -16.478   2.240  1.00  0.00     0.021 C 
HETATM   27  C   UNL     1      43.462 -15.848   1.575  1.00  0.00     0.021 C 
HETATM   28  C   UNL     1      43.030 -18.158   2.380  1.00  0.00     0.021 C 
ENDBRANCH  20  25
ENDBRANCH  18  19
ENDBRANCH   1  18
TORSDOF 7
ENDMDL
MODEL 9
REMARK VINA RESULT:      -6.7      1.640      2.919
REMARK  7 active torsions:
REMARK  status: ('A' for Active; 'I' for Inactive)
REMARK    1  A    between atoms: C_2  and  N_3 
REMARK    2  A    between atoms: N_3  and  C_5 
REMARK    3  A    between atoms: N_3  and  C_17 
REMARK    4  A    between atoms: C_5  and  C_6 
REMARK       I    between atoms: C_6  and  N_7 
REMARK    5  A    between atoms: N_7  and  C_8 
REMARK    6  A    between atoms: C_17  and  C_18 
REMARK    7  A    between atoms: C_19  and  C_20 
ROOT
HETATM    1  N   UNL     1      43.096 -13.817   5.400  1.00  0.00    -0.059 N 
HETATM    2  H   UNL     1      43.754 -14.457   4.943  1.00  0.00     0.280 HD
ENDROOT
BRANCH   1   3
HETATM    3  C   UNL     1      43.692 -13.435   6.737  1.00  0.00     0.231 C 
HETATM    4  C   UNL     1      44.597 -12.224   6.599  1.00  0.00     0.034 C 
ENDBRANCH   1   3
BRANCH   1   5
HETATM    5  C   UNL     1      41.752 -14.551   5.493  1.00  0.00     0.337 C 
BRANCH   5   6
HETATM    6  C   UNL     1      41.795 -16.023   5.062  1.00  0.00     0.248 C 
HETATM    7  N   UNL     1      43.071 -16.554   4.995  1.00  0.00    -0.325 N 
HETATM    8  H   UNL     1      43.784 -16.117   5.564  1.00  0.00     0.169 HD
HETATM    9  O   UNL     1      40.745 -16.626   4.856  1.00  0.00    -0.271 OA
BRANCH   7  10
HETATM   10  C   UNL     1      43.383 -17.872   4.565  1.00  0.00     0.046 A 
HETATM   11  C   UNL     1      43.484 -18.236   3.204  1.00  0.00    -0.035 A 
HETATM   12  C   UNL     1      43.367 -17.281   2.047  1.00  0.00     0.050 C 
HETATM   13  C   UNL     1      43.766 -19.575   2.874  1.00  0.00     0.009 A 
HETATM   14  C   UNL     1      44.008 -20.526   3.859  1.00  0.00     0.001 A 
HETATM   15  C   UNL     1      43.974 -20.153   5.196  1.00  0.00     0.009 A 
HETATM   16  C   UNL     1      43.667 -18.834   5.567  1.00  0.00    -0.035 A 
HETATM   17  C   UNL     1      43.619 -18.518   7.040  1.00  0.00     0.050 C 
ENDBRANCH   7  10
ENDBRANCH   5   6
ENDBRANCH   1   5
BRANCH   1  18
HETATM   18  C   UNL     1      43.011 -12.609   4.467  1.00  0.00     0.277 C 
BRANCH  18  19
HETATM   19  C   UNL     1      42.463 -12.975   3.130  1.00  0.00     0.012 A 
HETATM   20  C   UNL     1      41.249 -12.542   2.497  1.00  0.00     0.071 A 
HETATM   21  N   UNL     1      41.143 -13.084   1.278  1.00  0.00    -0.178 NA
HETATM   22  N   UNL     1      42.192 -13.896   1.149  1.00  0.00    -0.288 N 
HETATM   23  H   UNL     1      42.272 -14.445   0.297  1.00  0.00     0.188 HD
HETATM   24  C   UNL     1      43.027 -13.858   2.225  1.00  0.00     0.120 A 
BRANCH  20  25
HETATM   25  C   UNL     1      40.139 -11.610   2.997  1.00  0.00    -0.004 C 
HETATM   26  C   UNL     1      39.030 -11.453   1.938  1.00  0.00     0.021 C 
HETATM   27  C   UNL     1      39.460 -12.161   4.278  1.00  0.00     0.021 C 
HETATM   28  C   UNL     1      40.718 -10.227   3.356  1.00  0.00     0.021 C 
ENDBRANCH  20  25
ENDBRANCH  18  19
ENDBRANCH   1  18
TORSDOF 7
ENDMDL
MODEL 10
REMARK VINA RESULT:      -6.7      3.631      6.970
REMARK  7 active torsions:
REMARK  status: ('A' for Active; 'I' for Inactive)
REMARK    1  A    between atoms: C_2  and  N_3 
REMARK    2  A    between atoms: N_3  and  C_5 
REMARK    3  A    between atoms: N_3  and  C_17 
REMARK    4  A    between atoms: C_5  and  C_6 
REMARK       I    between atoms: C_6  and  N_7 
REMARK    5  A    between atoms: N_7  and  C_8 
REMARK    6  A    between atoms: C_17  and  C_18 
REMARK    7  A    between atoms: C_19  and  C_20 
ROOT
HETATM    1  N   UNL     1      41.467 -12.911   4.648  1.00  0.00    -0.059 N 
HETATM    2  H   UNL     1      42.295 -13.306   5.108  1.00  0.00     0.280 HD
ENDROOT
BRANCH   1   3
HETATM    3  C   UNL     1      41.914 -12.360   3.312  1.00  0.00     0.231 C 
HETATM    4  C   UNL     1      43.424 -12.427   3.176  1.00  0.00     0.034 C 
ENDBRANCH   1   3
BRANCH   1   5
HETATM    5  C   UNL     1      40.886 -11.861   5.603  1.00  0.00     0.337 C 
BRANCH   5   6
HETATM    6  C   UNL     1      41.894 -10.814   6.094  1.00  0.00     0.248 C 
HETATM    7  N   UNL     1      42.745 -11.271   7.084  1.00  0.00    -0.325 N 
HETATM    8  H   UNL     1      42.908 -12.268   7.130  1.00  0.00     0.169 HD
HETATM    9  O   UNL     1      41.916  -9.701   5.573  1.00  0.00    -0.271 OA
BRANCH   7  10
HETATM   10  C   UNL     1      43.724 -10.481   7.745  1.00  0.00     0.046 A 
HETATM   11  C   UNL     1      43.417  -9.591   8.798  1.00  0.00    -0.035 A 
HETATM   12  C   UNL     1      42.053  -9.427   9.414  1.00  0.00     0.050 C 
HETATM   13  C   UNL     1      44.450  -8.826   9.371  1.00  0.00     0.009 A 
HETATM   14  C   UNL     1      45.770  -8.976   8.963  1.00  0.00     0.001 A 
HETATM   15  C   UNL     1      46.082  -9.899   7.973  1.00  0.00     0.009 A 
HETATM   16  C   UNL     1      45.076 -10.659   7.356  1.00  0.00    -0.035 A 
HETATM   17  C   UNL     1      45.494 -11.616   6.269  1.00  0.00     0.050 C 
ENDBRANCH   7  10
ENDBRANCH   5   6
ENDBRANCH   1   5
BRANCH   1  18
HETATM   18  C   UNL     1      40.516 -14.094   4.469  1.00  0.00     0.277 C 
BRANCH  18  19
HETATM   19  C   UNL     1      41.212 -15.290   3.917  1.00  0.00     0.012 A 
HETATM   20  C   UNL     1      42.159 -16.164   4.551  1.00  0.00     0.071 A 
HETATM   21  N   UNL     1      42.522 -17.142   3.713  1.00  0.00    -0.178 NA
HETATM   22  N   UNL     1      41.908 -16.878   2.560  1.00  0.00    -0.288 N 
HETATM   23  H   UNL     1      42.092 -17.489   1.768  1.00  0.00     0.188 HD
HETATM   24  C   UNL     1      41.095 -15.787   2.629  1.00  0.00     0.120 A 
BRANCH  20  25
HETATM   25  C   UNL     1      42.766 -16.126   5.959  1.00  0.00    -0.004 C 
HETATM   26  C   UNL     1      41.667 -16.001   7.032  1.00  0.00     0.021 C 
HETATM   27  C   UNL     1      43.560 -17.419   6.278  1.00  0.00     0.021 C 
HETATM   28  C   UNL     1      43.755 -14.950   6.087  1.00  0.00     0.021 C 
ENDBRANCH  20  25
ENDBRANCH  18  19
ENDBRANCH   1  18
TORSDOF 7
ENDMDL
