MODEL 1
REMARK VINA RESULT:      -8.9      0.000      0.000
REMARK  5 active torsions:
REMARK  status: ('A' for Active; 'I' for Inactive)
REMARK    1  A    between atoms: C_2  and  C_3 
REMARK    2  A    between atoms: C_7  and  N_8 
REMARK    3  A    between atoms: C_13  and  N_14 
REMARK       I    between atoms: N_14  and  C_15 
REMARK    4  A    between atoms: C_15  and  C_16 
REMARK       I    between atoms: C_16  and  N_17 
REMARK    5  A    between atoms: N_17  and  C_18 
ROOT
HETATM    1  N   UNL     1      41.986 -15.424   2.533  1.00  0.00    -0.045 N 
HETATM    2  N   UNL     1      41.298 -15.647   1.377  1.00  0.00    -0.156 NA
HETATM    3  C   UNL     1      40.805 -14.447   1.050  1.00  0.00     0.055 A 
HETATM    4  C   UNL     1      39.973 -14.274  -0.167  1.00  0.00     0.072 C 
HETATM    5  C   UNL     1      41.178 -13.453   1.984  1.00  0.00     0.079 A 
HETATM    6  C   UNL     1      41.936 -14.098   2.934  1.00  0.00     0.152 A 
ENDROOT
BRANCH   6   7
HETATM    7  N   UNL     1      42.533 -13.570   4.077  1.00  0.00    -0.303 N 
HETATM    8  C   UNL     1      41.860 -13.398   5.328  1.00  0.00     0.315 C 
HETATM    9  O   UNL     1      40.675 -13.644   5.491  1.00  0.00    -0.262 OA
HETATM   10  H   UNL     1      43.517 -13.284   4.022  1.00  0.00     0.171 HD
BRANCH   8  11
HETATM   11  C   UNL     1      42.731 -12.876   6.484  1.00  0.00     0.310 C 
HETATM   12  N   UNL     1      42.625 -11.516   6.692  1.00  0.00    -0.348 N 
HETATM   13  H   UNL     1      42.067 -10.987   6.026  1.00  0.00     0.163 HD
HETATM   14  O   UNL     1      43.415 -13.669   7.115  1.00  0.00    -0.262 OA
BRANCH  12  15
HETATM   15  C   UNL     1      43.349 -10.784   7.725  1.00  0.00     0.085 C 
HETATM   16  C   UNL     1      42.659  -9.431   7.955  1.00  0.00     0.034 C 
HETATM   17  C   UNL     1      43.390  -8.510   8.955  1.00  0.00    -0.045 C 
HETATM   18  C   UNL     1      43.253  -9.053  10.390  1.00  0.00     0.015 C 
HETATM   19  C   UNL     1      42.740  -7.114   8.913  1.00  0.00     0.015 C 
HETATM   20  C   UNL     1      44.878  -8.380   8.557  1.00  0.00     0.013 C 
HETATM   21  C   UNL     1      45.578  -9.732   8.351  1.00  0.00    -0.016 C 
HETATM   22  C   UNL     1      47.023  -9.519   7.901  1.00  0.00     0.010 C 
HETATM   23  C   UNL     1      44.818 -10.594   7.332  1.00  0.00     0.029 C 
ENDBRANCH  12  15
ENDBRANCH   8  11
ENDBRANCH   6   7
BRANCH   1  24
HETATM   24  C   UNL     1      42.649 -16.482   3.171  1.00  0.00     0.732 A 
HETATM   25  N   UNL     1      42.774 -17.564   2.355  1.00  0.00    -0.152 N 
HETATM   26  C   UNL     1      43.405 -18.693   2.766  1.00  0.00     0.268 A 
HETATM   27  H   UNL     1      42.406 -17.533   1.409  1.00  0.00     0.188 HD
HETATM   28  C   UNL     1      43.923 -18.660   4.164  1.00  0.00     0.035 A 
HETATM   29  O   UNL     1      43.537 -19.663   2.031  1.00  0.00    -0.267 OA
HETATM   30  C   UNL     1      43.724 -17.529   4.879  1.00  0.00     0.061 A 
HETATM   31  N   UNL     1      43.082 -16.404   4.388  1.00  0.00    -0.067 NA
HETATM   32  C   UNL     1      44.213 -17.362   6.296  1.00  0.00     0.072 C 
BRANCH  28  33
HETATM   33  C   UNL     1      44.581 -19.929   4.641  1.00  0.00     0.042 C 
HETATM   34  C   UNL     1      43.601 -20.843   5.363  1.00  0.00     0.010 C 
ENDBRANCH  28  33
ENDBRANCH   1  24
TORSDOF 5
ENDMDL
MODEL 2
REMARK VINA RESULT:      -8.8      0.996      1.757
REMARK  5 active torsions:
REMARK  status: ('A' for Active; 'I' for Inactive)
REMARK    1  A    between atoms: C_2  and  C_3 
REMARK    2  A    between atoms: C_7  and  N_8 
REMARK    3  A    between atoms: C_13  and  N_14 
REMARK       I    between atoms: N_14  and  C_15 
REMARK    4  A    between atoms: C_15  and  C_16 
REMARK       I    between atoms: C_16  and  N_17 
REMARK    5  A    between atoms: N_17  and  C_18 
ROOT
HETATM    1  N   UNL     1      42.094 -14.777   2.565  1.00  0.00    -0.045 N 
HETATM    2  N   UNL     1      41.323 -15.035   1.470  1.00  0.00    -0.156 NA
HETATM    3  C   UNL     1      40.861 -13.835   1.102  1.00  0.00     0.055 A 
HETATM    4  C   UNL     1      39.960 -13.696  -0.070  1.00  0.00     0.072 C 
HETATM    5  C   UNL     1      41.337 -12.806   1.946  1.00  0.00     0.079 A 
HETATM    6  C   UNL     1      42.127 -13.429   2.885  1.00  0.00     0.152 A 
ENDROOT
BRANCH   6   7
HETATM    7  N   UNL     1      42.820 -12.862   3.953  1.00  0.00    -0.303 N 
HETATM    8  C   UNL     1      42.244 -12.605   5.237  1.00  0.00     0.315 C 
HETATM    9  O   UNL     1      41.068 -12.803   5.496  1.00  0.00    -0.262 OA
HETATM   10  H   UNL     1      43.806 -12.612   3.814  1.00  0.00     0.171 HD
BRANCH   8  11
HETATM   11  C   UNL     1      43.212 -12.052   6.299  1.00  0.00     0.310 C 
HETATM   12  N   UNL     1      42.854 -10.813   6.790  1.00  0.00    -0.348 N 
HETATM   13  H   UNL     1      42.057 -10.354   6.354  1.00  0.00     0.163 HD
HETATM   14  O   UNL     1      44.178 -12.726   6.627  1.00  0.00    -0.262 OA
BRANCH  12  15
HETATM   15  C   UNL     1      43.607 -10.081   7.802  1.00  0.00     0.085 C 
HETATM   16  C   UNL     1      43.480 -10.814   9.146  1.00  0.00     0.034 C 
HETATM   17  C   UNL     1      44.149 -10.083  10.330  1.00  0.00    -0.045 C 
HETATM   18  C   UNL     1      45.683 -10.147  10.208  1.00  0.00     0.015 C 
HETATM   19  C   UNL     1      43.748 -10.788  11.640  1.00  0.00     0.015 C 
HETATM   20  C   UNL     1      43.663  -8.617  10.382  1.00  0.00     0.013 C 
HETATM   21  C   UNL     1      43.811  -7.873   9.046  1.00  0.00    -0.016 C 
HETATM   22  C   UNL     1      43.254  -6.455   9.163  1.00  0.00     0.010 C 
HETATM   23  C   UNL     1      43.110  -8.636   7.913  1.00  0.00     0.029 C 
ENDBRANCH  12  15
ENDBRANCH   8  11
ENDBRANCH   6   7
BRANCH   1  24
HETATM   24  C   UNL     1      42.751 -15.825   3.225  1.00  0.00     0.732 A 
HETATM   25  N   UNL     1      42.753 -16.966   2.481  1.00  0.00    -0.152 N 
HETATM   26  C   UNL     1      43.356 -18.098   2.923  1.00  0.00     0.268 A 
HETATM   27  H   UNL     1      42.311 -16.978   1.568  1.00  0.00     0.188 HD
HETATM   28  C   UNL     1      43.987 -18.000   4.270  1.00  0.00     0.035 A 
HETATM   29  O   UNL     1      43.377 -19.123   2.253  1.00  0.00    -0.267 OA
HETATM   30  C   UNL     1      43.907 -16.813   4.915  1.00  0.00     0.061 A 
HETATM   31  N   UNL     1      43.286 -15.689   4.395  1.00  0.00    -0.067 NA
HETATM   32  C   UNL     1      44.518 -16.578   6.274  1.00  0.00     0.072 C 
BRANCH  28  33
HETATM   33  C   UNL     1      44.616 -19.269   4.786  1.00  0.00     0.042 C 
HETATM   34  C   UNL     1      43.652 -20.074   5.646  1.00  0.00     0.010 C 
ENDBRANCH  28  33
ENDBRANCH   1  24
TORSDOF 5
ENDMDL
MODEL 3
REMARK VINA RESULT:      -8.6      2.481      7.678
REMARK  5 active torsions:
REMARK  status: ('A' for Active; 'I' for Inactive)
REMARK    1  A    between atoms: C_2  and  C_3 
REMARK    2  A    between atoms: C_7  and  N_8 
REMARK    3  A    between atoms: C_13  and  N_14 
REMARK       I    between atoms: N_14  and  C_15 
REMARK    4  A    between atoms: C_15  and  C_16 
REMARK       I    between atoms: C_16  and  N_17 
REMARK    5  A    between atoms: N_17  and  C_18 
ROOT
HETATM    1  N   UNL     1      43.009 -13.126   5.217  1.00  0.00    -0.045 N 
HETATM    2  N   UNL     1      43.737 -12.972   6.359  1.00  0.00    -0.156 NA
HETATM    3  C   UNL     1      43.507 -11.708   6.730  1.00  0.00     0.055 A 
HETATM    4  C   UNL     1      44.142 -11.146   7.948  1.00  0.00     0.072 C 
HETATM    5  C   UNL     1      42.629 -11.050   5.839  1.00  0.00     0.079 A 
HETATM    6  C   UNL     1      42.319 -11.975   4.868  1.00  0.00     0.152 A 
ENDROOT
BRANCH   6   7
HETATM    7  N   UNL     1      41.501 -11.823   3.751  1.00  0.00    -0.303 N 
HETATM    8  C   UNL     1      40.139 -12.257   3.688  1.00  0.00     0.315 C 
HETATM    9  O   UNL     1      39.585 -12.859   4.594  1.00  0.00    -0.262 OA
HETATM   10  H   UNL     1      41.896 -11.372   2.917  1.00  0.00     0.171 HD
BRANCH   8  11
HETATM   11  C   UNL     1      39.392 -11.913   2.386  1.00  0.00     0.310 C 
HETATM   12  N   UNL     1      39.988 -12.421   1.251  1.00  0.00    -0.348 N 
HETATM   13  H   UNL     1      40.886 -12.887   1.366  1.00  0.00     0.163 HD
HETATM   14  O   UNL     1      38.365 -11.254   2.450  1.00  0.00    -0.262 OA
BRANCH  12  15
HETATM   15  C   UNL     1      39.474 -12.233  -0.101  1.00  0.00     0.085 C 
HETATM   16  C   UNL     1      39.263 -13.609  -0.751  1.00  0.00     0.034 C 
HETATM   17  C   UNL     1      38.817 -13.550  -2.228  1.00  0.00    -0.045 C 
HETATM   18  C   UNL     1      37.364 -13.050  -2.335  1.00  0.00     0.015 C 
HETATM   19  C   UNL     1      38.875 -14.970  -2.822  1.00  0.00     0.015 C 
HETATM   20  C   UNL     1      39.772 -12.634  -3.027  1.00  0.00     0.013 C 
HETATM   21  C   UNL     1      39.967 -11.248  -2.393  1.00  0.00    -0.016 C 
HETATM   22  C   UNL     1      40.969 -10.429  -3.206  1.00  0.00     0.010 C 
HETATM   23  C   UNL     1      40.429 -11.372  -0.934  1.00  0.00     0.029 C 
ENDBRANCH  12  15
ENDBRANCH   8  11
ENDBRANCH   6   7
BRANCH   1  24
HETATM   24  C   UNL     1      43.010 -14.354   4.541  1.00  0.00     0.732 A 
HETATM   25  N   UNL     1      42.902 -15.403   5.403  1.00  0.00    -0.152 N 
HETATM   26  C   UNL     1      42.863 -16.685   4.959  1.00  0.00     0.268 A 
HETATM   27  H   UNL     1      42.833 -15.235   6.402  1.00  0.00     0.188 HD
HETATM   28  C   UNL     1      42.965 -16.849   3.480  1.00  0.00     0.035 A 
HETATM   29  O   UNL     1      42.749 -17.631   5.726  1.00  0.00    -0.267 OA
HETATM   30  C   UNL     1      43.081 -15.728   2.731  1.00  0.00     0.061 A 
HETATM   31  N   UNL     1      43.100 -14.446   3.254  1.00  0.00    -0.067 NA
HETATM   32  C   UNL     1      43.176 -15.758   1.226  1.00  0.00     0.072 C 
BRANCH  28  33
HETATM   33  C   UNL     1      42.971 -18.273   2.985  1.00  0.00     0.042 C 
HETATM   34  C   UNL     1      44.374 -18.864   2.964  1.00  0.00     0.010 C 
ENDBRANCH  28  33
ENDBRANCH   1  24
TORSDOF 5
ENDMDL
MODEL 4
REMARK VINA RESULT:      -8.5      1.753      4.376
REMARK  5 active torsions:
REMARK  status: ('A' for Active; 'I' for Inactive)
REMARK    1  A    between atoms: C_2  and  C_3 
REMARK    2  A    between atoms: C_7  and  N_8 
REMARK    3  A    between atoms: C_13  and  N_14 
REMARK       I    between atoms: N_14  and  C_15 
REMARK    4  A    between atoms: C_15  and  C_16 
REMARK       I    between atoms: C_16  and  N_17 
REMARK    5  A    between atoms: N_17  and  C_18 
ROOT
HETATM    1  N   UNL     1      43.066 -16.646   2.897  1.00  0.00    -0.045 N 
HETATM    2  N   UNL     1      43.041 -17.768   2.123  1.00  0.00    -0.156 NA
HETATM    3  C   UNL     1      43.575 -18.716   2.900  1.00  0.00     0.055 A 
HETATM    4  C   UNL     1      43.732 -20.106   2.402  1.00  0.00     0.072 C 
HETATM    5  C   UNL     1      43.934 -18.214   4.171  1.00  0.00     0.079 A 
HETATM    6  C   UNL     1      43.603 -16.878   4.153  1.00  0.00     0.152 A 
ENDROOT
BRANCH   6   7
HETATM    7  N   UNL     1      43.768 -15.927   5.157  1.00  0.00    -0.303 N 
HETATM    8  C   UNL     1      42.715 -15.471   6.012  1.00  0.00     0.315 C 
HETATM    9  O   UNL     1      41.555 -15.832   5.897  1.00  0.00    -0.262 OA
HETATM   10  H   UNL     1      44.703 -15.526   5.296  1.00  0.00     0.171 HD
BRANCH   8  11
HETATM   11  C   UNL     1      43.136 -14.479   7.111  1.00  0.00     0.310 C 
HETATM   12  N   UNL     1      43.342 -13.194   6.653  1.00  0.00    -0.348 N 
HETATM   13  H   UNL     1      43.285 -13.044   5.648  1.00  0.00     0.163 HD
HETATM   14  O   UNL     1      43.240 -14.879   8.262  1.00  0.00    -0.262 OA
BRANCH  12  15
HETATM   15  C   UNL     1      43.744 -12.075   7.498  1.00  0.00     0.085 C 
HETATM   16  C   UNL     1      42.795 -10.893   7.248  1.00  0.00     0.034 C 
HETATM   17  C   UNL     1      43.176  -9.605   8.008  1.00  0.00    -0.045 C 
HETATM   18  C   UNL     1      42.907  -9.766   9.516  1.00  0.00     0.015 C 
HETATM   19  C   UNL     1      42.301  -8.446   7.492  1.00  0.00     0.015 C 
HETATM   20  C   UNL     1      44.661  -9.264   7.749  1.00  0.00     0.013 C 
HETATM   21  C   UNL     1      45.616 -10.436   8.021  1.00  0.00    -0.016 C 
HETATM   22  C   UNL     1      47.053 -10.039   7.684  1.00  0.00     0.010 C 
HETATM   23  C   UNL     1      45.199 -11.680   7.224  1.00  0.00     0.029 C 
ENDBRANCH  12  15
ENDBRANCH   8  11
ENDBRANCH   6   7
BRANCH   1  24
HETATM   24  C   UNL     1      42.570 -15.434   2.395  1.00  0.00     0.732 A 
HETATM   25  N   UNL     1      41.659 -15.635   1.403  1.00  0.00    -0.152 N 
HETATM   26  C   UNL     1      41.037 -14.596   0.790  1.00  0.00     0.268 A 
HETATM   27  H   UNL     1      41.419 -16.579   1.116  1.00  0.00     0.188 HD
HETATM   28  C   UNL     1      41.439 -13.242   1.269  1.00  0.00     0.035 A 
HETATM   29  O   UNL     1      40.205 -14.769  -0.090  1.00  0.00    -0.267 OA
HETATM   30  C   UNL     1      42.364 -13.174   2.254  1.00  0.00     0.061 A 
HETATM   31  N   UNL     1      42.949 -14.282   2.845  1.00  0.00    -0.067 NA
HETATM   32  C   UNL     1      42.843 -11.868   2.837  1.00  0.00     0.072 C 
BRANCH  28  33
HETATM   33  C   UNL     1      40.786 -12.084   0.559  1.00  0.00     0.042 C 
HETATM   34  C   UNL     1      39.511 -11.632   1.258  1.00  0.00     0.010 C 
ENDBRANCH  28  33
ENDBRANCH   1  24
TORSDOF 5
ENDMDL
MODEL 5
REMARK VINA RESULT:      -8.3      3.113      8.008
REMARK  5 active torsions:
REMARK  status: ('A' for Active; 'I' for Inactive)
REMARK    1  A    between atoms: C_2  and  C_3 
REMARK    2  A    between atoms: C_7  and  N_8 
REMARK    3  A    between atoms: C_13  and  N_14 
REMARK       I    between atoms: N_14  and  C_15 
REMARK    4  A    between atoms: C_15  and  C_16 
REMARK       I    between atoms: C_16  and  N_17 
REMARK    5  A    between atoms: N_17  and  C_18 
ROOT
HETATM    1  N   UNL     1      42.715 -15.875   3.724  1.00  0.00    -0.045 N 
HETATM    2  N   UNL     1      43.383 -16.764   4.514  1.00  0.00    -0.156 NA
HETATM    3  C   UNL     1      43.645 -17.794   3.703  1.00  0.00     0.055 A 
HETATM    4  C   UNL     1      44.367 -18.991   4.204  1.00  0.00     0.072 C 
HETATM    5  C   UNL     1      43.159 -17.571   2.395  1.00  0.00     0.079 A 
HETATM    6  C   UNL     1      42.560 -16.332   2.425  1.00  0.00     0.152 A 
ENDROOT
BRANCH   6   7
HETATM    7  N   UNL     1      41.914 -15.653   1.394  1.00  0.00    -0.303 N 
HETATM    8  C   UNL     1      40.507 -15.396   1.360  1.00  0.00     0.315 C 
HETATM    9  O   UNL     1      39.730 -15.806   2.208  1.00  0.00    -0.262 OA
HETATM   10  H   UNL     1      42.480 -15.313   0.608  1.00  0.00     0.171 HD
BRANCH   8  11
HETATM   11  C   UNL     1      40.015 -14.553   0.169  1.00  0.00     0.310 C 
HETATM   12  N   UNL     1      40.292 -13.207   0.287  1.00  0.00    -0.348 N 
HETATM   13  H   UNL     1      40.705 -12.893   1.162  1.00  0.00     0.163 HD
HETATM   14  O   UNL     1      39.450 -15.114  -0.759  1.00  0.00    -0.262 OA
BRANCH  12  15
HETATM   15  C   UNL     1      39.929 -12.204  -0.708  1.00  0.00     0.085 C 
HETATM   16  C   UNL     1      41.079 -11.193  -0.840  1.00  0.00     0.034 C 
HETATM   17  C   UNL     1      40.778 -10.015  -1.790  1.00  0.00    -0.045 C 
HETATM   18  C   UNL     1      40.757 -10.491  -3.255  1.00  0.00     0.015 C 
HETATM   19  C   UNL     1      41.896  -8.964  -1.650  1.00  0.00     0.015 C 
HETATM   20  C   UNL     1      39.429  -9.363  -1.406  1.00  0.00     0.013 C 
HETATM   21  C   UNL     1      38.272 -10.367  -1.297  1.00  0.00    -0.016 C 
HETATM   22  C   UNL     1      36.993  -9.658  -0.855  1.00  0.00     0.010 C 
HETATM   23  C   UNL     1      38.621 -11.504  -0.325  1.00  0.00     0.029 C 
ENDBRANCH  12  15
ENDBRANCH   8  11
ENDBRANCH   6   7
BRANCH   1  24
HETATM   24  C   UNL     1      42.280 -14.653   4.254  1.00  0.00     0.732 A 
HETATM   25  N   UNL     1      41.224 -14.817   5.099  1.00  0.00    -0.152 N 
HETATM   26  C   UNL     1      40.659 -13.763   5.739  1.00  0.00     0.268 A 
HETATM   27  H   UNL     1      40.853 -15.746   5.274  1.00  0.00     0.188 HD
HETATM   28  C   UNL     1      41.262 -12.434   5.435  1.00  0.00     0.035 A 
HETATM   29  O   UNL     1      39.721 -13.906   6.514  1.00  0.00    -0.267 OA
HETATM   30  C   UNL     1      42.301 -12.401   4.568  1.00  0.00     0.061 A 
HETATM   31  N   UNL     1      42.838 -13.524   3.960  1.00  0.00    -0.067 NA
HETATM   32  C   UNL     1      43.009 -11.124   4.190  1.00  0.00     0.072 C 
BRANCH  28  33
HETATM   33  C   UNL     1      40.606 -11.256   6.107  1.00  0.00     0.042 C 
HETATM   34  C   UNL     1      39.483 -10.670   5.262  1.00  0.00     0.010 C 
ENDBRANCH  28  33
ENDBRANCH   1  24
TORSDOF 5
ENDMDL
MODEL 6
REMARK VINA RESULT:      -8.3      3.036      6.206
REMARK  5 active torsions:
REMARK  status: ('A' for Active; 'I' for Inactive)
REMARK    1  A    between atoms: C_2  and  C_3 
REMARK    2  A    between atoms: C_7  and  N_8 
REMARK    3  A    between atoms: C_13  and  N_14 
REMARK       I    between atoms: N_14  and  C_15 
REMARK    4  A    between atoms: C_15  and  C_16 
REMARK       I    between atoms: C_16  and  N_17 
REMARK    5  A    between atoms: N_17  and  C_18 
ROOT
HETATM    1  N   UNL     1      42.232 -13.810   5.589  1.00  0.00    -0.045 N 
HETATM    2  N   UNL     1      42.167 -14.903   4.777  1.00  0.00    -0.156 NA
HETATM    3  C   UNL     1      43.085 -15.738   5.274  1.00  0.00     0.055 A 
HETATM    4  C   UNL     1      43.327 -17.062   4.645  1.00  0.00     0.072 C 
HETATM    5  C   UNL     1      43.735 -15.194   6.405  1.00  0.00     0.079 A 
HETATM    6  C   UNL     1      43.176 -13.950   6.594  1.00  0.00     0.152 A 
ENDROOT
BRANCH   6   7
HETATM    7  N   UNL     1      43.477 -13.001   7.568  1.00  0.00    -0.303 N 
HETATM    8  C   UNL     1      44.261 -11.828   7.331  1.00  0.00     0.315 C 
HETATM    9  O   UNL     1      44.793 -11.583   6.260  1.00  0.00    -0.262 OA
HETATM   10  H   UNL     1      43.115 -13.148   8.517  1.00  0.00     0.171 HD
BRANCH   8  11
HETATM   11  C   UNL     1      44.399 -10.869   8.527  1.00  0.00     0.310 C 
HETATM   12  N   UNL     1      43.229 -10.216   8.856  1.00  0.00    -0.348 N 
HETATM   13  H   UNL     1      42.430 -10.358   8.242  1.00  0.00     0.163 HD
HETATM   14  O   UNL     1      45.484 -10.768   9.082  1.00  0.00    -0.262 OA
BRANCH  12  15
HETATM   15  C   UNL     1      43.102  -9.259   9.949  1.00  0.00     0.085 C 
HETATM   16  C   UNL     1      41.896  -9.649  10.817  1.00  0.00     0.034 C 
HETATM   17  C   UNL     1      41.587  -8.652  11.954  1.00  0.00    -0.045 C 
HETATM   18  C   UNL     1      42.663  -8.734  13.054  1.00  0.00     0.015 C 
HETATM   19  C   UNL     1      40.233  -9.024  12.588  1.00  0.00     0.015 C 
HETATM   20  C   UNL     1      41.494  -7.218  11.384  1.00  0.00     0.013 C 
HETATM   21  C   UNL     1      42.710  -6.816  10.536  1.00  0.00    -0.016 C 
HETATM   22  C   UNL     1      42.515  -5.414   9.959  1.00  0.00     0.010 C 
HETATM   23  C   UNL     1      42.955  -7.832   9.411  1.00  0.00     0.029 C 
ENDBRANCH  12  15
ENDBRANCH   8  11
ENDBRANCH   6   7
BRANCH   1  24
HETATM   24  C   UNL     1      41.389 -12.713   5.362  1.00  0.00     0.732 A 
HETATM   25  N   UNL     1      40.408 -12.629   6.302  1.00  0.00    -0.152 N 
HETATM   26  C   UNL     1      39.492 -11.627   6.283  1.00  0.00     0.268 A 
HETATM   27  H   UNL     1      40.358 -13.315   7.048  1.00  0.00     0.188 HD
HETATM   28  C   UNL     1      39.634 -10.656   5.160  1.00  0.00     0.035 A 
HETATM   29  O   UNL     1      38.618 -11.534   7.134  1.00  0.00    -0.267 OA
HETATM   30  C   UNL     1      40.644 -10.856   4.282  1.00  0.00     0.061 A 
HETATM   31  N   UNL     1      41.554 -11.896   4.372  1.00  0.00    -0.067 NA
HETATM   32  C   UNL     1      40.905  -9.937   3.114  1.00  0.00     0.072 C 
BRANCH  28  33
HETATM   33  C   UNL     1      38.591  -9.569   5.107  1.00  0.00     0.042 C 
HETATM   34  C   UNL     1      38.999  -8.347   5.919  1.00  0.00     0.010 C 
ENDBRANCH  28  33
ENDBRANCH   1  24
TORSDOF 5
ENDMDL
MODEL 7
REMARK VINA RESULT:      -8.3      2.418      8.822
REMARK  5 active torsions:
REMARK  status: ('A' for Active; 'I' for Inactive)
REMARK    1  A    between atoms: C_2  and  C_3 
REMARK    2  A    between atoms: C_7  and  N_8 
REMARK    3  A    between atoms: C_13  and  N_14 
REMARK       I    between atoms: N_14  and  C_15 
REMARK    4  A    between atoms: C_15  and  C_16 
REMARK       I    between atoms: C_16  and  N_17 
REMARK    5  A    between atoms: N_17  and  C_18 
ROOT
HETATM    1  N   UNL     1      42.920 -14.931   5.776  1.00  0.00    -0.045 N 
HETATM    2  N   UNL     1      43.187 -15.857   6.740  1.00  0.00    -0.156 NA
HETATM    3  C   UNL     1      43.191 -17.023   6.086  1.00  0.00     0.055 A 
HETATM    4  C   UNL     1      43.442 -18.297   6.806  1.00  0.00     0.072 C 
HETATM    5  C   UNL     1      42.938 -16.853   4.705  1.00  0.00     0.079 A 
HETATM    6  C   UNL     1      42.762 -15.500   4.522  1.00  0.00     0.152 A 
ENDROOT
BRANCH   6   7
HETATM    7  N   UNL     1      42.474 -14.812   3.345  1.00  0.00    -0.303 N 
HETATM    8  C   UNL     1      41.182 -14.776   2.732  1.00  0.00     0.315 C 
HETATM    9  O   UNL     1      40.222 -15.400   3.155  1.00  0.00    -0.262 OA
HETATM   10  H   UNL     1      43.234 -14.297   2.886  1.00  0.00     0.171 HD
BRANCH   8  11
HETATM   11  C   UNL     1      41.065 -13.885   1.482  1.00  0.00     0.310 C 
HETATM   12  N   UNL     1      40.073 -14.278   0.608  1.00  0.00    -0.348 N 
HETATM   13  H   UNL     1      39.584 -15.145   0.820  1.00  0.00     0.163 HD
HETATM   14  O   UNL     1      41.818 -12.929   1.365  1.00  0.00    -0.262 OA
BRANCH  12  15
HETATM   15  C   UNL     1      39.765 -13.598  -0.645  1.00  0.00     0.085 C 
HETATM   16  C   UNL     1      38.814 -12.426  -0.356  1.00  0.00     0.034 C 
HETATM   17  C   UNL     1      38.326 -11.683  -1.618  1.00  0.00    -0.045 C 
HETATM   18  C   UNL     1      39.472 -10.865  -2.242  1.00  0.00     0.015 C 
HETATM   19  C   UNL     1      37.208 -10.702  -1.215  1.00  0.00     0.015 C 
HETATM   20  C   UNL     1      37.757 -12.697  -2.637  1.00  0.00     0.013 C 
HETATM   21  C   UNL     1      38.715 -13.858  -2.946  1.00  0.00    -0.016 C 
HETATM   22  C   UNL     1      38.059 -14.846  -3.910  1.00  0.00     0.010 C 
HETATM   23  C   UNL     1      39.150 -14.570  -1.657  1.00  0.00     0.029 C 
ENDBRANCH  12  15
ENDBRANCH   8  11
ENDBRANCH   6   7
BRANCH   1  24
HETATM   24  C   UNL     1      42.842 -13.571   6.109  1.00  0.00     0.732 A 
HETATM   25  N   UNL     1      43.887 -13.184   6.891  1.00  0.00    -0.152 N 
HETATM   26  C   UNL     1      44.019 -11.900   7.312  1.00  0.00     0.268 A 
HETATM   27  H   UNL     1      44.598 -13.857   7.159  1.00  0.00     0.188 HD
HETATM   28  C   UNL     1      42.938 -10.971   6.873  1.00  0.00     0.035 A 
HETATM   29  O   UNL     1      44.965 -11.541   8.001  1.00  0.00    -0.267 OA
HETATM   30  C   UNL     1      41.946 -11.482   6.107  1.00  0.00     0.061 A 
HETATM   31  N   UNL     1      41.883 -12.805   5.701  1.00  0.00    -0.067 NA
HETATM   32  C   UNL     1      40.805 -10.645   5.585  1.00  0.00     0.072 C 
BRANCH  28  33
HETATM   33  C   UNL     1      43.055  -9.556   7.378  1.00  0.00     0.042 C 
HETATM   34  C   UNL     1      42.324  -9.360   8.699  1.00  0.00     0.010 C 
ENDBRANCH  28  33
ENDBRANCH   1  24
TORSDOF 5
ENDMDL
MODEL 8
REMARK VINA RESULT:      -8.1      2.440      3.445
REMARK  5 active torsions:
REMARK  status: ('A' for Active; 'I' for Inactive)
REMARK    1  A    between atoms: C_2  and  C_3 
REMARK    2  A    between atoms: C_7  and  N_8 
REMARK    3  A    between atoms: C_13  and  N_14 
REMARK       I    between atoms: N_14  and  C_15 
REMARK    4  A    between atoms: C_15  and  C_16 
REMARK       I    between atoms: C_16  and  N_17 
REMARK    5  A    between atoms: N_17  and  C_18 
ROOT
HETATM    1  N   UNL     1      40.182 -13.076   3.591  1.00  0.00    -0.045 N 
HETATM    2  N   UNL     1      39.167 -13.139   2.681  1.00  0.00    -0.156 NA
HETATM    3  C   UNL     1      38.774 -11.869   2.537  1.00  0.00     0.055 A 
HETATM    4  C   UNL     1      37.661 -11.518   1.620  1.00  0.00     0.072 C 
HETATM    5  C   UNL     1      39.535 -10.989   3.340  1.00  0.00     0.079 A 
HETATM    6  C   UNL     1      40.435 -11.781   4.015  1.00  0.00     0.152 A 
ENDROOT
BRANCH   6   7
HETATM    7  N   UNL     1      41.402 -11.403   4.944  1.00  0.00    -0.303 N 
HETATM    8  C   UNL     1      42.804 -11.347   4.665  1.00  0.00     0.315 C 
HETATM    9  O   UNL     1      43.290 -11.688   3.598  1.00  0.00    -0.262 OA
HETATM   10  H   UNL     1      41.093 -11.147   5.889  1.00  0.00     0.171 HD
BRANCH   8  11
HETATM   11  C   UNL     1      43.688 -10.820   5.810  1.00  0.00     0.310 C 
HETATM   12  N   UNL     1      43.019 -10.008   6.702  1.00  0.00    -0.348 N 
HETATM   13  H   UNL     1      42.056  -9.767   6.478  1.00  0.00     0.163 HD
HETATM   14  O   UNL     1      44.863 -11.155   5.852  1.00  0.00    -0.262 OA
BRANCH  12  15
HETATM   15  C   UNL     1      43.635  -9.386   7.869  1.00  0.00     0.085 C 
HETATM   16  C   UNL     1      43.497 -10.333   9.071  1.00  0.00     0.034 C 
HETATM   17  C   UNL     1      44.019  -9.748  10.400  1.00  0.00    -0.045 C 
HETATM   18  C   UNL     1      45.557  -9.661  10.387  1.00  0.00     0.015 C 
HETATM   19  C   UNL     1      43.607 -10.686  11.551  1.00  0.00     0.015 C 
HETATM   20  C   UNL     1      43.393  -8.355  10.641  1.00  0.00     0.013 C 
HETATM   21  C   UNL     1      43.551  -7.397   9.451  1.00  0.00    -0.016 C 
HETATM   22  C   UNL     1      42.855  -6.068   9.743  1.00  0.00     0.010 C 
HETATM   23  C   UNL     1      42.997  -8.025   8.164  1.00  0.00     0.029 C 
ENDBRANCH  12  15
ENDBRANCH   8  11
ENDBRANCH   6   7
BRANCH   1  24
HETATM   24  C   UNL     1      40.845 -14.246   3.986  1.00  0.00     0.732 A 
HETATM   25  N   UNL     1      40.480 -14.633   5.239  1.00  0.00    -0.152 N 
HETATM   26  C   UNL     1      40.988 -15.754   5.810  1.00  0.00     0.268 A 
HETATM   27  H   UNL     1      39.802 -14.088   5.763  1.00  0.00     0.188 HD
HETATM   28  C   UNL     1      41.973 -16.504   4.978  1.00  0.00     0.035 A 
HETATM   29  O   UNL     1      40.651 -16.119   6.930  1.00  0.00    -0.267 OA
HETATM   30  C   UNL     1      42.262 -16.009   3.752  1.00  0.00     0.061 A 
HETATM   31  N   UNL     1      41.692 -14.861   3.226  1.00  0.00    -0.067 NA
HETATM   32  C   UNL     1      43.227 -16.680   2.808  1.00  0.00     0.072 C 
BRANCH  28  33
HETATM   33  C   UNL     1      42.575 -17.723   5.627  1.00  0.00     0.042 C 
HETATM   34  C   UNL     1      43.824 -17.384   6.429  1.00  0.00     0.010 C 
ENDBRANCH  28  33
ENDBRANCH   1  24
TORSDOF 5
ENDMDL
MODEL 9
REMARK VINA RESULT:      -8.1      2.154      5.276
REMARK  5 active torsions:
REMARK  status: ('A' for Active; 'I' for Inactive)
REMARK    1  A    between atoms: C_2  and  C_3 
REMARK    2  A    between atoms: C_7  and  N_8 
REMARK    3  A    between atoms: C_13  and  N_14 
REMARK       I    between atoms: N_14  and  C_15 
REMARK    4  A    between atoms: C_15  and  C_16 
REMARK       I    between atoms: C_16  and  N_17 
REMARK    5  A    between atoms: N_17  and  C_18 
ROOT
HETATM    1  N   UNL     1      41.782 -15.120   2.093  1.00  0.00    -0.045 N 
HETATM    2  N   UNL     1      41.869 -16.442   1.772  1.00  0.00    -0.156 NA
HETATM    3  C   UNL     1      42.775 -16.930   2.625  1.00  0.00     0.055 A 
HETATM    4  C   UNL     1      43.160 -18.364   2.586  1.00  0.00     0.072 C 
HETATM    5  C   UNL     1      43.265 -15.934   3.500  1.00  0.00     0.079 A 
HETATM    6  C   UNL     1      42.619 -14.772   3.143  1.00  0.00     0.152 A 
ENDROOT
BRANCH   6   7
HETATM    7  N   UNL     1      42.756 -13.497   3.687  1.00  0.00    -0.303 N 
HETATM    8  C   UNL     1      42.097 -13.058   4.878  1.00  0.00     0.315 C 
HETATM    9  O   UNL     1      41.300 -13.746   5.496  1.00  0.00    -0.262 OA
HETATM   10  H   UNL     1      43.368 -12.828   3.206  1.00  0.00     0.171 HD
BRANCH   8  11
HETATM   11  C   UNL     1      42.457 -11.637   5.350  1.00  0.00     0.310 C 
HETATM   12  N   UNL     1      42.762 -11.557   6.693  1.00  0.00    -0.348 N 
HETATM   13  H   UNL     1      42.639 -12.400   7.249  1.00  0.00     0.163 HD
HETATM   14  O   UNL     1      42.458 -10.726   4.536  1.00  0.00    -0.262 OA
BRANCH  12  15
HETATM   15  C   UNL     1      43.134 -10.324   7.378  1.00  0.00     0.085 C 
HETATM   16  C   UNL     1      44.094 -10.663   8.530  1.00  0.00     0.034 C 
HETATM   17  C   UNL     1      44.484  -9.452   9.404  1.00  0.00    -0.045 C 
HETATM   18  C   UNL     1      45.422  -8.506   8.631  1.00  0.00     0.015 C 
HETATM   19  C   UNL     1      45.242  -9.960  10.646  1.00  0.00     0.015 C 
HETATM   20  C   UNL     1      43.211  -8.707   9.866  1.00  0.00     0.013 C 
HETATM   21  C   UNL     1      42.261  -8.345   8.714  1.00  0.00    -0.016 C 
HETATM   22  C   UNL     1      41.002  -7.668   9.257  1.00  0.00     0.010 C 
HETATM   23  C   UNL     1      41.892  -9.590   7.894  1.00  0.00     0.029 C 
ENDBRANCH  12  15
ENDBRANCH   8  11
ENDBRANCH   6   7
BRANCH   1  24
HETATM   24  C   UNL     1      40.907 -14.281   1.390  1.00  0.00     0.732 A 
HETATM   25  N   UNL     1      40.929 -14.537   0.052  1.00  0.00    -0.152 N 
HETATM   26  C   UNL     1      40.140 -13.853  -0.814  1.00  0.00     0.268 A 
HETATM   27  H   UNL     1      41.534 -15.266  -0.316  1.00  0.00     0.188 HD
HETATM   28  C   UNL     1      39.277 -12.805  -0.197  1.00  0.00     0.035 A 
HETATM   29  O   UNL     1      40.141 -14.090  -2.015  1.00  0.00    -0.267 OA
HETATM   30  C   UNL     1      39.355 -12.637   1.143  1.00  0.00     0.061 A 
HETATM   31  N   UNL     1      40.177 -13.385   1.971  1.00  0.00    -0.067 NA
HETATM   32  C   UNL     1      38.524 -11.623   1.890  1.00  0.00     0.072 C 
BRANCH  28  33
HETATM   33  C   UNL     1      38.434 -12.010  -1.161  1.00  0.00     0.042 C 
HETATM   34  C   UNL     1      39.163 -10.773  -1.668  1.00  0.00     0.010 C 
ENDBRANCH  28  33
ENDBRANCH   1  24
TORSDOF 5
ENDMDL
MODEL 10
REMARK VINA RESULT:      -8.0      3.269      8.443
REMARK  5 active torsions:
REMARK  status: ('A' for Active; 'I' for Inactive)
REMARK    1  A    between atoms: C_2  and  C_3 
REMARK    2  A    between atoms: C_7  and  N_8 
REMARK    3  A    between atoms: C_13  and  N_14 
REMARK       I    between atoms: N_14  and  C_15 
REMARK    4  A    between atoms: C_15  and  C_16 
REMARK       I    between atoms: C_16  and  N_17 
REMARK    5  A    between atoms: N_17  and  C_18 
ROOT
HETATM    1  N   UNL     1      42.604 -15.510   3.423  1.00  0.00    -0.045 N 
HETATM    2  N   UNL     1      43.223 -16.490   4.140  1.00  0.00    -0.156 NA
HETATM    3  C   UNL     1      43.540 -17.416   3.229  1.00  0.00     0.055 A 
HETATM    4  C   UNL     1      44.233 -18.668   3.627  1.00  0.00     0.072 C 
HETATM    5  C   UNL     1      43.138 -17.034   1.929  1.00  0.00     0.079 A 
HETATM    6  C   UNL     1      42.534 -15.806   2.070  1.00  0.00     0.152 A 
ENDROOT
BRANCH   6   7
HETATM    7  N   UNL     1      41.953 -15.004   1.090  1.00  0.00    -0.303 N 
HETATM    8  C   UNL     1      40.557 -15.008   0.774  1.00  0.00     0.315 C 
HETATM    9  O   UNL     1      39.753 -15.763   1.296  1.00  0.00    -0.262 OA
HETATM   10  H   UNL     1      42.560 -14.370   0.559  1.00  0.00     0.171 HD
BRANCH   8  11
HETATM   11  C   UNL     1      40.115 -13.981  -0.284  1.00  0.00     0.310 C 
HETATM   12  N   UNL     1      39.685 -12.782   0.247  1.00  0.00    -0.348 N 
HETATM   13  H   UNL     1      39.618 -12.721   1.261  1.00  0.00     0.163 HD
HETATM   14  O   UNL     1      40.184 -14.282  -1.467  1.00  0.00    -0.262 OA
BRANCH  12  15
HETATM   15  C   UNL     1      39.216 -11.652  -0.547  1.00  0.00     0.085 C 
HETATM   16  C   UNL     1      37.925 -12.056  -1.277  1.00  0.00     0.034 C 
HETATM   17  C   UNL     1      37.379 -10.979  -2.238  1.00  0.00    -0.045 C 
HETATM   18  C   UNL     1      36.801  -9.790  -1.447  1.00  0.00     0.015 C 
HETATM   19  C   UNL     1      36.239 -11.591  -3.074  1.00  0.00     0.015 C 
HETATM   20  C   UNL     1      38.502 -10.510  -3.191  1.00  0.00     0.013 C 
HETATM   21  C   UNL     1      39.786 -10.082  -2.464  1.00  0.00    -0.016 C 
HETATM   22  C   UNL     1      40.864  -9.692  -3.474  1.00  0.00     0.010 C 
HETATM   23  C   UNL     1      40.291 -11.199  -1.540  1.00  0.00     0.029 C 
ENDBRANCH  12  15
ENDBRANCH   8  11
ENDBRANCH   6   7
BRANCH   1  24
HETATM   24  C   UNL     1      42.132 -14.358   4.067  1.00  0.00     0.732 A 
HETATM   25  N   UNL     1      41.159 -14.652   4.973  1.00  0.00    -0.152 N 
HETATM   26  C   UNL     1      40.576 -13.684   5.726  1.00  0.00     0.268 A 
HETATM   27  H   UNL     1      40.864 -15.614   5.110  1.00  0.00     0.188 HD
HETATM   28  C   UNL     1      41.065 -12.299   5.472  1.00  0.00     0.035 A 
HETATM   29  O   UNL     1      39.714 -13.943   6.555  1.00  0.00    -0.267 OA
HETATM   30  C   UNL     1      42.028 -12.136   4.536  1.00  0.00     0.061 A 
HETATM   31  N   UNL     1      42.590 -13.176   3.813  1.00  0.00    -0.067 NA
HETATM   32  C   UNL     1      42.619 -10.790   4.197  1.00  0.00     0.072 C 
BRANCH  28  33
HETATM   33  C   UNL     1      40.388 -11.216   6.271  1.00  0.00     0.042 C 
HETATM   34  C   UNL     1      39.162 -10.662   5.557  1.00  0.00     0.010 C 
ENDBRANCH  28  33
ENDBRANCH   1  24
TORSDOF 5
ENDMDL
