MODEL 1
REMARK VINA RESULT:      -9.0      0.000      0.000
REMARK  4 active torsions:
REMARK  status: ('A' for Active; 'I' for Inactive)
REMARK    1  A    between atoms: C_4  and  O_5 
REMARK    2  A    between atoms: C_6  and  N_7 
REMARK       I    between atoms: N_7  and  C_8 
REMARK    3  A    between atoms: C_8  and  C_9 
REMARK    4  A    between atoms: C_9  and  N_10 
ROOT
HETATM    1  N   UNL     1      41.127 -13.176   3.325  1.00  0.00    -0.259 N 
HETATM    2  C   UNL     1      39.801 -12.887   3.206  1.00  0.00     0.326 C 
HETATM    3  O   UNL     1      39.039 -12.521   4.083  1.00  0.00    -0.247 OA
HETATM    4  N   UNL     1      39.421 -13.111   1.904  1.00  0.00    -0.320 N 
HETATM    5  C   UNL     1      40.465 -13.750   1.152  1.00  0.00     0.144 C 
HETATM    6  C   UNL     1      40.612 -13.209  -0.235  1.00  0.00    -0.014 A 
HETATM    7  C   UNL     1      40.081 -14.118  -1.164  1.00  0.00    -0.049 A 
HETATM    8  C   UNL     1      40.056 -13.832  -2.518  1.00  0.00     0.007 A 
HETATM    9  C   UNL     1      40.581 -12.612  -2.946  1.00  0.00     0.001 A 
HETATM   10  C   UNL     1      41.106 -11.698  -2.021  1.00  0.00     0.001 A 
HETATM   11  C   UNL     1      41.118 -11.990  -0.653  1.00  0.00     0.011 A 
HETATM   12  C   UNL     1      39.524 -15.331  -0.486  1.00  0.00     0.042 C 
HETATM   13  C   UNL     1      40.180 -15.245   0.899  1.00  0.00     0.051 C 
HETATM   14  C   UNL     1      41.635 -13.592   2.125  1.00  0.00     0.261 C 
HETATM   15  O   UNL     1      42.818 -13.842   1.923  1.00  0.00    -0.270 OA
HETATM   16  H   UNL     1      38.460 -13.003   1.607  1.00  0.00     0.165 HD
ENDROOT
BRANCH   1  17
HETATM   17  C   UNL     1      41.846 -13.205   4.579  1.00  0.00     0.240 C 
BRANCH  17  18
HETATM   18  C   UNL     1      41.942 -14.588   5.216  1.00  0.00     0.240 C 
HETATM   19  N   UNL     1      43.120 -15.256   4.951  1.00  0.00    -0.323 N 
HETATM   20  H   UNL     1      43.892 -14.688   4.600  1.00  0.00     0.169 HD
HETATM   21  O   UNL     1      40.989 -15.069   5.826  1.00  0.00    -0.271 OA
BRANCH  19  22
HETATM   22  C   UNL     1      43.407 -16.636   5.115  1.00  0.00     0.068 A 
HETATM   23  C   UNL     1      43.275 -17.390   6.292  1.00  0.00     0.092 A 
HETATM   24  C   UNL     1      43.509 -18.770   6.291  1.00  0.00     0.045 A 
HETATM   25  C   UNL     1      43.892 -19.435   5.124  1.00  0.00    -0.059 A 
HETATM   26  C   UNL     1      44.175 -20.907   5.154  1.00  0.00     0.048 C 
HETATM   27  C   UNL     1      44.051 -18.692   3.954  1.00  0.00     0.009 A 
HETATM   28  C   UNL     1      43.794 -17.315   3.948  1.00  0.00     0.033 A 
BRANCH  23  29
HETATM   29  O   UNL     1      42.872 -16.903   7.503  1.00  0.00    -0.358 OA
HETATM   30  H   UNL     1      41.932 -17.147   7.633  1.00  0.00     0.218 HD
ENDBRANCH  23  29
ENDBRANCH  19  22
ENDBRANCH  17  18
ENDBRANCH   1  17
TORSDOF 4
ENDMDL
MODEL 2
REMARK VINA RESULT:      -8.9      5.145      7.634
REMARK  4 active torsions:
REMARK  status: ('A' for Active; 'I' for Inactive)
REMARK    1  A    between atoms: C_4  and  O_5 
REMARK    2  A    between atoms: C_6  and  N_7 
REMARK       I    between atoms: N_7  and  C_8 
REMARK    3  A    between atoms: C_8  and  C_9 
REMARK    4  A    between atoms: C_9  and  N_10 
ROOT
HETATM    1  N   UNL     1      42.154 -11.658   5.689  1.00  0.00    -0.259 N 
HETATM    2  C   UNL     1      41.009 -12.371   5.875  1.00  0.00     0.326 C 
HETATM    3  O   UNL     1      39.961 -11.983   6.360  1.00  0.00    -0.247 OA
HETATM    4  N   UNL     1      41.225 -13.661   5.449  1.00  0.00    -0.320 N 
HETATM    5  C   UNL     1      42.609 -13.890   5.138  1.00  0.00     0.144 C 
HETATM    6  C   UNL     1      42.812 -14.712   3.906  1.00  0.00    -0.014 A 
HETATM    7  C   UNL     1      43.199 -16.015   4.255  1.00  0.00    -0.049 A 
HETATM    8  C   UNL     1      43.408 -16.987   3.293  1.00  0.00     0.007 A 
HETATM    9  C   UNL     1      43.229 -16.640   1.954  1.00  0.00     0.001 A 
HETATM   10  C   UNL     1      42.835 -15.342   1.599  1.00  0.00     0.001 A 
HETATM   11  C   UNL     1      42.617 -14.367   2.578  1.00  0.00     0.011 A 
HETATM   12  C   UNL     1      43.276 -16.183   5.741  1.00  0.00     0.042 C 
HETATM   13  C   UNL     1      43.326 -14.725   6.219  1.00  0.00     0.051 C 
HETATM   14  C   UNL     1      43.130 -12.451   5.151  1.00  0.00     0.261 C 
HETATM   15  O   UNL     1      44.236 -12.051   4.807  1.00  0.00    -0.270 OA
HETATM   16  H   UNL     1      40.514 -14.375   5.541  1.00  0.00     0.165 HD
ENDROOT
BRANCH   1  17
HETATM   17  C   UNL     1      42.357 -10.305   6.158  1.00  0.00     0.240 C 
BRANCH  17  18
HETATM   18  C   UNL     1      42.972 -10.209   7.550  1.00  0.00     0.240 C 
HETATM   19  N   UNL     1      42.087  -9.830   8.539  1.00  0.00    -0.323 N 
HETATM   20  H   UNL     1      41.095  -9.910   8.311  1.00  0.00     0.169 HD
HETATM   21  O   UNL     1      44.180 -10.369   7.718  1.00  0.00    -0.271 OA
BRANCH  19  22
HETATM   22  C   UNL     1      42.375  -9.354   9.844  1.00  0.00     0.068 A 
HETATM   23  C   UNL     1      43.043 -10.047  10.866  1.00  0.00     0.092 A 
HETATM   24  C   UNL     1      43.340  -9.423  12.083  1.00  0.00     0.045 A 
HETATM   25  C   UNL     1      42.971  -8.097  12.321  1.00  0.00    -0.059 A 
HETATM   26  C   UNL     1      43.264  -7.459  13.646  1.00  0.00     0.048 C 
HETATM   27  C   UNL     1      42.282  -7.405  11.323  1.00  0.00     0.009 A 
HETATM   28  C   UNL     1      42.005  -8.022  10.096  1.00  0.00     0.033 A 
BRANCH  23  29
HETATM   29  O   UNL     1      43.507 -11.329  10.780  1.00  0.00    -0.358 OA
HETATM   30  H   UNL     1      44.302 -11.329  10.207  1.00  0.00     0.218 HD
ENDBRANCH  23  29
ENDBRANCH  19  22
ENDBRANCH  17  18
ENDBRANCH   1  17
TORSDOF 4
ENDMDL
MODEL 3
REMARK VINA RESULT:      -8.9      3.362      6.337
REMARK  4 active torsions:
REMARK  status: ('A' for Active; 'I' for Inactive)
REMARK    1  A    between atoms: C_4  and  O_5 
REMARK    2  A    between atoms: C_6  and  N_7 
REMARK       I    between atoms: N_7  and  C_8 
REMARK    3  A    between atoms: C_8  and  C_9 
REMARK    4  A    between atoms: C_9  and  N_10 
ROOT
HETATM    1  N   UNL     1      42.271 -12.681   4.590  1.00  0.00    -0.259 N 
HETATM    2  C   UNL     1      41.928 -13.217   5.795  1.00  0.00     0.326 C 
HETATM    3  O   UNL     1      41.306 -14.244   6.001  1.00  0.00    -0.247 OA
HETATM    4  N   UNL     1      42.374 -12.377   6.789  1.00  0.00    -0.320 N 
HETATM    5  C   UNL     1      42.869 -11.140   6.252  1.00  0.00     0.144 C 
HETATM    6  C   UNL     1      44.114 -10.659   6.926  1.00  0.00    -0.014 A 
HETATM    7  C   UNL     1      43.816  -9.583   7.777  1.00  0.00    -0.049 A 
HETATM    8  C   UNL     1      44.793  -8.984   8.552  1.00  0.00     0.007 A 
HETATM    9  C   UNL     1      46.097  -9.472   8.464  1.00  0.00     0.001 A 
HETATM   10  C   UNL     1      46.400 -10.551   7.620  1.00  0.00     0.001 A 
HETATM   11  C   UNL     1      45.405 -11.157   6.848  1.00  0.00     0.011 A 
HETATM   12  C   UNL     1      42.353  -9.262   7.759  1.00  0.00     0.042 C 
HETATM   13  C   UNL     1      41.893  -9.967   6.476  1.00  0.00     0.051 C 
HETATM   14  C   UNL     1      42.935 -11.497   4.766  1.00  0.00     0.261 C 
HETATM   15  O   UNL     1      43.428 -10.839   3.857  1.00  0.00    -0.270 OA
HETATM   16  H   UNL     1      42.182 -12.564   7.764  1.00  0.00     0.165 HD
ENDROOT
BRANCH   1  17
HETATM   17  C   UNL     1      41.840 -13.203   3.313  1.00  0.00     0.240 C 
BRANCH  17  18
HETATM   18  C   UNL     1      42.602 -14.442   2.852  1.00  0.00     0.240 C 
HETATM   19  N   UNL     1      42.111 -15.630   3.354  1.00  0.00    -0.323 N 
HETATM   20  H   UNL     1      41.169 -15.600   3.747  1.00  0.00     0.169 HD
HETATM   21  O   UNL     1      43.619 -14.340   2.169  1.00  0.00    -0.271 OA
BRANCH  19  22
HETATM   22  C   UNL     1      42.742 -16.901   3.385  1.00  0.00     0.068 A 
HETATM   23  C   UNL     1      43.540 -17.421   4.417  1.00  0.00     0.092 A 
HETATM   24  C   UNL     1      44.030 -18.730   4.357  1.00  0.00     0.045 A 
HETATM   25  C   UNL     1      43.751 -19.554   3.264  1.00  0.00    -0.059 A 
HETATM   26  C   UNL     1      44.317 -20.941   3.201  1.00  0.00     0.048 C 
HETATM   27  C   UNL     1      42.981 -19.040   2.219  1.00  0.00     0.009 A 
HETATM   28  C   UNL     1      42.470 -17.737   2.290  1.00  0.00     0.033 A 
BRANCH  23  29
HETATM   29  O   UNL     1      43.871 -16.765   5.569  1.00  0.00    -0.358 OA
HETATM   30  H   UNL     1      44.845 -16.794   5.668  1.00  0.00     0.218 HD
ENDBRANCH  23  29
ENDBRANCH  19  22
ENDBRANCH  17  18
ENDBRANCH   1  17
TORSDOF 4
ENDMDL
MODEL 4
REMARK VINA RESULT:      -8.8      1.779      2.506
REMARK  4 active torsions:
REMARK  status: ('A' for Active; 'I' for Inactive)
REMARK    1  A    between atoms: C_4  and  O_5 
REMARK    2  A    between atoms: C_6  and  N_7 
REMARK       I    between atoms: N_7  and  C_8 
REMARK    3  A    between atoms: C_8  and  C_9 
REMARK    4  A    between atoms: C_9  and  N_10 
ROOT
HETATM    1  N   UNL     1      41.154 -12.706   2.998  1.00  0.00    -0.259 N 
HETATM    2  C   UNL     1      41.797 -11.828   2.180  1.00  0.00     0.326 C 
HETATM    3  O   UNL     1      42.841 -11.237   2.397  1.00  0.00    -0.247 OA
HETATM    4  N   UNL     1      41.050 -11.668   1.036  1.00  0.00    -0.320 N 
HETATM    5  C   UNL     1      39.768 -12.308   1.150  1.00  0.00     0.144 C 
HETATM    6  C   UNL     1      39.347 -13.016  -0.097  1.00  0.00    -0.014 A 
HETATM    7  C   UNL     1      38.353 -12.276  -0.758  1.00  0.00    -0.049 A 
HETATM    8  C   UNL     1      37.824 -12.698  -1.965  1.00  0.00     0.007 A 
HETATM    9  C   UNL     1      38.299 -13.889  -2.515  1.00  0.00     0.001 A 
HETATM   10  C   UNL     1      39.296 -14.628  -1.862  1.00  0.00     0.001 A 
HETATM   11  C   UNL     1      39.833 -14.191  -0.647  1.00  0.00     0.011 A 
HETATM   12  C   UNL     1      38.035 -11.011  -0.024  1.00  0.00     0.042 C 
HETATM   13  C   UNL     1      38.623 -11.297   1.364  1.00  0.00     0.051 C 
HETATM   14  C   UNL     1      39.990 -13.132   2.420  1.00  0.00     0.261 C 
HETATM   15  O   UNL     1      39.251 -13.985   2.899  1.00  0.00    -0.270 OA
HETATM   16  H   UNL     1      41.324 -11.019   0.311  1.00  0.00     0.165 HD
ENDROOT
BRANCH   1  17
HETATM   17  C   UNL     1      41.560 -13.007   4.353  1.00  0.00     0.240 C 
BRANCH  17  18
HETATM   18  C   UNL     1      41.856 -14.481   4.607  1.00  0.00     0.240 C 
HETATM   19  N   UNL     1      42.902 -14.988   3.863  1.00  0.00    -0.323 N 
HETATM   20  H   UNL     1      43.526 -14.303   3.435  1.00  0.00     0.169 HD
HETATM   21  O   UNL     1      41.138 -15.150   5.349  1.00  0.00    -0.271 OA
BRANCH  19  22
HETATM   22  C   UNL     1      43.235 -16.346   3.623  1.00  0.00     0.068 A 
HETATM   23  C   UNL     1      43.993 -17.188   4.452  1.00  0.00     0.092 A 
HETATM   24  C   UNL     1      44.172 -18.539   4.134  1.00  0.00     0.045 A 
HETATM   25  C   UNL     1      43.611 -19.088   2.978  1.00  0.00    -0.059 A 
HETATM   26  C   UNL     1      43.847 -20.528   2.636  1.00  0.00     0.048 C 
HETATM   27  C   UNL     1      42.877 -18.255   2.132  1.00  0.00     0.009 A 
HETATM   28  C   UNL     1      42.678 -16.908   2.461  1.00  0.00     0.033 A 
BRANCH  23  29
HETATM   29  O   UNL     1      44.572 -16.822   5.634  1.00  0.00    -0.358 OA
HETATM   30  H   UNL     1      44.948 -17.624   6.051  1.00  0.00     0.218 HD
ENDBRANCH  23  29
ENDBRANCH  19  22
ENDBRANCH  17  18
ENDBRANCH   1  17
TORSDOF 4
ENDMDL
MODEL 5
REMARK VINA RESULT:      -8.8      3.318      6.637
REMARK  4 active torsions:
REMARK  status: ('A' for Active; 'I' for Inactive)
REMARK    1  A    between atoms: C_4  and  O_5 
REMARK    2  A    between atoms: C_6  and  N_7 
REMARK       I    between atoms: N_7  and  C_8 
REMARK    3  A    between atoms: C_8  and  C_9 
REMARK    4  A    between atoms: C_9  and  N_10 
ROOT
HETATM    1  N   UNL     1      41.647 -13.385   3.923  1.00  0.00    -0.259 N 
HETATM    2  C   UNL     1      40.840 -14.094   4.760  1.00  0.00     0.326 C 
HETATM    3  O   UNL     1      39.793 -13.732   5.267  1.00  0.00    -0.247 OA
HETATM    4  N   UNL     1      41.420 -15.320   4.990  1.00  0.00    -0.320 N 
HETATM    5  C   UNL     1      42.750 -15.385   4.450  1.00  0.00     0.144 C 
HETATM    6  C   UNL     1      43.058 -16.692   3.791  1.00  0.00    -0.014 A 
HETATM    7  C   UNL     1      43.900 -17.458   4.613  1.00  0.00    -0.049 A 
HETATM    8  C   UNL     1      44.299 -18.732   4.248  1.00  0.00     0.007 A 
HETATM    9  C   UNL     1      43.847 -19.242   3.032  1.00  0.00     0.001 A 
HETATM   10  C   UNL     1      42.999 -18.485   2.210  1.00  0.00     0.001 A 
HETATM   11  C   UNL     1      42.593 -17.202   2.590  1.00  0.00     0.011 A 
HETATM   12  C   UNL     1      44.216 -16.742   5.890  1.00  0.00     0.042 C 
HETATM   13  C   UNL     1      43.835 -15.297   5.542  1.00  0.00     0.051 C 
HETATM   14  C   UNL     1      42.756 -14.117   3.594  1.00  0.00     0.261 C 
HETATM   15  O   UNL     1      43.611 -13.756   2.794  1.00  0.00    -0.270 OA
HETATM   16  H   UNL     1      41.007 -15.990   5.626  1.00  0.00     0.165 HD
ENDROOT
BRANCH   1  17
HETATM   17  C   UNL     1      41.443 -11.997   3.575  1.00  0.00     0.240 C 
BRANCH  17  18
HETATM   18  C   UNL     1      42.158 -11.009   4.491  1.00  0.00     0.240 C 
HETATM   19  N   UNL     1      43.025 -11.594   5.391  1.00  0.00    -0.323 N 
HETATM   20  H   UNL     1      43.301 -12.556   5.193  1.00  0.00     0.169 HD
HETATM   21  O   UNL     1      41.886  -9.810   4.462  1.00  0.00    -0.271 OA
BRANCH  19  22
HETATM   22  C   UNL     1      43.598 -11.026   6.558  1.00  0.00     0.068 A 
HETATM   23  C   UNL     1      42.920 -10.360   7.592  1.00  0.00     0.092 A 
HETATM   24  C   UNL     1      43.601  -9.925   8.735  1.00  0.00     0.045 A 
HETATM   25  C   UNL     1      44.976 -10.128   8.875  1.00  0.00    -0.059 A 
HETATM   26  C   UNL     1      45.694  -9.620  10.090  1.00  0.00     0.048 C 
HETATM   27  C   UNL     1      45.666 -10.765   7.842  1.00  0.00     0.009 A 
HETATM   28  C   UNL     1      44.981 -11.222   6.709  1.00  0.00     0.033 A 
BRANCH  23  29
HETATM   29  O   UNL     1      41.577 -10.119   7.630  1.00  0.00    -0.358 OA
HETATM   30  H   UNL     1      41.159 -10.802   8.195  1.00  0.00     0.218 HD
ENDBRANCH  23  29
ENDBRANCH  19  22
ENDBRANCH  17  18
ENDBRANCH   1  17
TORSDOF 4
ENDMDL
MODEL 6
REMARK VINA RESULT:      -8.8      1.791      6.960
REMARK  4 active torsions:
REMARK  status: ('A' for Active; 'I' for Inactive)
REMARK    1  A    between atoms: C_4  and  O_5 
REMARK    2  A    between atoms: C_6  and  N_7 
REMARK       I    between atoms: N_7  and  C_8 
REMARK    3  A    between atoms: C_8  and  C_9 
REMARK    4  A    between atoms: C_9  and  N_10 
ROOT
HETATM    1  N   UNL     1      41.365 -13.545   4.986  1.00  0.00    -0.259 N 
HETATM    2  C   UNL     1      40.770 -14.431   5.832  1.00  0.00     0.326 C 
HETATM    3  O   UNL     1      39.803 -14.241   6.548  1.00  0.00    -0.247 OA
HETATM    4  N   UNL     1      41.472 -15.614   5.789  1.00  0.00    -0.320 N 
HETATM    5  C   UNL     1      42.689 -15.479   5.037  1.00  0.00     0.144 C 
HETATM    6  C   UNL     1      42.975 -16.653   4.158  1.00  0.00    -0.014 A 
HETATM    7  C   UNL     1      44.002 -17.432   4.715  1.00  0.00    -0.049 A 
HETATM    8  C   UNL     1      44.426 -18.604   4.113  1.00  0.00     0.007 A 
HETATM    9  C   UNL     1      43.810 -18.996   2.925  1.00  0.00     0.001 A 
HETATM   10  C   UNL     1      42.778 -18.226   2.368  1.00  0.00     0.001 A 
HETATM   11  C   UNL     1      42.349 -17.049   2.987  1.00  0.00     0.011 A 
HETATM   12  C   UNL     1      44.480 -16.859   6.014  1.00  0.00     0.042 C 
HETATM   13  C   UNL     1      43.937 -15.425   5.941  1.00  0.00     0.051 C 
HETATM   14  C   UNL     1      42.451 -14.117   4.382  1.00  0.00     0.261 C 
HETATM   15  O   UNL     1      43.126 -13.574   3.514  1.00  0.00    -0.270 OA
HETATM   16  H   UNL     1      41.226 -16.397   6.381  1.00  0.00     0.165 HD
ENDROOT
BRANCH   1  17
HETATM   17  C   UNL     1      41.000 -12.150   4.878  1.00  0.00     0.240 C 
BRANCH  17  18
HETATM   18  C   UNL     1      40.656 -11.700   3.462  1.00  0.00     0.240 C 
HETATM   19  N   UNL     1      40.037 -12.664   2.693  1.00  0.00    -0.323 N 
HETATM   20  H   UNL     1      39.641 -13.459   3.197  1.00  0.00     0.169 HD
HETATM   21  O   UNL     1      41.003 -10.595   3.049  1.00  0.00    -0.271 OA
BRANCH  19  22
HETATM   22  C   UNL     1      39.868 -12.693   1.284  1.00  0.00     0.068 A 
HETATM   23  C   UNL     1      40.665 -13.377   0.352  1.00  0.00     0.092 A 
HETATM   24  C   UNL     1      40.330 -13.391  -1.007  1.00  0.00     0.045 A 
HETATM   25  C   UNL     1      39.201 -12.718  -1.478  1.00  0.00    -0.059 A 
HETATM   26  C   UNL     1      38.881 -12.714  -2.943  1.00  0.00     0.048 C 
HETATM   27  C   UNL     1      38.415 -12.012  -0.565  1.00  0.00     0.009 A 
HETATM   28  C   UNL     1      38.736 -12.016   0.799  1.00  0.00     0.033 A 
BRANCH  23  29
HETATM   29  O   UNL     1      41.774 -14.115   0.651  1.00  0.00    -0.358 OA
HETATM   30  H   UNL     1      41.495 -14.880   1.197  1.00  0.00     0.218 HD
ENDBRANCH  23  29
ENDBRANCH  19  22
ENDBRANCH  17  18
ENDBRANCH   1  17
TORSDOF 4
ENDMDL
MODEL 7
REMARK VINA RESULT:      -8.5      1.733      7.294
REMARK  4 active torsions:
REMARK  status: ('A' for Active; 'I' for Inactive)
REMARK    1  A    between atoms: C_4  and  O_5 
REMARK    2  A    between atoms: C_6  and  N_7 
REMARK       I    between atoms: N_7  and  C_8 
REMARK    3  A    between atoms: C_8  and  C_9 
REMARK    4  A    between atoms: C_9  and  N_10 
ROOT
HETATM    1  N   UNL     1      41.569 -14.559   5.430  1.00  0.00    -0.259 N 
HETATM    2  C   UNL     1      42.883 -14.231   5.286  1.00  0.00     0.326 C 
HETATM    3  O   UNL     1      43.413 -13.160   5.525  1.00  0.00    -0.247 OA
HETATM    4  N   UNL     1      43.551 -15.319   4.775  1.00  0.00    -0.320 N 
HETATM    5  C   UNL     1      42.642 -16.360   4.381  1.00  0.00     0.144 C 
HETATM    6  C   UNL     1      43.120 -17.731   4.738  1.00  0.00    -0.014 A 
HETATM    7  C   UNL     1      43.580 -18.395   3.590  1.00  0.00    -0.049 A 
HETATM    8  C   UNL     1      44.116 -19.668   3.660  1.00  0.00     0.007 A 
HETATM    9  C   UNL     1      44.186 -20.288   4.908  1.00  0.00     0.001 A 
HETATM   10  C   UNL     1      43.735 -19.627   6.059  1.00  0.00     0.001 A 
HETATM   11  C   UNL     1      43.203 -18.336   5.982  1.00  0.00     0.011 A 
HETATM   12  C   UNL     1      43.464 -17.528   2.374  1.00  0.00     0.042 C 
HETATM   13  C   UNL     1      42.479 -16.451   2.850  1.00  0.00     0.051 C 
HETATM   14  C   UNL     1      41.351 -15.846   5.021  1.00  0.00     0.261 C 
HETATM   15  O   UNL     1      40.276 -16.429   5.114  1.00  0.00    -0.270 OA
HETATM   16  H   UNL     1      44.536 -15.276   4.545  1.00  0.00     0.165 HD
ENDROOT
BRANCH   1  17
HETATM   17  C   UNL     1      40.530 -13.623   5.797  1.00  0.00     0.240 C 
BRANCH  17  18
HETATM   18  C   UNL     1      40.036 -12.751   4.648  1.00  0.00     0.240 C 
HETATM   19  N   UNL     1      39.513 -13.457   3.583  1.00  0.00    -0.323 N 
HETATM   20  H   UNL     1      39.267 -14.431   3.764  1.00  0.00     0.169 HD
HETATM   21  O   UNL     1      40.195 -11.532   4.666  1.00  0.00    -0.271 OA
BRANCH  19  22
HETATM   22  C   UNL     1      39.260 -13.001   2.263  1.00  0.00     0.068 A 
HETATM   23  C   UNL     1      38.538 -11.855   1.891  1.00  0.00     0.092 A 
HETATM   24  C   UNL     1      38.439 -11.473   0.548  1.00  0.00     0.045 A 
HETATM   25  C   UNL     1      39.045 -12.224  -0.461  1.00  0.00    -0.059 A 
HETATM   26  C   UNL     1      38.895 -11.818  -1.897  1.00  0.00     0.048 C 
HETATM   27  C   UNL     1      39.743 -13.380  -0.107  1.00  0.00     0.009 A 
HETATM   28  C   UNL     1      39.862 -13.751   1.239  1.00  0.00     0.033 A 
BRANCH  23  29
HETATM   29  O   UNL     1      37.924 -10.992   2.753  1.00  0.00    -0.358 OA
HETATM   30  H   UNL     1      37.243 -11.490   3.252  1.00  0.00     0.218 HD
ENDBRANCH  23  29
ENDBRANCH  19  22
ENDBRANCH  17  18
ENDBRANCH   1  17
TORSDOF 4
ENDMDL
MODEL 8
REMARK VINA RESULT:      -8.3      7.054     10.481
REMARK  4 active torsions:
REMARK  status: ('A' for Active; 'I' for Inactive)
REMARK    1  A    between atoms: C_4  and  O_5 
REMARK    2  A    between atoms: C_6  and  N_7 
REMARK       I    between atoms: N_7  and  C_8 
REMARK    3  A    between atoms: C_8  and  C_9 
REMARK    4  A    between atoms: C_9  and  N_10 
ROOT
HETATM    1  N   UNL     1      42.908  -9.411   9.368  1.00  0.00    -0.259 N 
HETATM    2  C   UNL     1      43.442 -10.462  10.049  1.00  0.00     0.326 C 
HETATM    3  O   UNL     1      44.146 -11.353   9.608  1.00  0.00    -0.247 OA
HETATM    4  N   UNL     1      43.024 -10.392  11.358  1.00  0.00    -0.320 N 
HETATM    5  C   UNL     1      42.028  -9.373  11.539  1.00  0.00     0.144 C 
HETATM    6  C   UNL     1      42.207  -8.587  12.799  1.00  0.00    -0.014 A 
HETATM    7  C   UNL     1      41.252  -8.979  13.751  1.00  0.00    -0.049 A 
HETATM    8  C   UNL     1      41.233  -8.429  15.020  1.00  0.00     0.007 A 
HETATM    9  C   UNL     1      42.187  -7.463  15.337  1.00  0.00     0.001 A 
HETATM   10  C   UNL     1      43.148  -7.072  14.392  1.00  0.00     0.001 A 
HETATM   11  C   UNL     1      43.167  -7.640  13.114  1.00  0.00     0.011 A 
HETATM   12  C   UNL     1      40.366 -10.063  13.221  1.00  0.00     0.042 C 
HETATM   13  C   UNL     1      40.611  -9.958  11.710  1.00  0.00     0.051 C 
HETATM   14  C   UNL     1      42.140  -8.642  10.200  1.00  0.00     0.261 C 
HETATM   15  O   UNL     1      41.605  -7.590   9.872  1.00  0.00    -0.270 OA
HETATM   16  H   UNL     1      43.269 -11.106  12.031  1.00  0.00     0.165 HD
ENDROOT
BRANCH   1  17
HETATM   17  C   UNL     1      43.001  -9.235   7.936  1.00  0.00     0.240 C 
BRANCH  17  18
HETATM   18  C   UNL     1      42.074 -10.140   7.131  1.00  0.00     0.240 C 
HETATM   19  N   UNL     1      42.552 -11.420   6.942  1.00  0.00    -0.323 N 
HETATM   20  H   UNL     1      43.314 -11.713   7.555  1.00  0.00     0.169 HD
HETATM   21  O   UNL     1      41.042  -9.699   6.630  1.00  0.00    -0.271 OA
BRANCH  19  22
HETATM   22  C   UNL     1      42.113 -12.396   6.011  1.00  0.00     0.068 A 
HETATM   23  C   UNL     1      40.834 -12.969   5.930  1.00  0.00     0.092 A 
HETATM   24  C   UNL     1      40.509 -13.860   4.900  1.00  0.00     0.045 A 
HETATM   25  C   UNL     1      41.449 -14.214   3.930  1.00  0.00    -0.059 A 
HETATM   26  C   UNL     1      41.093 -15.199   2.858  1.00  0.00     0.048 C 
HETATM   27  C   UNL     1      42.733 -13.671   4.015  1.00  0.00     0.009 A 
HETATM   28  C   UNL     1      43.052 -12.762   5.032  1.00  0.00     0.033 A 
BRANCH  23  29
HETATM   29  O   UNL     1      39.791 -12.699   6.770  1.00  0.00    -0.358 OA
HETATM   30  H   UNL     1      40.146 -12.604   7.678  1.00  0.00     0.218 HD
ENDBRANCH  23  29
ENDBRANCH  19  22
ENDBRANCH  17  18
ENDBRANCH   1  17
TORSDOF 4
ENDMDL
MODEL 9
REMARK VINA RESULT:      -8.2      4.627      7.748
REMARK  4 active torsions:
REMARK  status: ('A' for Active; 'I' for Inactive)
REMARK    1  A    between atoms: C_4  and  O_5 
REMARK    2  A    between atoms: C_6  and  N_7 
REMARK       I    between atoms: N_7  and  C_8 
REMARK    3  A    between atoms: C_8  and  C_9 
REMARK    4  A    between atoms: C_9  and  N_10 
ROOT
HETATM    1  N   UNL     1      41.353 -12.150   5.574  1.00  0.00    -0.259 N 
HETATM    2  C   UNL     1      40.299 -12.971   5.840  1.00  0.00     0.326 C 
HETATM    3  O   UNL     1      39.136 -12.655   6.018  1.00  0.00    -0.247 OA
HETATM    4  N   UNL     1      40.762 -14.264   5.918  1.00  0.00    -0.320 N 
HETATM    5  C   UNL     1      42.198 -14.312   5.892  1.00  0.00     0.144 C 
HETATM    6  C   UNL     1      42.738 -15.429   5.056  1.00  0.00    -0.014 A 
HETATM    7  C   UNL     1      43.223 -16.456   5.882  1.00  0.00    -0.049 A 
HETATM    8  C   UNL     1      43.738 -17.625   5.350  1.00  0.00     0.007 A 
HETATM    9  C   UNL     1      43.771 -17.762   3.962  1.00  0.00     0.001 A 
HETATM   10  C   UNL     1      43.280 -16.742   3.133  1.00  0.00     0.001 A 
HETATM   11  C   UNL     1      42.753 -15.567   3.678  1.00  0.00     0.011 A 
HETATM   12  C   UNL     1      43.040 -16.126   7.331  1.00  0.00     0.042 C 
HETATM   13  C   UNL     1      42.803 -14.610   7.279  1.00  0.00     0.051 C 
HETATM   14  C   UNL     1      42.510 -12.873   5.477  1.00  0.00     0.261 C 
HETATM   15  O   UNL     1      43.597 -12.401   5.166  1.00  0.00    -0.270 OA
HETATM   16  H   UNL     1      40.149 -15.033   6.155  1.00  0.00     0.165 HD
ENDROOT
BRANCH   1  17
HETATM   17  C   UNL     1      41.280 -10.706   5.571  1.00  0.00     0.240 C 
BRANCH  17  18
HETATM   18  C   UNL     1      41.159 -10.080   6.956  1.00  0.00     0.240 C 
HETATM   19  N   UNL     1      42.361  -9.701   7.517  1.00  0.00    -0.323 N 
HETATM   20  H   UNL     1      43.154  -9.627   6.878  1.00  0.00     0.169 HD
HETATM   21  O   UNL     1      40.073 -10.024   7.530  1.00  0.00    -0.271 OA
BRANCH  19  22
HETATM   22  C   UNL     1      42.642  -9.388   8.872  1.00  0.00     0.068 A 
HETATM   23  C   UNL     1      43.308 -10.199   9.805  1.00  0.00     0.092 A 
HETATM   24  C   UNL     1      43.597  -9.727  11.091  1.00  0.00     0.045 A 
HETATM   25  C   UNL     1      43.222  -8.441  11.487  1.00  0.00    -0.059 A 
HETATM   26  C   UNL     1      43.507  -7.969  12.881  1.00  0.00     0.048 C 
HETATM   27  C   UNL     1      42.536  -7.635  10.578  1.00  0.00     0.009 A 
HETATM   28  C   UNL     1      42.267  -8.098   9.283  1.00  0.00     0.033 A 
BRANCH  23  29
HETATM   29  O   UNL     1      43.776 -11.459   9.566  1.00  0.00    -0.358 OA
HETATM   30  H   UNL     1      43.265 -11.840   8.822  1.00  0.00     0.218 HD
ENDBRANCH  23  29
ENDBRANCH  19  22
ENDBRANCH  17  18
ENDBRANCH   1  17
TORSDOF 4
ENDMDL
MODEL 10
REMARK VINA RESULT:      -8.2      4.015      7.156
REMARK  4 active torsions:
REMARK  status: ('A' for Active; 'I' for Inactive)
REMARK    1  A    between atoms: C_4  and  O_5 
REMARK    2  A    between atoms: C_6  and  N_7 
REMARK       I    between atoms: N_7  and  C_8 
REMARK    3  A    between atoms: C_8  and  C_9 
REMARK    4  A    between atoms: C_9  and  N_10 
ROOT
HETATM    1  N   UNL     1      40.206 -10.627   5.674  1.00  0.00    -0.259 N 
HETATM    2  C   UNL     1      39.845 -10.748   6.982  1.00  0.00     0.326 C 
HETATM    3  O   UNL     1      38.812 -11.215   7.428  1.00  0.00    -0.247 OA
HETATM    4  N   UNL     1      40.843 -10.210   7.761  1.00  0.00    -0.320 N 
HETATM    5  C   UNL     1      41.828  -9.533   6.964  1.00  0.00     0.144 C 
HETATM    6  C   UNL     1      43.230  -9.774   7.425  1.00  0.00    -0.014 A 
HETATM    7  C   UNL     1      43.721  -8.638   8.088  1.00  0.00    -0.049 A 
HETATM    8  C   UNL     1      44.985  -8.621   8.650  1.00  0.00     0.007 A 
HETATM    9  C   UNL     1      45.773  -9.766   8.538  1.00  0.00     0.001 A 
HETATM   10  C   UNL     1      45.285 -10.907   7.884  1.00  0.00     0.001 A 
HETATM   11  C   UNL     1      44.003 -10.920   7.327  1.00  0.00     0.011 A 
HETATM   12  C   UNL     1      42.693  -7.550   8.140  1.00  0.00     0.042 C 
HETATM   13  C   UNL     1      41.706  -7.999   7.054  1.00  0.00     0.051 C 
HETATM   14  C   UNL     1      41.425 -10.015   5.569  1.00  0.00     0.261 C 
HETATM   15  O   UNL     1      42.028  -9.849   4.515  1.00  0.00    -0.270 OA
HETATM   16  H   UNL     1      40.756 -10.155   8.768  1.00  0.00     0.165 HD
ENDROOT
BRANCH   1  17
HETATM   17  C   UNL     1      39.343 -10.942   4.557  1.00  0.00     0.240 C 
BRANCH  17  18
HETATM   18  C   UNL     1      39.841 -12.088   3.684  1.00  0.00     0.240 C 
HETATM   19  N   UNL     1      40.057 -13.269   4.364  1.00  0.00    -0.323 N 
HETATM   20  H   UNL     1      39.629 -13.344   5.288  1.00  0.00     0.169 HD
HETATM   21  O   UNL     1      40.106 -11.908   2.497  1.00  0.00    -0.271 OA
BRANCH  19  22
HETATM   22  C   UNL     1      40.792 -14.407   3.942  1.00  0.00     0.068 A 
HETATM   23  C   UNL     1      40.364 -15.404   3.050  1.00  0.00     0.092 A 
HETATM   24  C   UNL     1      41.228 -16.430   2.649  1.00  0.00     0.045 A 
HETATM   25  C   UNL     1      42.536 -16.500   3.134  1.00  0.00    -0.059 A 
HETATM   26  C   UNL     1      43.433 -17.629   2.723  1.00  0.00     0.048 C 
HETATM   27  C   UNL     1      42.965 -15.531   4.042  1.00  0.00     0.009 A 
HETATM   28  C   UNL     1      42.108 -14.490   4.425  1.00  0.00     0.033 A 
BRANCH  23  29
HETATM   29  O   UNL     1      39.136 -15.458   2.454  1.00  0.00    -0.358 OA
HETATM   30  H   UNL     1      38.489 -15.020   3.045  1.00  0.00     0.218 HD
ENDBRANCH  23  29
ENDBRANCH  19  22
ENDBRANCH  17  18
ENDBRANCH   1  17
TORSDOF 4
ENDMDL
