MODEL 1
REMARK VINA RESULT:     -10.3      0.000      0.000
REMARK  8 active torsions:
REMARK  status: ('A' for Active; 'I' for Inactive)
REMARK    1  A    between atoms: C_2  and  O_3 
REMARK    2  A    between atoms: C_2  and  C_14 
REMARK    3  A    between atoms: O_3  and  C_4 
REMARK       I    between atoms: C_14  and  N_15 
REMARK    4  A    between atoms: N_15  and  N_16 
REMARK       I    between atoms: N_16  and  C_17 
REMARK    5  A    between atoms: C_17  and  C_18 
REMARK    6  A    between atoms: C_18  and  C_19 
REMARK    7  A    between atoms: C_19  and  C_20 
REMARK    8  A    between atoms: C_20  and  C_21 
ROOT
HETATM    1  N   UNL     1      44.526 -11.089   6.028  1.00  0.00    -0.267 N 
HETATM    2  C   UNL     1      44.934 -11.243   7.343  1.00  0.00     0.236 C 
HETATM    3  O   UNL     1      44.395 -12.011   8.133  1.00  0.00    -0.272 OA
HETATM    4  H   UNL     1      45.202 -10.739   5.348  1.00  0.00     0.190 HD
ENDROOT
BRANCH   1   5
HETATM    5  N   UNL     1      43.635 -12.043   5.506  1.00  0.00    -0.265 N 
HETATM    6  C   UNL     1      43.609 -12.185   4.126  1.00  0.00     0.265 C 
HETATM    7  O   UNL     1      44.246 -11.435   3.385  1.00  0.00    -0.269 OA
HETATM    8  H   UNL     1      43.408 -12.826   6.117  1.00  0.00     0.190 HD
BRANCH   6   9
HETATM    9  C   UNL     1      42.673 -13.294   3.630  1.00  0.00     0.218 C 
HETATM   10  C   UNL     1      41.224 -12.928   3.927  1.00  0.00     0.050 C 
BRANCH   9  11
HETATM   11  O   UNL     1      43.069 -14.439   4.393  1.00  0.00    -0.337 OA
BRANCH  11  12
HETATM   12  C   UNL     1      43.153 -15.657   3.787  1.00  0.00     0.070 A 
HETATM   13  C   UNL     1      43.505 -16.702   4.647  1.00  0.00     0.049 A 
HETATM   14  C   UNL     1      43.624 -18.022   4.185  1.00  0.00    -0.023 A 
HETATM   15  C   UNL     1      43.367 -18.300   2.826  1.00  0.00    -0.026 A 
HETATM   16  C   UNL     1      43.993 -19.071   5.045  1.00  0.00     0.012 A 
HETATM   17  C   UNL     1      43.001 -17.246   1.972  1.00  0.00     0.015 A 
HETATM   18  C   UNL     1      43.479 -19.621   2.362  1.00  0.00     0.012 A 
HETATM   19  C   UNL     1      42.896 -15.933   2.448  1.00  0.00     0.037 A 
HETATM   20  C   UNL     1      43.847 -20.653   3.229  1.00  0.00     0.001 A 
HETATM   21  C   UNL     1      44.106 -20.378   4.568  1.00  0.00     0.001 A 
ENDBRANCH  11  12
ENDBRANCH   9  11
ENDBRANCH   6   9
ENDBRANCH   1   5
BRANCH   2  22
HETATM   22  C   UNL     1      46.084 -10.315   7.692  1.00  0.00     0.105 C 
BRANCH  22  23
HETATM   23  C   UNL     1      45.653  -9.028   8.389  1.00  0.00     0.014 C 
BRANCH  23  24
HETATM   24  C   UNL     1      45.509  -9.206   9.903  1.00  0.00     0.039 C 
BRANCH  24  25
HETATM   25  C   UNL     1      44.054  -9.279  10.306  1.00  0.00    -0.056 A 
HETATM   26  C   UNL     1      43.691  -9.949  11.487  1.00  0.00     0.039 A 
HETATM   27  C   UNL     1      42.350 -10.011  11.783  1.00  0.00     0.063 A 
HETATM   28  C   UNL     1      41.379  -9.446  10.960  1.00  0.00     0.063 A 
HETATM   29  N   UNL     1      41.704 -10.602  12.863  1.00  0.00    -0.306 N 
HETATM   30  N   UNL     1      40.136  -9.689  11.533  1.00  0.00    -0.307 N 
HETATM   31  C   UNL     1      41.696  -8.787   9.798  1.00  0.00     0.032 A 
HETATM   32  C   UNL     1      40.322 -10.411  12.721  1.00  0.00     0.325 A 
HETATM   33  H   UNL     1      39.235  -9.415  11.180  1.00  0.00     0.170 HD
HETATM   34  O   UNL     1      39.452 -10.797  13.481  1.00  0.00    -0.247 OA
HETATM   35  C   UNL     1      43.057  -8.707   9.472  1.00  0.00     0.009 A 
HETATM   36  H   UNL     1      42.128 -11.094  13.631  1.00  0.00     0.170 HD
ENDBRANCH  24  25
ENDBRANCH  23  24
ENDBRANCH  22  23
ENDBRANCH   2  22
TORSDOF 8
ENDMDL
MODEL 2
REMARK VINA RESULT:     -10.0      2.783      3.555
REMARK  8 active torsions:
REMARK  status: ('A' for Active; 'I' for Inactive)
REMARK    1  A    between atoms: C_2  and  O_3 
REMARK    2  A    between atoms: C_2  and  C_14 
REMARK    3  A    between atoms: O_3  and  C_4 
REMARK       I    between atoms: C_14  and  N_15 
REMARK    4  A    between atoms: N_15  and  N_16 
REMARK       I    between atoms: N_16  and  C_17 
REMARK    5  A    between atoms: C_17  and  C_18 
REMARK    6  A    between atoms: C_18  and  C_19 
REMARK    7  A    between atoms: C_19  and  C_20 
REMARK    8  A    between atoms: C_20  and  C_21 
ROOT
HETATM    1  N   UNL     1      43.436 -11.162   8.583  1.00  0.00    -0.267 N 
HETATM    2  C   UNL     1      44.554 -10.564   9.143  1.00  0.00     0.236 C 
HETATM    3  O   UNL     1      45.705 -10.880   8.859  1.00  0.00    -0.272 OA
HETATM    4  H   UNL     1      42.561 -10.637   8.571  1.00  0.00     0.190 HD
ENDROOT
BRANCH   1   5
HETATM    5  N   UNL     1      43.630 -11.973   7.450  1.00  0.00    -0.265 N 
HETATM    6  C   UNL     1      43.234 -11.446   6.229  1.00  0.00     0.265 C 
HETATM    7  O   UNL     1      42.635 -10.371   6.151  1.00  0.00    -0.269 OA
HETATM    8  H   UNL     1      44.391 -12.647   7.507  1.00  0.00     0.190 HD
BRANCH   6   9
HETATM    9  C   UNL     1      43.543 -12.349   5.030  1.00  0.00     0.218 C 
HETATM   10  C   UNL     1      43.297 -11.596   3.729  1.00  0.00     0.050 C 
BRANCH   9  11
HETATM   11  O   UNL     1      42.615 -13.429   5.169  1.00  0.00    -0.337 OA
BRANCH  11  12
HETATM   12  C   UNL     1      43.061 -14.716   5.101  1.00  0.00     0.070 A 
HETATM   13  C   UNL     1      42.745 -15.369   3.905  1.00  0.00     0.049 A 
HETATM   14  C   UNL     1      43.140 -16.695   3.669  1.00  0.00    -0.023 A 
HETATM   15  C   UNL     1      43.884 -17.376   4.655  1.00  0.00    -0.026 A 
HETATM   16  C   UNL     1      42.811 -17.358   2.474  1.00  0.00     0.012 A 
HETATM   17  C   UNL     1      44.208 -16.708   5.848  1.00  0.00     0.015 A 
HETATM   18  C   UNL     1      44.287 -18.701   4.419  1.00  0.00     0.012 A 
HETATM   19  C   UNL     1      43.798 -15.388   6.071  1.00  0.00     0.037 A 
HETATM   20  C   UNL     1      43.951 -19.347   3.226  1.00  0.00     0.001 A 
HETATM   21  C   UNL     1      43.212 -18.677   2.256  1.00  0.00     0.001 A 
ENDBRANCH  11  12
ENDBRANCH   9  11
ENDBRANCH   6   9
ENDBRANCH   1   5
BRANCH   2  22
HETATM   22  C   UNL     1      44.178  -9.519  10.178  1.00  0.00     0.105 C 
BRANCH  22  23
HETATM   23  C   UNL     1      43.753 -10.101  11.522  1.00  0.00     0.014 C 
BRANCH  23  24
HETATM   24  C   UNL     1      42.359  -9.629  11.947  1.00  0.00     0.039 C 
BRANCH  24  25
HETATM   25  C   UNL     1      42.434  -8.751  13.175  1.00  0.00    -0.056 A 
HETATM   26  C   UNL     1      41.590  -9.010  14.269  1.00  0.00     0.039 A 
HETATM   27  C   UNL     1      41.679  -8.156  15.343  1.00  0.00     0.063 A 
HETATM   28  C   UNL     1      42.556  -7.074  15.363  1.00  0.00     0.063 A 
HETATM   29  N   UNL     1      40.979  -8.162  16.544  1.00  0.00    -0.306 N 
HETATM   30  N   UNL     1      42.396  -6.414  16.576  1.00  0.00    -0.307 N 
HETATM   31  C   UNL     1      43.392  -6.789  14.312  1.00  0.00     0.032 A 
HETATM   32  C   UNL     1      41.414  -7.080  17.324  1.00  0.00     0.325 A 
HETATM   33  H   UNL     1      42.880  -5.592  16.894  1.00  0.00     0.170 HD
HETATM   34  O   UNL     1      41.016  -6.777  18.434  1.00  0.00    -0.247 OA
HETATM   35  C   UNL     1      43.323  -7.644  13.204  1.00  0.00     0.009 A 
HETATM   36  H   UNL     1      40.272  -8.815  16.833  1.00  0.00     0.170 HD
ENDBRANCH  24  25
ENDBRANCH  23  24
ENDBRANCH  22  23
ENDBRANCH   2  22
TORSDOF 8
ENDMDL
MODEL 3
REMARK VINA RESULT:      -9.8      1.421      2.234
REMARK  8 active torsions:
REMARK  status: ('A' for Active; 'I' for Inactive)
REMARK    1  A    between atoms: C_2  and  O_3 
REMARK    2  A    between atoms: C_2  and  C_14 
REMARK    3  A    between atoms: O_3  and  C_4 
REMARK       I    between atoms: C_14  and  N_15 
REMARK    4  A    between atoms: N_15  and  N_16 
REMARK       I    between atoms: N_16  and  C_17 
REMARK    5  A    between atoms: C_17  and  C_18 
REMARK    6  A    between atoms: C_18  and  C_19 
REMARK    7  A    between atoms: C_19  and  C_20 
REMARK    8  A    between atoms: C_20  and  C_21 
ROOT
HETATM    1  N   UNL     1      42.787 -11.088   7.023  1.00  0.00    -0.267 N 
HETATM    2  C   UNL     1      43.946 -10.796   7.726  1.00  0.00     0.236 C 
HETATM    3  O   UNL     1      44.573 -11.629   8.373  1.00  0.00    -0.272 OA
HETATM    4  H   UNL     1      42.529 -10.485   6.242  1.00  0.00     0.190 HD
ENDROOT
BRANCH   1   5
HETATM    5  N   UNL     1      42.469 -12.444   6.826  1.00  0.00    -0.265 N 
HETATM    6  C   UNL     1      42.161 -12.831   5.529  1.00  0.00     0.265 C 
HETATM    7  O   UNL     1      42.056 -12.010   4.616  1.00  0.00    -0.269 OA
HETATM    8  H   UNL     1      42.882 -13.102   7.484  1.00  0.00     0.190 HD
BRANCH   6   9
HETATM    9  C   UNL     1      41.900 -14.334   5.372  1.00  0.00     0.218 C 
HETATM   10  C   UNL     1      40.709 -14.750   6.225  1.00  0.00     0.050 C 
BRANCH   9  11
HETATM   11  O   UNL     1      43.102 -14.940   5.857  1.00  0.00    -0.337 OA
BRANCH  11  12
HETATM   12  C   UNL     1      43.283 -16.284   5.720  1.00  0.00     0.070 A 
HETATM   13  C   UNL     1      43.345 -16.722   4.393  1.00  0.00     0.049 A 
HETATM   14  C   UNL     1      43.538 -18.075   4.077  1.00  0.00    -0.023 A 
HETATM   15  C   UNL     1      43.688 -19.010   5.123  1.00  0.00    -0.026 A 
HETATM   16  C   UNL     1      43.586 -18.519   2.745  1.00  0.00     0.012 A 
HETATM   17  C   UNL     1      43.638 -18.560   6.453  1.00  0.00     0.015 A 
HETATM   18  C   UNL     1      43.889 -20.365   4.809  1.00  0.00     0.012 A 
HETATM   19  C   UNL     1      43.434 -17.207   6.750  1.00  0.00     0.037 A 
HETATM   20  C   UNL     1      43.932 -20.791   3.480  1.00  0.00     0.001 A 
HETATM   21  C   UNL     1      43.780 -19.869   2.449  1.00  0.00     0.001 A 
ENDBRANCH  11  12
ENDBRANCH   9  11
ENDBRANCH   6   9
ENDBRANCH   1   5
BRANCH   2  22
HETATM   22  C   UNL     1      44.306  -9.324   7.636  1.00  0.00     0.105 C 
BRANCH  22  23
HETATM   23  C   UNL     1      44.741  -8.710   8.964  1.00  0.00     0.014 C 
BRANCH  23  24
HETATM   24  C   UNL     1      43.700  -7.735   9.523  1.00  0.00     0.039 C 
BRANCH  24  25
HETATM   25  C   UNL     1      42.909  -8.368  10.645  1.00  0.00    -0.056 A 
HETATM   26  C   UNL     1      41.767  -9.132  10.348  1.00  0.00     0.039 A 
HETATM   27  C   UNL     1      41.070  -9.653  11.413  1.00  0.00     0.063 A 
HETATM   28  C   UNL     1      41.459  -9.440  12.733  1.00  0.00     0.063 A 
HETATM   29  N   UNL     1      39.919 -10.433  11.426  1.00  0.00    -0.306 N 
HETATM   30  N   UNL     1      40.547 -10.088  13.559  1.00  0.00    -0.307 N 
HETATM   31  C   UNL     1      42.567  -8.697  13.061  1.00  0.00     0.032 A 
HETATM   32  C   UNL     1      39.579 -10.711  12.757  1.00  0.00     0.325 A 
HETATM   33  H   UNL     1      40.548 -10.121  14.564  1.00  0.00     0.170 HD
HETATM   34  O   UNL     1      38.628 -11.367  13.144  1.00  0.00    -0.247 OA
HETATM   35  C   UNL     1      43.297  -8.155  11.995  1.00  0.00     0.009 A 
HETATM   36  H   UNL     1      39.393 -10.755  10.632  1.00  0.00     0.170 HD
ENDBRANCH  24  25
ENDBRANCH  23  24
ENDBRANCH  22  23
ENDBRANCH   2  22
TORSDOF 8
ENDMDL
MODEL 4
REMARK VINA RESULT:      -9.6      1.926      2.130
REMARK  8 active torsions:
REMARK  status: ('A' for Active; 'I' for Inactive)
REMARK    1  A    between atoms: C_2  and  O_3 
REMARK    2  A    between atoms: C_2  and  C_14 
REMARK    3  A    between atoms: O_3  and  C_4 
REMARK       I    between atoms: C_14  and  N_15 
REMARK    4  A    between atoms: N_15  and  N_16 
REMARK       I    between atoms: N_16  and  C_17 
REMARK    5  A    between atoms: C_17  and  C_18 
REMARK    6  A    between atoms: C_18  and  C_19 
REMARK    7  A    between atoms: C_19  and  C_20 
REMARK    8  A    between atoms: C_20  and  C_21 
ROOT
HETATM    1  N   UNL     1      44.029 -11.904   7.855  1.00  0.00    -0.267 N 
HETATM    2  C   UNL     1      45.073 -11.170   7.316  1.00  0.00     0.236 C 
HETATM    3  O   UNL     1      45.717 -11.529   6.335  1.00  0.00    -0.272 OA
HETATM    4  H   UNL     1      43.325 -11.412   8.406  1.00  0.00     0.190 HD
ENDROOT
BRANCH   1   5
HETATM    5  N   UNL     1      43.515 -12.966   7.089  1.00  0.00    -0.265 N 
HETATM    6  C   UNL     1      42.437 -12.676   6.264  1.00  0.00     0.265 C 
HETATM    7  O   UNL     1      41.882 -11.577   6.285  1.00  0.00    -0.269 OA
HETATM    8  H   UNL     1      44.172 -13.707   6.852  1.00  0.00     0.190 HD
BRANCH   6   9
HETATM    9  C   UNL     1      41.977 -13.858   5.402  1.00  0.00     0.218 C 
HETATM   10  C   UNL     1      40.808 -14.570   6.071  1.00  0.00     0.050 C 
BRANCH   9  11
HETATM   11  O   UNL     1      43.125 -14.711   5.354  1.00  0.00    -0.337 OA
BRANCH  11  12
HETATM   12  C   UNL     1      43.147 -15.765   4.490  1.00  0.00     0.070 A 
HETATM   13  C   UNL     1      43.560 -16.971   5.066  1.00  0.00     0.049 A 
HETATM   14  C   UNL     1      43.628 -18.155   4.316  1.00  0.00    -0.023 A 
HETATM   15  C   UNL     1      43.257 -18.128   2.955  1.00  0.00    -0.026 A 
HETATM   16  C   UNL     1      44.057 -19.364   4.889  1.00  0.00     0.012 A 
HETATM   17  C   UNL     1      42.832 -16.916   2.388  1.00  0.00     0.015 A 
HETATM   18  C   UNL     1      43.318 -19.314   2.203  1.00  0.00     0.012 A 
HETATM   19  C   UNL     1      42.779 -15.741   3.148  1.00  0.00     0.037 A 
HETATM   20  C   UNL     1      43.748 -20.508   2.787  1.00  0.00     0.001 A 
HETATM   21  C   UNL     1      44.118 -20.533   4.128  1.00  0.00     0.001 A 
ENDBRANCH  11  12
ENDBRANCH   9  11
ENDBRANCH   6   9
ENDBRANCH   1   5
BRANCH   2  22
HETATM   22  C   UNL     1      45.349  -9.908   8.113  1.00  0.00     0.105 C 
BRANCH  22  23
HETATM   23  C   UNL     1      44.253  -9.555   9.113  1.00  0.00     0.014 C 
BRANCH  23  24
HETATM   24  C   UNL     1      44.805  -9.318  10.522  1.00  0.00     0.039 C 
BRANCH  24  25
HETATM   25  C   UNL     1      43.686  -9.217  11.535  1.00  0.00    -0.056 A 
HETATM   26  C   UNL     1      43.734  -8.224  12.528  1.00  0.00     0.039 A 
HETATM   27  C   UNL     1      42.706  -8.204  13.441  1.00  0.00     0.063 A 
HETATM   28  C   UNL     1      41.658  -9.120  13.403  1.00  0.00     0.063 A 
HETATM   29  N   UNL     1      42.491  -7.353  14.520  1.00  0.00    -0.306 N 
HETATM   30  N   UNL     1      40.799  -8.835  14.458  1.00  0.00    -0.307 N 
HETATM   31  C   UNL     1      41.580 -10.105  12.448  1.00  0.00     0.032 A 
HETATM   32  C   UNL     1      41.306  -7.735  15.165  1.00  0.00     0.325 A 
HETATM   33  H   UNL     1      39.952  -9.317  14.705  1.00  0.00     0.170 HD
HETATM   34  O   UNL     1      40.812  -7.213  16.149  1.00  0.00    -0.247 OA
HETATM   35  C   UNL     1      42.614 -10.148  11.505  1.00  0.00     0.009 A 
HETATM   36  H   UNL     1      43.072  -6.588  14.816  1.00  0.00     0.170 HD
ENDBRANCH  24  25
ENDBRANCH  23  24
ENDBRANCH  22  23
ENDBRANCH   2  22
TORSDOF 8
ENDMDL
MODEL 5
REMARK VINA RESULT:      -9.5      2.880     10.710
REMARK  8 active torsions:
REMARK  status: ('A' for Active; 'I' for Inactive)
REMARK    1  A    between atoms: C_2  and  O_3 
REMARK    2  A    between atoms: C_2  and  C_14 
REMARK    3  A    between atoms: O_3  and  C_4 
REMARK       I    between atoms: C_14  and  N_15 
REMARK    4  A    between atoms: N_15  and  N_16 
REMARK       I    between atoms: N_16  and  C_17 
REMARK    5  A    between atoms: C_17  and  C_18 
REMARK    6  A    between atoms: C_18  and  C_19 
REMARK    7  A    between atoms: C_19  and  C_20 
REMARK    8  A    between atoms: C_20  and  C_21 
ROOT
HETATM    1  N   UNL     1      42.131 -11.644   6.698  1.00  0.00    -0.267 N 
HETATM    2  C   UNL     1      42.173 -11.443   5.327  1.00  0.00     0.236 C 
HETATM    3  O   UNL     1      42.534 -10.392   4.807  1.00  0.00    -0.272 OA
HETATM    4  H   UNL     1      42.181 -12.600   7.049  1.00  0.00     0.190 HD
ENDROOT
BRANCH   1   5
HETATM    5  N   UNL     1      42.780 -10.701   7.514  1.00  0.00    -0.265 N 
HETATM    6  C   UNL     1      44.093 -10.980   7.869  1.00  0.00     0.265 C 
HETATM    7  O   UNL     1      44.627 -12.052   7.582  1.00  0.00    -0.269 OA
HETATM    8  H   UNL     1      42.452  -9.740   7.438  1.00  0.00     0.190 HD
BRANCH   6   9
HETATM    9  C   UNL     1      44.764  -9.876   8.694  1.00  0.00     0.218 C 
HETATM   10  C   UNL     1      46.064  -9.442   8.030  1.00  0.00     0.050 C 
BRANCH   9  11
HETATM   11  O   UNL     1      45.027 -10.505   9.952  1.00  0.00    -0.337 OA
BRANCH  11  12
HETATM   12  C   UNL     1      44.229 -10.232  11.023  1.00  0.00     0.070 A 
HETATM   13  C   UNL     1      44.027  -8.868  11.255  1.00  0.00     0.049 A 
HETATM   14  C   UNL     1      43.221  -8.416  12.312  1.00  0.00    -0.023 A 
HETATM   15  C   UNL     1      42.592  -9.362  13.148  1.00  0.00    -0.026 A 
HETATM   16  C   UNL     1      43.029  -7.046  12.554  1.00  0.00     0.012 A 
HETATM   17  C   UNL     1      42.791 -10.730  12.900  1.00  0.00     0.015 A 
HETATM   18  C   UNL     1      41.780  -8.913  14.203  1.00  0.00     0.012 A 
HETATM   19  C   UNL     1      43.605 -11.163  11.847  1.00  0.00     0.037 A 
HETATM   20  C   UNL     1      41.599  -7.547  14.432  1.00  0.00     0.001 A 
HETATM   21  C   UNL     1      42.224  -6.614  13.610  1.00  0.00     0.001 A 
ENDBRANCH  11  12
ENDBRANCH   9  11
ENDBRANCH   6   9
ENDBRANCH   1   5
BRANCH   2  22
HETATM   22  C   UNL     1      41.674 -12.655   4.562  1.00  0.00     0.105 C 
BRANCH  22  23
HETATM   23  C   UNL     1      41.879 -13.979   5.294  1.00  0.00     0.014 C 
BRANCH  23  24
HETATM   24  C   UNL     1      43.278 -14.558   5.067  1.00  0.00     0.039 C 
BRANCH  24  25
HETATM   25  C   UNL     1      43.216 -15.823   4.242  1.00  0.00    -0.056 A 
HETATM   26  C   UNL     1      43.698 -17.030   4.779  1.00  0.00     0.039 A 
HETATM   27  C   UNL     1      43.646 -18.139   3.968  1.00  0.00     0.063 A 
HETATM   28  C   UNL     1      43.147 -18.089   2.669  1.00  0.00     0.063 A 
HETATM   29  N   UNL     1      44.048 -19.446   4.223  1.00  0.00    -0.306 N 
HETATM   30  N   UNL     1      43.241 -19.365   2.123  1.00  0.00    -0.307 N 
HETATM   31  C   UNL     1      42.670 -16.928   2.111  1.00  0.00     0.032 A 
HETATM   32  C   UNL     1      43.803 -20.222   3.081  1.00  0.00     0.325 A 
HETATM   33  H   UNL     1      42.969 -19.657   1.201  1.00  0.00     0.170 HD
HETATM   34  O   UNL     1      44.034 -21.411   2.946  1.00  0.00    -0.247 OA
HETATM   35  C   UNL     1      42.710 -15.782   2.916  1.00  0.00     0.009 A 
HETATM   36  H   UNL     1      44.453 -19.804   5.070  1.00  0.00     0.170 HD
ENDBRANCH  24  25
ENDBRANCH  23  24
ENDBRANCH  22  23
ENDBRANCH   2  22
TORSDOF 8
ENDMDL
MODEL 6
REMARK VINA RESULT:      -9.4      1.690      2.027
REMARK  8 active torsions:
REMARK  status: ('A' for Active; 'I' for Inactive)
REMARK    1  A    between atoms: C_2  and  O_3 
REMARK    2  A    between atoms: C_2  and  C_14 
REMARK    3  A    between atoms: O_3  and  C_4 
REMARK       I    between atoms: C_14  and  N_15 
REMARK    4  A    between atoms: N_15  and  N_16 
REMARK       I    between atoms: N_16  and  C_17 
REMARK    5  A    between atoms: C_17  and  C_18 
REMARK    6  A    between atoms: C_18  and  C_19 
REMARK    7  A    between atoms: C_19  and  C_20 
REMARK    8  A    between atoms: C_20  and  C_21 
ROOT
HETATM    1  N   UNL     1      42.808 -10.761   7.614  1.00  0.00    -0.267 N 
HETATM    2  C   UNL     1      44.142 -10.802   7.989  1.00  0.00     0.236 C 
HETATM    3  O   UNL     1      44.862 -11.781   7.819  1.00  0.00    -0.272 OA
HETATM    4  H   UNL     1      42.381  -9.850   7.443  1.00  0.00     0.190 HD
ENDROOT
BRANCH   1   5
HETATM    5  N   UNL     1      42.337 -11.780   6.767  1.00  0.00    -0.265 N 
HETATM    6  C   UNL     1      42.186 -11.456   5.426  1.00  0.00     0.265 C 
HETATM    7  O   UNL     1      42.343 -10.305   5.014  1.00  0.00    -0.269 OA
HETATM    8  H   UNL     1      42.545 -12.734   7.054  1.00  0.00     0.190 HD
BRANCH   6   9
HETATM    9  C   UNL     1      41.744 -12.633   4.547  1.00  0.00     0.218 C 
HETATM   10  C   UNL     1      40.257 -12.902   4.741  1.00  0.00     0.050 C 
BRANCH   9  11
HETATM   11  O   UNL     1      42.521 -13.731   5.033  1.00  0.00    -0.337 OA
BRANCH  11  12
HETATM   12  C   UNL     1      42.689 -14.836   4.253  1.00  0.00     0.070 A 
HETATM   13  C   UNL     1      43.198 -15.947   4.935  1.00  0.00     0.049 A 
HETATM   14  C   UNL     1      43.420 -17.169   4.281  1.00  0.00    -0.023 A 
HETATM   15  C   UNL     1      43.108 -17.280   2.909  1.00  0.00    -0.026 A 
HETATM   16  C   UNL     1      43.944 -18.282   4.960  1.00  0.00     0.012 A 
HETATM   17  C   UNL     1      42.587 -16.163   2.235  1.00  0.00     0.015 A 
HETATM   18  C   UNL     1      43.324 -18.504   2.253  1.00  0.00     0.012 A 
HETATM   19  C   UNL     1      42.380 -14.949   2.901  1.00  0.00     0.037 A 
HETATM   20  C   UNL     1      43.847 -19.600   2.942  1.00  0.00     0.001 A 
HETATM   21  C   UNL     1      44.158 -19.489   4.294  1.00  0.00     0.001 A 
ENDBRANCH  11  12
ENDBRANCH   9  11
ENDBRANCH   6   9
ENDBRANCH   1   5
BRANCH   2  22
HETATM   22  C   UNL     1      44.578  -9.519   8.673  1.00  0.00     0.105 C 
BRANCH  22  23
HETATM   23  C   UNL     1      44.993  -9.703  10.129  1.00  0.00     0.014 C 
BRANCH  23  24
HETATM   24  C   UNL     1      43.949 -10.476  10.940  1.00  0.00     0.039 C 
BRANCH  24  25
HETATM   25  C   UNL     1      42.975  -9.535  11.610  1.00  0.00    -0.056 A 
HETATM   26  C   UNL     1      41.593  -9.776  11.514  1.00  0.00     0.039 A 
HETATM   27  C   UNL     1      40.756  -8.866  12.115  1.00  0.00     0.063 A 
HETATM   28  C   UNL     1      41.236  -7.746  12.789  1.00  0.00     0.063 A 
HETATM   29  N   UNL     1      39.367  -8.843  12.180  1.00  0.00    -0.306 N 
HETATM   30  N   UNL     1      40.143  -7.033  13.269  1.00  0.00    -0.307 N 
HETATM   31  C   UNL     1      42.578  -7.476  12.901  1.00  0.00     0.032 A 
HETATM   32  C   UNL     1      38.969  -7.705  12.895  1.00  0.00     0.325 A 
HETATM   33  H   UNL     1      40.154  -6.175  13.793  1.00  0.00     0.170 HD
HETATM   34  O   UNL     1      37.826  -7.365  13.145  1.00  0.00    -0.247 OA
HETATM   35  C   UNL     1      43.454  -8.389  12.299  1.00  0.00     0.009 A 
HETATM   36  H   UNL     1      38.729  -9.513  11.787  1.00  0.00     0.170 HD
ENDBRANCH  24  25
ENDBRANCH  23  24
ENDBRANCH  22  23
ENDBRANCH   2  22
TORSDOF 8
ENDMDL
MODEL 7
REMARK VINA RESULT:      -9.2      2.813     10.507
REMARK  8 active torsions:
REMARK  status: ('A' for Active; 'I' for Inactive)
REMARK    1  A    between atoms: C_2  and  O_3 
REMARK    2  A    between atoms: C_2  and  C_14 
REMARK    3  A    between atoms: O_3  and  C_4 
REMARK       I    between atoms: C_14  and  N_15 
REMARK    4  A    between atoms: N_15  and  N_16 
REMARK       I    between atoms: N_16  and  C_17 
REMARK    5  A    between atoms: C_17  and  C_18 
REMARK    6  A    between atoms: C_18  and  C_19 
REMARK    7  A    between atoms: C_19  and  C_20 
REMARK    8  A    between atoms: C_20  and  C_21 
ROOT
HETATM    1  N   UNL     1      42.962 -13.741   6.760  1.00  0.00    -0.267 N 
HETATM    2  C   UNL     1      42.901 -14.941   7.452  1.00  0.00     0.236 C 
HETATM    3  O   UNL     1      43.294 -15.077   8.606  1.00  0.00    -0.272 OA
HETATM    4  H   UNL     1      42.317 -13.596   5.984  1.00  0.00     0.190 HD
ENDROOT
BRANCH   1   5
HETATM    5  N   UNL     1      43.237 -12.576   7.499  1.00  0.00    -0.265 N 
HETATM    6  C   UNL     1      44.428 -11.923   7.216  1.00  0.00     0.265 C 
HETATM    7  O   UNL     1      45.260 -12.399   6.441  1.00  0.00    -0.269 OA
HETATM    8  H   UNL     1      42.428 -12.063   7.844  1.00  0.00     0.190 HD
BRANCH   6   9
HETATM    9  C   UNL     1      44.628 -10.621   8.002  1.00  0.00     0.218 C 
HETATM   10  C   UNL     1      46.114 -10.332   8.166  1.00  0.00     0.050 C 
BRANCH   9  11
HETATM   11  O   UNL     1      44.025 -10.895   9.271  1.00  0.00    -0.337 OA
BRANCH  11  12
HETATM   12  C   UNL     1      43.618  -9.862  10.061  1.00  0.00     0.070 A 
HETATM   13  C   UNL     1      43.248 -10.241  11.356  1.00  0.00     0.049 A 
HETATM   14  C   UNL     1      42.815  -9.298  12.300  1.00  0.00    -0.023 A 
HETATM   15  C   UNL     1      42.766  -7.935  11.936  1.00  0.00    -0.026 A 
HETATM   16  C   UNL     1      42.429  -9.679  13.596  1.00  0.00     0.012 A 
HETATM   17  C   UNL     1      43.151  -7.562  10.638  1.00  0.00     0.015 A 
HETATM   18  C   UNL     1      42.338  -6.987  12.881  1.00  0.00     0.012 A 
HETATM   19  C   UNL     1      43.572  -8.518   9.705  1.00  0.00     0.037 A 
HETATM   20  C   UNL     1      41.957  -7.382  14.165  1.00  0.00     0.001 A 
HETATM   21  C   UNL     1      42.001  -8.726  14.522  1.00  0.00     0.001 A 
ENDBRANCH  11  12
ENDBRANCH   9  11
ENDBRANCH   6   9
ENDBRANCH   1   5
BRANCH   2  22
HETATM   22  C   UNL     1      42.341 -16.061   6.594  1.00  0.00     0.105 C 
BRANCH  22  23
HETATM   23  C   UNL     1      43.362 -16.688   5.650  1.00  0.00     0.014 C 
BRANCH  23  24
HETATM   24  C   UNL     1      42.700 -17.397   4.465  1.00  0.00     0.039 C 
BRANCH  24  25
HETATM   25  C   UNL     1      42.365 -16.417   3.363  1.00  0.00    -0.056 A 
HETATM   26  C   UNL     1      41.132 -16.515   2.695  1.00  0.00     0.039 A 
HETATM   27  C   UNL     1      40.899 -15.618   1.679  1.00  0.00     0.063 A 
HETATM   28  C   UNL     1      41.832 -14.651   1.311  1.00  0.00     0.063 A 
HETATM   29  N   UNL     1      39.790 -15.479   0.853  1.00  0.00    -0.306 N 
HETATM   30  N   UNL     1      41.298 -13.918   0.258  1.00  0.00    -0.307 N 
HETATM   31  C   UNL     1      43.047 -14.528   1.940  1.00  0.00     0.032 A 
HETATM   32  C   UNL     1      40.024 -14.424  -0.041  1.00  0.00     0.325 A 
HETATM   33  H   UNL     1      41.726 -13.153  -0.234  1.00  0.00     0.170 HD
HETATM   34  O   UNL     1      39.268 -14.023  -0.908  1.00  0.00    -0.247 OA
HETATM   35  C   UNL     1      43.310 -15.429   2.979  1.00  0.00     0.009 A 
HETATM   36  H   UNL     1      38.949 -16.030   0.865  1.00  0.00     0.170 HD
ENDBRANCH  24  25
ENDBRANCH  23  24
ENDBRANCH  22  23
ENDBRANCH   2  22
TORSDOF 8
ENDMDL
MODEL 8
REMARK VINA RESULT:      -9.1      3.667      6.573
REMARK  8 active torsions:
REMARK  status: ('A' for Active; 'I' for Inactive)
REMARK    1  A    between atoms: C_2  and  O_3 
REMARK    2  A    between atoms: C_2  and  C_14 
REMARK    3  A    between atoms: O_3  and  C_4 
REMARK       I    between atoms: C_14  and  N_15 
REMARK    4  A    between atoms: N_15  and  N_16 
REMARK       I    between atoms: N_16  and  C_17 
REMARK    5  A    between atoms: C_17  and  C_18 
REMARK    6  A    between atoms: C_18  and  C_19 
REMARK    7  A    between atoms: C_19  and  C_20 
REMARK    8  A    between atoms: C_20  and  C_21 
ROOT
HETATM    1  N   UNL     1      40.368 -11.055   6.621  1.00  0.00    -0.267 N 
HETATM    2  C   UNL     1      40.439  -9.671   6.664  1.00  0.00     0.236 C 
HETATM    3  O   UNL     1      41.474  -9.054   6.894  1.00  0.00    -0.272 OA
HETATM    4  H   UNL     1      39.613 -11.485   6.086  1.00  0.00     0.190 HD
ENDROOT
BRANCH   1   5
HETATM    5  N   UNL     1      41.579 -11.768   6.574  1.00  0.00    -0.265 N 
HETATM    6  C   UNL     1      41.516 -13.076   6.112  1.00  0.00     0.265 C 
HETATM    7  O   UNL     1      40.441 -13.625   5.866  1.00  0.00    -0.269 OA
HETATM    8  H   UNL     1      42.423 -11.212   6.455  1.00  0.00     0.190 HD
BRANCH   6   9
HETATM    9  C   UNL     1      42.880 -13.769   6.014  1.00  0.00     0.218 C 
HETATM   10  C   UNL     1      43.989 -12.729   5.902  1.00  0.00     0.050 C 
BRANCH   9  11
HETATM   11  O   UNL     1      42.786 -14.535   4.809  1.00  0.00    -0.337 OA
BRANCH  11  12
HETATM   12  C   UNL     1      43.131 -15.854   4.819  1.00  0.00     0.070 A 
HETATM   13  C   UNL     1      42.930 -16.509   3.599  1.00  0.00     0.049 A 
HETATM   14  C   UNL     1      43.244 -17.867   3.437  1.00  0.00    -0.023 A 
HETATM   15  C   UNL     1      43.788 -18.581   4.526  1.00  0.00    -0.026 A 
HETATM   16  C   UNL     1      43.030 -18.530   2.217  1.00  0.00     0.012 A 
HETATM   17  C   UNL     1      43.998 -17.912   5.743  1.00  0.00     0.015 A 
HETATM   18  C   UNL     1      44.110 -19.939   4.365  1.00  0.00     0.012 A 
HETATM   19  C   UNL     1      43.670 -16.559   5.891  1.00  0.00     0.037 A 
HETATM   20  C   UNL     1      43.889 -20.584   3.146  1.00  0.00     0.001 A 
HETATM   21  C   UNL     1      43.348 -19.881   2.074  1.00  0.00     0.001 A 
ENDBRANCH  11  12
ENDBRANCH   9  11
ENDBRANCH   6   9
ENDBRANCH   1   5
BRANCH   2  22
HETATM   22  C   UNL     1      39.082  -9.027   6.444  1.00  0.00     0.105 C 
BRANCH  22  23
HETATM   23  C   UNL     1      38.265  -9.669   5.326  1.00  0.00     0.014 C 
BRANCH  23  24
HETATM   24  C   UNL     1      38.846  -9.376   3.940  1.00  0.00     0.039 C 
BRANCH  24  25
HETATM   25  C   UNL     1      39.520 -10.600   3.363  1.00  0.00    -0.056 A 
HETATM   26  C   UNL     1      38.777 -11.778   3.168  1.00  0.00     0.039 A 
HETATM   27  C   UNL     1      39.453 -12.868   2.673  1.00  0.00     0.063 A 
HETATM   28  C   UNL     1      40.813 -12.829   2.376  1.00  0.00     0.063 A 
HETATM   29  N   UNL     1      38.989 -14.147   2.386  1.00  0.00    -0.306 N 
HETATM   30  N   UNL     1      41.187 -14.084   1.907  1.00  0.00    -0.307 N 
HETATM   31  C   UNL     1      41.571 -11.698   2.557  1.00  0.00     0.032 A 
HETATM   32  C   UNL     1      40.059 -14.918   1.909  1.00  0.00     0.325 A 
HETATM   33  H   UNL     1      42.102 -14.380   1.614  1.00  0.00     0.170 HD
HETATM   34  O   UNL     1      40.017 -16.085   1.563  1.00  0.00    -0.247 OA
HETATM   35  C   UNL     1      40.907 -10.571   3.059  1.00  0.00     0.009 A 
HETATM   36  H   UNL     1      38.051 -14.493   2.496  1.00  0.00     0.170 HD
ENDBRANCH  24  25
ENDBRANCH  23  24
ENDBRANCH  22  23
ENDBRANCH   2  22
TORSDOF 8
ENDMDL
MODEL 9
REMARK VINA RESULT:      -9.1      2.656      3.539
REMARK  8 active torsions:
REMARK  status: ('A' for Active; 'I' for Inactive)
REMARK    1  A    between atoms: C_2  and  O_3 
REMARK    2  A    between atoms: C_2  and  C_14 
REMARK    3  A    between atoms: O_3  and  C_4 
REMARK       I    between atoms: C_14  and  N_15 
REMARK    4  A    between atoms: N_15  and  N_16 
REMARK       I    between atoms: N_16  and  C_17 
REMARK    5  A    between atoms: C_17  and  C_18 
REMARK    6  A    between atoms: C_18  and  C_19 
REMARK    7  A    between atoms: C_19  and  C_20 
REMARK    8  A    between atoms: C_20  and  C_21 
ROOT
HETATM    1  N   UNL     1      43.488 -10.765   8.911  1.00  0.00    -0.267 N 
HETATM    2  C   UNL     1      44.540 -10.250   9.651  1.00  0.00     0.236 C 
HETATM    3  O   UNL     1      45.683 -10.693   9.601  1.00  0.00    -0.272 OA
HETATM    4  H   UNL     1      42.690 -10.159   8.715  1.00  0.00     0.190 HD
ENDROOT
BRANCH   1   5
HETATM    5  N   UNL     1      43.800 -11.652   7.865  1.00  0.00    -0.265 N 
HETATM    6  C   UNL     1      43.170 -11.429   6.648  1.00  0.00     0.265 C 
HETATM    7  O   UNL     1      42.295 -10.571   6.518  1.00  0.00    -0.269 OA
HETATM    8  H   UNL     1      44.718 -12.089   7.906  1.00  0.00     0.190 HD
BRANCH   6   9
HETATM    9  C   UNL     1      43.613 -12.383   5.533  1.00  0.00     0.218 C 
HETATM   10  C   UNL     1      43.472 -11.705   4.176  1.00  0.00     0.050 C 
BRANCH   9  11
HETATM   11  O   UNL     1      42.702 -13.481   5.643  1.00  0.00    -0.337 OA
BRANCH  11  12
HETATM   12  C   UNL     1      43.151 -14.753   5.445  1.00  0.00     0.070 A 
HETATM   13  C   UNL     1      42.743 -15.323   4.234  1.00  0.00     0.049 A 
HETATM   14  C   UNL     1      43.128 -16.623   3.871  1.00  0.00    -0.023 A 
HETATM   15  C   UNL     1      43.956 -17.363   4.741  1.00  0.00    -0.026 A 
HETATM   16  C   UNL     1      42.707 -17.202   2.661  1.00  0.00     0.012 A 
HETATM   17  C   UNL     1      44.370 -16.778   5.949  1.00  0.00     0.015 A 
HETATM   18  C   UNL     1      44.347 -18.662   4.377  1.00  0.00     0.012 A 
HETATM   19  C   UNL     1      43.970 -15.483   6.301  1.00  0.00     0.037 A 
HETATM   20  C   UNL     1      43.920 -19.224   3.172  1.00  0.00     0.001 A 
HETATM   21  C   UNL     1      43.100 -18.496   2.316  1.00  0.00     0.001 A 
ENDBRANCH  11  12
ENDBRANCH   9  11
ENDBRANCH   6   9
ENDBRANCH   1   5
BRANCH   2  22
HETATM   22  C   UNL     1      44.093  -9.118  10.558  1.00  0.00     0.105 C 
BRANCH  22  23
HETATM   23  C   UNL     1      43.325  -9.579  11.794  1.00  0.00     0.014 C 
BRANCH  23  24
HETATM   24  C   UNL     1      43.130  -8.453  12.812  1.00  0.00     0.039 C 
BRANCH  24  25
HETATM   25  C   UNL     1      41.678  -8.038  12.894  1.00  0.00    -0.056 A 
HETATM   26  C   UNL     1      41.317  -6.907  13.646  1.00  0.00     0.039 A 
HETATM   27  C   UNL     1      39.979  -6.601  13.711  1.00  0.00     0.063 A 
HETATM   28  C   UNL     1      39.007  -7.368  13.071  1.00  0.00     0.063 A 
HETATM   29  N   UNL     1      39.336  -5.560  14.371  1.00  0.00    -0.306 N 
HETATM   30  N   UNL     1      37.767  -6.800  13.339  1.00  0.00    -0.307 N 
HETATM   31  C   UNL     1      39.323  -8.481  12.331  1.00  0.00     0.032 A 
HETATM   32  C   UNL     1      37.956  -5.671  14.150  1.00  0.00     0.325 A 
HETATM   33  H   UNL     1      36.867  -7.120  13.026  1.00  0.00     0.170 HD
HETATM   34  O   UNL     1      37.088  -4.932  14.580  1.00  0.00    -0.247 OA
HETATM   35  C   UNL     1      40.680  -8.815  12.247  1.00  0.00     0.009 A 
HETATM   36  H   UNL     1      39.760  -4.837  14.926  1.00  0.00     0.170 HD
ENDBRANCH  24  25
ENDBRANCH  23  24
ENDBRANCH  22  23
ENDBRANCH   2  22
TORSDOF 8
ENDMDL
MODEL 10
REMARK VINA RESULT:      -8.6      4.612      8.727
REMARK  8 active torsions:
REMARK  status: ('A' for Active; 'I' for Inactive)
REMARK    1  A    between atoms: C_2  and  O_3 
REMARK    2  A    between atoms: C_2  and  C_14 
REMARK    3  A    between atoms: O_3  and  C_4 
REMARK       I    between atoms: C_14  and  N_15 
REMARK    4  A    between atoms: N_15  and  N_16 
REMARK       I    between atoms: N_16  and  C_17 
REMARK    5  A    between atoms: C_17  and  C_18 
REMARK    6  A    between atoms: C_18  and  C_19 
REMARK    7  A    between atoms: C_19  and  C_20 
REMARK    8  A    between atoms: C_20  and  C_21 
ROOT
HETATM    1  N   UNL     1      40.651 -11.654   3.642  1.00  0.00    -0.267 N 
HETATM    2  C   UNL     1      40.930 -10.301   3.531  1.00  0.00     0.236 C 
HETATM    3  O   UNL     1      41.914  -9.768   4.034  1.00  0.00    -0.272 OA
HETATM    4  H   UNL     1      40.060 -12.087   2.932  1.00  0.00     0.190 HD
ENDROOT
BRANCH   1   5
HETATM    5  N   UNL     1      41.674 -12.492   4.120  1.00  0.00    -0.265 N 
HETATM    6  C   UNL     1      41.293 -13.518   4.973  1.00  0.00     0.265 C 
HETATM    7  O   UNL     1      40.136 -13.623   5.385  1.00  0.00    -0.269 OA
HETATM    8  H   UNL     1      42.494 -12.585   3.524  1.00  0.00     0.190 HD
BRANCH   6   9
HETATM    9  C   UNL     1      42.445 -14.439   5.395  1.00  0.00     0.218 C 
HETATM   10  C   UNL     1      43.327 -13.737   6.420  1.00  0.00     0.050 C 
BRANCH   9  11
HETATM   11  O   UNL     1      43.166 -14.660   4.179  1.00  0.00    -0.337 OA
BRANCH  11  12
HETATM   12  C   UNL     1      43.261 -15.922   3.671  1.00  0.00     0.070 A 
HETATM   13  C   UNL     1      43.558 -16.902   4.624  1.00  0.00     0.049 A 
HETATM   14  C   UNL     1      43.680 -18.255   4.269  1.00  0.00    -0.023 A 
HETATM   15  C   UNL     1      43.484 -18.632   2.923  1.00  0.00    -0.026 A 
HETATM   16  C   UNL     1      43.992 -19.239   5.222  1.00  0.00     0.012 A 
HETATM   17  C   UNL     1      43.174 -17.642   1.976  1.00  0.00     0.015 A 
HETATM   18  C   UNL     1      43.599 -19.986   2.567  1.00  0.00     0.012 A 
HETATM   19  C   UNL     1      43.065 -16.296   2.346  1.00  0.00     0.037 A 
HETATM   20  C   UNL     1      43.911 -20.952   3.525  1.00  0.00     0.001 A 
HETATM   21  C   UNL     1      44.109 -20.579   4.851  1.00  0.00     0.001 A 
ENDBRANCH  11  12
ENDBRANCH   9  11
ENDBRANCH   6   9
ENDBRANCH   1   5
BRANCH   2  22
HETATM   22  C   UNL     1      39.850  -9.562   2.761  1.00  0.00     0.105 C 
BRANCH  22  23
HETATM   23  C   UNL     1      40.169  -9.361   1.282  1.00  0.00     0.014 C 
BRANCH  23  24
HETATM   24  C   UNL     1      38.907  -9.173   0.435  1.00  0.00     0.039 C 
BRANCH  24  25
HETATM   25  C   UNL     1      38.796 -10.248  -0.622  1.00  0.00    -0.056 A 
HETATM   26  C   UNL     1      38.791 -11.601  -0.242  1.00  0.00     0.039 A 
HETATM   27  C   UNL     1      38.723 -12.533  -1.250  1.00  0.00     0.063 A 
HETATM   28  C   UNL     1      38.666 -12.173  -2.595  1.00  0.00     0.063 A 
HETATM   29  N   UNL     1      38.704 -13.921  -1.178  1.00  0.00    -0.306 N 
HETATM   30  N   UNL     1      38.614 -13.339  -3.350  1.00  0.00    -0.307 N 
HETATM   31  C   UNL     1      38.673 -10.861  -3.003  1.00  0.00     0.032 A 
HETATM   32  C   UNL     1      38.638 -14.439  -2.479  1.00  0.00     0.325 A 
HETATM   33  H   UNL     1      38.571 -13.418  -4.351  1.00  0.00     0.170 HD
HETATM   34  O   UNL     1      38.607 -15.615  -2.794  1.00  0.00    -0.247 OA
HETATM   35  C   UNL     1      38.740  -9.890  -1.995  1.00  0.00     0.009 A 
HETATM   36  H   UNL     1      38.736 -14.488  -0.348  1.00  0.00     0.170 HD
ENDBRANCH  24  25
ENDBRANCH  23  24
ENDBRANCH  22  23
ENDBRANCH   2  22
TORSDOF 8
ENDMDL
