MODEL 1
REMARK VINA RESULT:      -7.9      0.000      0.000
REMARK  5 active torsions:
REMARK  status: ('A' for Active; 'I' for Inactive)
REMARK    1  A    between atoms: C_8  and  N_9 
REMARK       I    between atoms: N_9  and  C_10 
REMARK       I    between atoms: C_10  and  N_11 
REMARK    2  A    between atoms: N_11  and  C_12 
REMARK    3  A    between atoms: C_13  and  O_14 
REMARK    4  A    between atoms: O_14  and  C_15 
REMARK    5  A    between atoms: C_15  and  C_16 
ROOT
HETATM    1  N   UNL     1      42.076 -14.390   3.519  1.00  0.00    -0.305 N 
HETATM    2  C   UNL     1      41.919 -15.764   3.506  1.00  0.00     0.325 C 
HETATM    3  N   UNL     1      43.142 -16.383   3.305  1.00  0.00    -0.306 N 
HETATM    4  O   UNL     1      40.860 -16.357   3.654  1.00  0.00    -0.247 OA
HETATM    5  H   UNL     1      42.996 -14.051   3.751  1.00  0.00     0.171 HD
HETATM    6  H   UNL     1      43.884 -15.807   2.928  1.00  0.00     0.171 HD
ENDROOT
BRANCH   3   7
HETATM    7  C   UNL     1      43.427 -17.765   3.349  1.00  0.00     0.072 A 
HETATM    8  C   UNL     1      43.979 -18.271   4.542  1.00  0.00     0.096 A 
HETATM    9  C   UNL     1      44.250 -19.633   4.692  1.00  0.00     0.042 A 
HETATM   10  C   UNL     1      44.000 -20.499   3.632  1.00  0.00     0.045 A 
HETATM   11  C   UNL     1      43.473 -19.998   2.445  1.00  0.00     0.118 A 
HETATM   12  F   UNL     1      43.228 -20.840   1.433  1.00  0.00    -0.206 F 
HETATM   13  C   UNL     1      43.180 -18.644   2.296  1.00  0.00     0.074 A 
BRANCH   8  14
HETATM   14  O   UNL     1      44.198 -17.388   5.573  1.00  0.00    -0.340 OA
BRANCH  14  15
HETATM   15  C   UNL     1      43.279 -17.599   6.661  1.00  0.00     0.293 C 
BRANCH  15  16
HETATM   16  C   UNL     1      42.793 -16.261   7.194  1.00  0.00     0.408 C 
HETATM   17  F   UNL     1      41.443 -16.210   7.233  1.00  0.00    -0.169 F 
HETATM   18  F   UNL     1      43.252 -16.026   8.443  1.00  0.00    -0.169 F 
HETATM   19  F   UNL     1      43.219 -15.248   6.406  1.00  0.00    -0.169 F 
ENDBRANCH  15  16
ENDBRANCH  14  15
ENDBRANCH   8  14
ENDBRANCH   3   7
BRANCH   1  20
HETATM   20  C   UNL     1      41.063 -13.446   3.536  1.00  0.00     0.086 A 
HETATM   21  C   UNL     1      40.660 -12.784   2.390  1.00  0.00     0.052 A 
HETATM   22  C   UNL     1      41.124 -12.840   0.984  1.00  0.00     0.072 C 
HETATM   23  N   UNL     1      39.653 -11.948   2.779  1.00  0.00    -0.280 N 
HETATM   24  H   UNL     1      39.123 -11.297   2.210  1.00  0.00     0.189 HD
HETATM   25  N   UNL     1      39.349 -12.034   4.076  1.00  0.00    -0.177 NA
HETATM   26  C   UNL     1      40.200 -12.953   4.558  1.00  0.00     0.079 A 
HETATM   27  C   UNL     1      40.088 -13.332   5.989  1.00  0.00     0.075 C 
ENDBRANCH   1  20
TORSDOF 5
ENDMDL
MODEL 2
REMARK VINA RESULT:      -7.6      2.338      3.433
REMARK  5 active torsions:
REMARK  status: ('A' for Active; 'I' for Inactive)
REMARK    1  A    between atoms: C_8  and  N_9 
REMARK       I    between atoms: N_9  and  C_10 
REMARK       I    between atoms: C_10  and  N_11 
REMARK    2  A    between atoms: N_11  and  C_12 
REMARK    3  A    between atoms: C_13  and  O_14 
REMARK    4  A    between atoms: O_14  and  C_15 
REMARK    5  A    between atoms: C_15  and  C_16 
ROOT
HETATM    1  N   UNL     1      41.236 -14.041   0.688  1.00  0.00    -0.305 N 
HETATM    2  C   UNL     1      41.308 -15.240   1.372  1.00  0.00     0.325 C 
HETATM    3  N   UNL     1      42.625 -15.532   1.686  1.00  0.00    -0.306 N 
HETATM    4  O   UNL     1      40.354 -15.947   1.665  1.00  0.00    -0.247 OA
HETATM    5  H   UNL     1      42.003 -13.402   0.830  1.00  0.00     0.171 HD
HETATM    6  H   UNL     1      43.336 -15.033   1.167  1.00  0.00     0.171 HD
ENDROOT
BRANCH   3   7
HETATM    7  C   UNL     1      43.107 -16.595   2.481  1.00  0.00     0.072 A 
HETATM    8  C   UNL     1      43.306 -16.336   3.851  1.00  0.00     0.096 A 
HETATM    9  C   UNL     1      43.736 -17.341   4.722  1.00  0.00     0.042 A 
HETATM   10  C   UNL     1      44.003 -18.611   4.218  1.00  0.00     0.045 A 
HETATM   11  C   UNL     1      43.825 -18.863   2.862  1.00  0.00     0.118 A 
HETATM   12  F   UNL     1      44.077 -20.091   2.388  1.00  0.00    -0.206 F 
HETATM   13  C   UNL     1      43.376 -17.872   1.991  1.00  0.00     0.074 A 
BRANCH   8  14
HETATM   14  O   UNL     1      43.018 -15.074   4.314  1.00  0.00    -0.340 OA
BRANCH  14  15
HETATM   15  C   UNL     1      42.321 -15.114   5.574  1.00  0.00     0.293 C 
BRANCH  15  16
HETATM   16  C   UNL     1      40.820 -15.130   5.333  1.00  0.00     0.408 C 
HETATM   17  F   UNL     1      40.472 -14.261   4.357  1.00  0.00    -0.169 F 
HETATM   18  F   UNL     1      40.387 -16.357   4.968  1.00  0.00    -0.169 F 
HETATM   19  F   UNL     1      40.151 -14.777   6.454  1.00  0.00    -0.169 F 
ENDBRANCH  15  16
ENDBRANCH  14  15
ENDBRANCH   8  14
ENDBRANCH   3   7
BRANCH   1  20
HETATM   20  C   UNL     1      40.113 -13.508   0.077  1.00  0.00     0.086 A 
HETATM   21  C   UNL     1      39.224 -12.697   0.757  1.00  0.00     0.052 A 
HETATM   22  C   UNL     1      39.173 -12.219   2.160  1.00  0.00     0.072 C 
HETATM   23  N   UNL     1      38.260 -12.359  -0.148  1.00  0.00    -0.280 N 
HETATM   24  H   UNL     1      37.438 -11.783  -0.005  1.00  0.00     0.189 HD
HETATM   25  N   UNL     1      38.465 -12.861  -1.369  1.00  0.00    -0.177 NA
HETATM   26  C   UNL     1      39.602 -13.565  -1.253  1.00  0.00     0.079 A 
HETATM   27  C   UNL     1      40.149 -14.218  -2.468  1.00  0.00     0.075 C 
ENDBRANCH   1  20
TORSDOF 5
ENDMDL
MODEL 3
REMARK VINA RESULT:      -7.6      1.649      1.823
REMARK  5 active torsions:
REMARK  status: ('A' for Active; 'I' for Inactive)
REMARK    1  A    between atoms: C_8  and  N_9 
REMARK       I    between atoms: N_9  and  C_10 
REMARK       I    between atoms: C_10  and  N_11 
REMARK    2  A    between atoms: N_11  and  C_12 
REMARK    3  A    between atoms: C_13  and  O_14 
REMARK    4  A    between atoms: O_14  and  C_15 
REMARK    5  A    between atoms: C_15  and  C_16 
ROOT
HETATM    1  N   UNL     1      41.749 -14.119   2.676  1.00  0.00    -0.305 N 
HETATM    2  C   UNL     1      42.669 -15.133   2.484  1.00  0.00     0.325 C 
HETATM    3  N   UNL     1      42.356 -16.220   3.283  1.00  0.00    -0.306 N 
HETATM    4  O   UNL     1      43.622 -15.088   1.719  1.00  0.00    -0.247 OA
HETATM    5  H   UNL     1      40.847 -14.399   3.028  1.00  0.00     0.171 HD
HETATM    6  H   UNL     1      41.727 -16.047   4.057  1.00  0.00     0.171 HD
ENDROOT
BRANCH   3   7
HETATM    7  C   UNL     1      42.971 -17.491   3.290  1.00  0.00     0.072 A 
HETATM    8  C   UNL     1      43.757 -17.819   4.412  1.00  0.00     0.096 A 
HETATM    9  C   UNL     1      44.365 -19.072   4.527  1.00  0.00     0.042 A 
HETATM   10  C   UNL     1      44.217 -19.998   3.499  1.00  0.00     0.045 A 
HETATM   11  C   UNL     1      43.456 -19.668   2.381  1.00  0.00     0.118 A 
HETATM   12  F   UNL     1      43.313 -20.570   1.401  1.00  0.00    -0.206 F 
HETATM   13  C   UNL     1      42.829 -18.429   2.270  1.00  0.00     0.074 A 
BRANCH   8  14
HETATM   14  O   UNL     1      43.868 -16.884   5.414  1.00  0.00    -0.340 OA
BRANCH  14  15
HETATM   15  C   UNL     1      43.066 -17.230   6.559  1.00  0.00     0.293 C 
BRANCH  15  16
HETATM   16  C   UNL     1      42.379 -15.988   7.102  1.00  0.00     0.408 C 
HETATM   17  F   UNL     1      41.040 -16.159   7.172  1.00  0.00    -0.169 F 
HETATM   18  F   UNL     1      42.822 -15.676   8.341  1.00  0.00    -0.169 F 
HETATM   19  F   UNL     1      42.615 -14.922   6.304  1.00  0.00    -0.169 F 
ENDBRANCH  15  16
ENDBRANCH  14  15
ENDBRANCH   8  14
ENDBRANCH   3   7
BRANCH   1  20
HETATM   20  C   UNL     1      41.827 -12.831   2.174  1.00  0.00     0.086 A 
HETATM   21  C   UNL     1      41.128 -12.442   1.045  1.00  0.00     0.052 A 
HETATM   22  C   UNL     1      40.221 -13.169   0.126  1.00  0.00     0.072 C 
HETATM   23  N   UNL     1      41.437 -11.126   0.852  1.00  0.00    -0.280 N 
HETATM   24  H   UNL     1      41.118 -10.508   0.113  1.00  0.00     0.189 HD
HETATM   25  N   UNL     1      42.254 -10.620   1.780  1.00  0.00    -0.177 NA
HETATM   26  C   UNL     1      42.500 -11.651   2.603  1.00  0.00     0.079 A 
HETATM   27  C   UNL     1      43.349 -11.407   3.796  1.00  0.00     0.075 C 
ENDBRANCH   1  20
TORSDOF 5
ENDMDL
MODEL 4
REMARK VINA RESULT:      -7.4      2.717      3.829
REMARK  5 active torsions:
REMARK  status: ('A' for Active; 'I' for Inactive)
REMARK    1  A    between atoms: C_8  and  N_9 
REMARK       I    between atoms: N_9  and  C_10 
REMARK       I    between atoms: C_10  and  N_11 
REMARK    2  A    between atoms: N_11  and  C_12 
REMARK    3  A    between atoms: C_13  and  O_14 
REMARK    4  A    between atoms: O_14  and  C_15 
REMARK    5  A    between atoms: C_15  and  C_16 
ROOT
HETATM    1  N   UNL     1      40.826 -13.928   0.160  1.00  0.00    -0.305 N 
HETATM    2  C   UNL     1      40.940 -14.987   1.042  1.00  0.00     0.325 C 
HETATM    3  N   UNL     1      42.275 -15.280   1.267  1.00  0.00    -0.306 N 
HETATM    4  O   UNL     1      40.005 -15.583   1.558  1.00  0.00    -0.247 OA
HETATM    5  H   UNL     1      41.622 -13.313   0.101  1.00  0.00     0.171 HD
HETATM    6  H   UNL     1      42.938 -14.917   0.593  1.00  0.00     0.171 HD
ENDROOT
BRANCH   3   7
HETATM    7  C   UNL     1      42.812 -16.204   2.190  1.00  0.00     0.072 A 
HETATM    8  C   UNL     1      43.118 -15.723   3.478  1.00  0.00     0.096 A 
HETATM    9  C   UNL     1      43.609 -16.576   4.470  1.00  0.00     0.042 A 
HETATM   10  C   UNL     1      43.831 -17.917   4.168  1.00  0.00     0.045 A 
HETATM   11  C   UNL     1      43.548 -18.389   2.889  1.00  0.00     0.118 A 
HETATM   12  F   UNL     1      43.757 -19.682   2.611  1.00  0.00    -0.206 F 
HETATM   13  C   UNL     1      43.037 -17.549   1.902  1.00  0.00     0.074 A 
BRANCH   8  14
HETATM   14  O   UNL     1      42.871 -14.397   3.744  1.00  0.00    -0.340 OA
BRANCH  14  15
HETATM   15  C   UNL     1      42.485 -14.190   5.116  1.00  0.00     0.293 C 
BRANCH  15  16
HETATM   16  C   UNL     1      43.332 -13.087   5.729  1.00  0.00     0.408 C 
HETATM   17  F   UNL     1      42.580 -12.255   6.485  1.00  0.00    -0.169 F 
HETATM   18  F   UNL     1      44.310 -13.588   6.515  1.00  0.00    -0.169 F 
HETATM   19  F   UNL     1      43.922 -12.344   4.766  1.00  0.00    -0.169 F 
ENDBRANCH  15  16
ENDBRANCH  14  15
ENDBRANCH   8  14
ENDBRANCH   3   7
BRANCH   1  20
HETATM   20  C   UNL     1      39.658 -13.462  -0.419  1.00  0.00     0.086 A 
HETATM   21  C   UNL     1      38.950 -12.400   0.113  1.00  0.00     0.052 A 
HETATM   22  C   UNL     1      39.162 -11.552   1.310  1.00  0.00     0.072 C 
HETATM   23  N   UNL     1      37.876 -12.219  -0.711  1.00  0.00    -0.280 N 
HETATM   24  H   UNL     1      37.130 -11.537  -0.629  1.00  0.00     0.189 HD
HETATM   25  N   UNL     1      37.845 -13.056  -1.751  1.00  0.00    -0.177 NA
HETATM   26  C   UNL     1      38.934 -13.825  -1.593  1.00  0.00     0.079 A 
HETATM   27  C   UNL     1      39.229 -14.844  -2.630  1.00  0.00     0.075 C 
ENDBRANCH   1  20
TORSDOF 5
ENDMDL
MODEL 5
REMARK VINA RESULT:      -7.3      2.810      6.214
REMARK  5 active torsions:
REMARK  status: ('A' for Active; 'I' for Inactive)
REMARK    1  A    between atoms: C_8  and  N_9 
REMARK       I    between atoms: N_9  and  C_10 
REMARK       I    between atoms: C_10  and  N_11 
REMARK    2  A    between atoms: N_11  and  C_12 
REMARK    3  A    between atoms: C_13  and  O_14 
REMARK    4  A    between atoms: O_14  and  C_15 
REMARK    5  A    between atoms: C_15  and  C_16 
ROOT
HETATM    1  N   UNL     1      43.502 -17.495   2.448  1.00  0.00    -0.305 N 
HETATM    2  C   UNL     1      42.440 -16.609   2.458  1.00  0.00     0.325 C 
HETATM    3  N   UNL     1      42.639 -15.613   1.517  1.00  0.00    -0.306 N 
HETATM    4  O   UNL     1      41.460 -16.688   3.186  1.00  0.00    -0.247 OA
HETATM    5  H   UNL     1      44.036 -17.536   1.594  1.00  0.00     0.171 HD
HETATM    6  H   UNL     1      43.585 -15.494   1.177  1.00  0.00     0.171 HD
ENDROOT
BRANCH   3   7
HETATM    7  C   UNL     1      41.738 -14.596   1.133  1.00  0.00     0.072 A 
HETATM    8  C   UNL     1      41.956 -13.309   1.662  1.00  0.00     0.096 A 
HETATM    9  C   UNL     1      41.143 -12.232   1.300  1.00  0.00     0.042 A 
HETATM   10  C   UNL     1      40.079 -12.444   0.427  1.00  0.00     0.045 A 
HETATM   11  C   UNL     1      39.851 -13.719  -0.081  1.00  0.00     0.118 A 
HETATM   12  F   UNL     1      38.830 -13.911  -0.926  1.00  0.00    -0.206 F 
HETATM   13  C   UNL     1      40.671 -14.793   0.259  1.00  0.00     0.074 A 
BRANCH   8  14
HETATM   14  O   UNL     1      43.025 -13.135   2.508  1.00  0.00    -0.340 OA
BRANCH  14  15
HETATM   15  C   UNL     1      42.643 -12.452   3.718  1.00  0.00     0.293 C 
BRANCH  15  16
HETATM   16  C   UNL     1      42.376 -13.465   4.820  1.00  0.00     0.408 C 
HETATM   17  F   UNL     1      41.129 -13.978   4.721  1.00  0.00    -0.169 F 
HETATM   18  F   UNL     1      43.252 -14.493   4.774  1.00  0.00    -0.169 F 
HETATM   19  F   UNL     1      42.487 -12.888   6.038  1.00  0.00    -0.169 F 
ENDBRANCH  15  16
ENDBRANCH  14  15
ENDBRANCH   8  14
ENDBRANCH   3   7
BRANCH   1  20
HETATM   20  C   UNL     1      43.728 -18.519   3.352  1.00  0.00     0.086 A 
HETATM   21  C   UNL     1      43.774 -19.845   2.961  1.00  0.00     0.052 A 
HETATM   22  C   UNL     1      43.599 -20.510   1.648  1.00  0.00     0.072 C 
HETATM   23  N   UNL     1      44.019 -20.560   4.098  1.00  0.00    -0.280 N 
HETATM   24  H   UNL     1      44.107 -21.565   4.200  1.00  0.00     0.189 HD
HETATM   25  N   UNL     1      44.166 -19.806   5.190  1.00  0.00    -0.177 NA
HETATM   26  C   UNL     1      43.996 -18.548   4.752  1.00  0.00     0.079 A 
HETATM   27  C   UNL     1      44.154 -17.439   5.726  1.00  0.00     0.075 C 
ENDBRANCH   1  20
TORSDOF 5
ENDMDL
MODEL 6
REMARK VINA RESULT:      -7.2      2.822      6.391
REMARK  5 active torsions:
REMARK  status: ('A' for Active; 'I' for Inactive)
REMARK    1  A    between atoms: C_8  and  N_9 
REMARK       I    between atoms: N_9  and  C_10 
REMARK       I    between atoms: C_10  and  N_11 
REMARK    2  A    between atoms: N_11  and  C_12 
REMARK    3  A    between atoms: C_13  and  O_14 
REMARK    4  A    between atoms: O_14  and  C_15 
REMARK    5  A    between atoms: C_15  and  C_16 
ROOT
HETATM    1  N   UNL     1      43.533 -17.077   2.353  1.00  0.00    -0.305 N 
HETATM    2  C   UNL     1      42.335 -16.399   2.215  1.00  0.00     0.325 C 
HETATM    3  N   UNL     1      42.525 -15.239   1.482  1.00  0.00    -0.306 N 
HETATM    4  O   UNL     1      41.259 -16.763   2.668  1.00  0.00    -0.247 OA
HETATM    5  H   UNL     1      44.235 -16.883   1.656  1.00  0.00     0.171 HD
HETATM    6  H   UNL     1      43.478 -14.906   1.400  1.00  0.00     0.171 HD
ENDROOT
BRANCH   3   7
HETATM    7  C   UNL     1      41.540 -14.339   1.020  1.00  0.00     0.072 A 
HETATM    8  C   UNL     1      41.577 -13.026   1.529  1.00  0.00     0.096 A 
HETATM    9  C   UNL     1      40.671 -12.057   1.093  1.00  0.00     0.042 A 
HETATM   10  C   UNL     1      39.694 -12.404   0.164  1.00  0.00     0.045 A 
HETATM   11  C   UNL     1      39.644 -13.706  -0.325  1.00  0.00     0.118 A 
HETATM   12  F   UNL     1      38.706 -14.029  -1.225  1.00  0.00    -0.206 F 
HETATM   13  C   UNL     1      40.558 -14.673   0.089  1.00  0.00     0.074 A 
BRANCH   8  14
HETATM   14  O   UNL     1      42.565 -12.716   2.434  1.00  0.00    -0.340 OA
BRANCH  14  15
HETATM   15  C   UNL     1      42.018 -12.293   3.697  1.00  0.00     0.293 C 
BRANCH  15  16
HETATM   16  C   UNL     1      42.091 -13.433   4.699  1.00  0.00     0.408 C 
HETATM   17  F   UNL     1      43.213 -14.167   4.525  1.00  0.00    -0.169 F 
HETATM   18  F   UNL     1      42.088 -12.979   5.972  1.00  0.00    -0.169 F 
HETATM   19  F   UNL     1      41.032 -14.263   4.560  1.00  0.00    -0.169 F 
ENDBRANCH  15  16
ENDBRANCH  14  15
ENDBRANCH   8  14
ENDBRANCH   3   7
BRANCH   1  20
HETATM   20  C   UNL     1      43.763 -18.185   3.150  1.00  0.00     0.086 A 
HETATM   21  C   UNL     1      44.077 -18.069   4.492  1.00  0.00     0.052 A 
HETATM   22  C   UNL     1      44.264 -16.897   5.381  1.00  0.00     0.072 C 
HETATM   23  N   UNL     1      44.227 -19.346   4.952  1.00  0.00    -0.280 N 
HETATM   24  H   UNL     1      44.470 -19.652   5.887  1.00  0.00     0.189 HD
HETATM   25  N   UNL     1      44.008 -20.283   4.026  1.00  0.00    -0.177 NA
HETATM   26  C   UNL     1      43.716 -19.590   2.914  1.00  0.00     0.079 A 
HETATM   27  C   UNL     1      43.360 -20.348   1.688  1.00  0.00     0.075 C 
ENDBRANCH   1  20
TORSDOF 5
ENDMDL
MODEL 7
REMARK VINA RESULT:      -7.2      2.847      3.890
REMARK  5 active torsions:
REMARK  status: ('A' for Active; 'I' for Inactive)
REMARK    1  A    between atoms: C_8  and  N_9 
REMARK       I    between atoms: N_9  and  C_10 
REMARK       I    between atoms: C_10  and  N_11 
REMARK    2  A    between atoms: N_11  and  C_12 
REMARK    3  A    between atoms: C_13  and  O_14 
REMARK    4  A    between atoms: O_14  and  C_15 
REMARK    5  A    between atoms: C_15  and  C_16 
ROOT
HETATM    1  N   UNL     1      40.832 -13.804   0.183  1.00  0.00    -0.305 N 
HETATM    2  C   UNL     1      40.927 -14.806   1.132  1.00  0.00     0.325 C 
HETATM    3  N   UNL     1      42.237 -15.242   1.236  1.00  0.00    -0.306 N 
HETATM    4  O   UNL     1      39.996 -15.247   1.791  1.00  0.00    -0.247 OA
HETATM    5  H   UNL     1      41.680 -13.294  -0.010  1.00  0.00     0.171 HD
HETATM    6  H   UNL     1      42.855 -15.009   0.469  1.00  0.00     0.171 HD
ENDROOT
BRANCH   3   7
HETATM    7  C   UNL     1      42.769 -16.159   2.169  1.00  0.00     0.072 A 
HETATM    8  C   UNL     1      43.133 -15.654   3.433  1.00  0.00     0.096 A 
HETATM    9  C   UNL     1      43.623 -16.497   4.433  1.00  0.00     0.042 A 
HETATM   10  C   UNL     1      43.786 -17.853   4.164  1.00  0.00     0.045 A 
HETATM   11  C   UNL     1      43.446 -18.349   2.910  1.00  0.00     0.118 A 
HETATM   12  F   UNL     1      43.598 -19.657   2.663  1.00  0.00    -0.206 F 
HETATM   13  C   UNL     1      42.935 -17.519   1.914  1.00  0.00     0.074 A 
BRANCH   8  14
HETATM   14  O   UNL     1      42.943 -14.313   3.667  1.00  0.00    -0.340 OA
BRANCH  14  15
HETATM   15  C   UNL     1      41.991 -14.084   4.723  1.00  0.00     0.293 C 
BRANCH  15  16
HETATM   16  C   UNL     1      41.116 -12.890   4.379  1.00  0.00     0.408 C 
HETATM   17  F   UNL     1      41.533 -12.289   3.242  1.00  0.00    -0.169 F 
HETATM   18  F   UNL     1      39.825 -13.252   4.206  1.00  0.00    -0.169 F 
HETATM   19  F   UNL     1      41.152 -11.968   5.367  1.00  0.00    -0.169 F 
ENDBRANCH  15  16
ENDBRANCH  14  15
ENDBRANCH   8  14
ENDBRANCH   3   7
BRANCH   1  20
HETATM   20  C   UNL     1      39.665 -13.240  -0.305  1.00  0.00     0.086 A 
HETATM   21  C   UNL     1      38.953 -13.814  -1.342  1.00  0.00     0.052 A 
HETATM   22  C   UNL     1      39.180 -15.026  -2.164  1.00  0.00     0.072 C 
HETATM   23  N   UNL     1      37.875 -13.002  -1.548  1.00  0.00    -0.280 N 
HETATM   24  H   UNL     1      37.137 -13.100  -2.236  1.00  0.00     0.189 HD
HETATM   25  N   UNL     1      37.813 -11.964  -0.710  1.00  0.00    -0.177 NA
HETATM   26  C   UNL     1      38.901 -12.095   0.065  1.00  0.00     0.079 A 
HETATM   27  C   UNL     1      39.105 -11.113   1.159  1.00  0.00     0.075 C 
ENDBRANCH   1  20
TORSDOF 5
ENDMDL
MODEL 8
REMARK VINA RESULT:      -7.1      4.041      7.095
REMARK  5 active torsions:
REMARK  status: ('A' for Active; 'I' for Inactive)
REMARK    1  A    between atoms: C_8  and  N_9 
REMARK       I    between atoms: N_9  and  C_10 
REMARK       I    between atoms: C_10  and  N_11 
REMARK    2  A    between atoms: N_11  and  C_12 
REMARK    3  A    between atoms: C_13  and  O_14 
REMARK    4  A    between atoms: O_14  and  C_15 
REMARK    5  A    between atoms: C_15  and  C_16 
ROOT
HETATM    1  N   UNL     1      42.291 -14.963   1.351  1.00  0.00    -0.305 N 
HETATM    2  C   UNL     1      40.994 -14.913   0.874  1.00  0.00     0.325 C 
HETATM    3  N   UNL     1      40.921 -14.073  -0.224  1.00  0.00    -0.306 N 
HETATM    4  O   UNL     1      40.042 -15.520   1.344  1.00  0.00    -0.247 OA
HETATM    5  H   UNL     1      43.015 -14.731   0.691  1.00  0.00     0.171 HD
HETATM    6  H   UNL     1      41.690 -13.425  -0.351  1.00  0.00     0.171 HD
ENDROOT
BRANCH   3   7
HETATM    7  C   UNL     1      39.811 -13.848  -1.068  1.00  0.00     0.072 A 
HETATM    8  C   UNL     1      39.070 -12.669  -0.857  1.00  0.00     0.096 A 
HETATM    9  C   UNL     1      37.985 -12.342  -1.673  1.00  0.00     0.042 A 
HETATM   10  C   UNL     1      37.610 -13.214  -2.692  1.00  0.00     0.045 A 
HETATM   11  C   UNL     1      38.329 -14.389  -2.889  1.00  0.00     0.118 A 
HETATM   12  F   UNL     1      37.966 -15.217  -3.877  1.00  0.00    -0.206 F 
HETATM   13  C   UNL     1      39.427 -14.711  -2.092  1.00  0.00     0.074 A 
BRANCH   8  14
HETATM   14  O   UNL     1      39.479 -11.825   0.149  1.00  0.00    -0.340 OA
BRANCH  14  15
HETATM   15  C   UNL     1      38.458 -11.652   1.149  1.00  0.00     0.293 C 
BRANCH  15  16
HETATM   16  C   UNL     1      39.000 -12.048   2.513  1.00  0.00     0.408 C 
HETATM   17  F   UNL     1      38.626 -11.162   3.464  1.00  0.00    -0.169 F 
HETATM   18  F   UNL     1      38.559 -13.269   2.889  1.00  0.00    -0.169 F 
HETATM   19  F   UNL     1      40.351 -12.088   2.499  1.00  0.00    -0.169 F 
ENDBRANCH  15  16
ENDBRANCH  14  15
ENDBRANCH   8  14
ENDBRANCH   3   7
BRANCH   1  20
HETATM   20  C   UNL     1      42.713 -15.568   2.523  1.00  0.00     0.086 A 
HETATM   21  C   UNL     1      42.954 -14.842   3.676  1.00  0.00     0.052 A 
HETATM   22  C   UNL     1      42.875 -13.394   3.984  1.00  0.00     0.072 C 
HETATM   23  N   UNL     1      43.343 -15.753   4.615  1.00  0.00    -0.280 N 
HETATM   24  H   UNL     1      43.612 -15.586   5.578  1.00  0.00     0.189 HD
HETATM   25  N   UNL     1      43.344 -17.015   4.176  1.00  0.00    -0.177 NA
HETATM   26  C   UNL     1      42.955 -16.922   2.895  1.00  0.00     0.079 A 
HETATM   27  C   UNL     1      42.798 -18.177   2.118  1.00  0.00     0.075 C 
ENDBRANCH   1  20
TORSDOF 5
ENDMDL
MODEL 9
REMARK VINA RESULT:      -7.0      1.839      4.509
REMARK  5 active torsions:
REMARK  status: ('A' for Active; 'I' for Inactive)
REMARK    1  A    between atoms: C_8  and  N_9 
REMARK       I    between atoms: N_9  and  C_10 
REMARK       I    between atoms: C_10  and  N_11 
REMARK    2  A    between atoms: N_11  and  C_12 
REMARK    3  A    between atoms: C_13  and  O_14 
REMARK    4  A    between atoms: O_14  and  C_15 
REMARK    5  A    between atoms: C_15  and  C_16 
ROOT
HETATM    1  N   UNL     1      40.848 -14.251   2.164  1.00  0.00    -0.305 N 
HETATM    2  C   UNL     1      41.878 -14.560   3.033  1.00  0.00     0.325 C 
HETATM    3  N   UNL     1      41.426 -15.415   4.025  1.00  0.00    -0.306 N 
HETATM    4  O   UNL     1      43.026 -14.147   2.946  1.00  0.00    -0.247 OA
HETATM    5  H   UNL     1      40.088 -14.912   2.124  1.00  0.00     0.171 HD
HETATM    6  H   UNL     1      40.423 -15.467   4.156  1.00  0.00     0.171 HD
ENDROOT
BRANCH   3   7
HETATM    7  C   UNL     1      42.189 -16.056   5.025  1.00  0.00     0.072 A 
HETATM    8  C   UNL     1      42.894 -17.217   4.651  1.00  0.00     0.096 A 
HETATM    9  C   UNL     1      43.711 -17.890   5.563  1.00  0.00     0.042 A 
HETATM   10  C   UNL     1      43.803 -17.424   6.871  1.00  0.00     0.045 A 
HETATM   11  C   UNL     1      43.092 -16.288   7.246  1.00  0.00     0.118 A 
HETATM   12  F   UNL     1      43.193 -15.842   8.505  1.00  0.00    -0.206 F 
HETATM   13  C   UNL     1      42.292 -15.599   6.337  1.00  0.00     0.074 A 
BRANCH   8  14
HETATM   14  O   UNL     1      42.791 -17.639   3.347  1.00  0.00    -0.340 OA
BRANCH  14  15
HETATM   15  C   UNL     1      43.912 -18.456   2.960  1.00  0.00     0.293 C 
BRANCH  15  16
HETATM   16  C   UNL     1      43.420 -19.804   2.460  1.00  0.00     0.408 C 
HETATM   17  F   UNL     1      44.244 -20.306   1.513  1.00  0.00    -0.169 F 
HETATM   18  F   UNL     1      43.341 -20.709   3.461  1.00  0.00    -0.169 F 
HETATM   19  F   UNL     1      42.188 -19.692   1.913  1.00  0.00    -0.169 F 
ENDBRANCH  15  16
ENDBRANCH  14  15
ENDBRANCH   8  14
ENDBRANCH   3   7
BRANCH   1  20
HETATM   20  C   UNL     1      40.881 -13.308   1.151  1.00  0.00     0.086 A 
HETATM   21  C   UNL     1      40.379 -13.570  -0.111  1.00  0.00     0.052 A 
HETATM   22  C   UNL     1      39.753 -14.772  -0.712  1.00  0.00     0.072 C 
HETATM   23  N   UNL     1      40.573 -12.428  -0.833  1.00  0.00    -0.280 N 
HETATM   24  H   UNL     1      40.340 -12.252  -1.804  1.00  0.00     0.189 HD
HETATM   25  N   UNL     1      41.134 -11.436  -0.136  1.00  0.00    -0.177 NA
HETATM   26  C   UNL     1      41.326 -11.955   1.086  1.00  0.00     0.079 A 
HETATM   27  C   UNL     1      41.894 -11.077   2.139  1.00  0.00     0.075 C 
ENDBRANCH   1  20
TORSDOF 5
ENDMDL
MODEL 10
REMARK VINA RESULT:      -6.9      1.805      4.576
REMARK  5 active torsions:
REMARK  status: ('A' for Active; 'I' for Inactive)
REMARK    1  A    between atoms: C_8  and  N_9 
REMARK       I    between atoms: N_9  and  C_10 
REMARK       I    between atoms: C_10  and  N_11 
REMARK    2  A    between atoms: N_11  and  C_12 
REMARK    3  A    between atoms: C_13  and  O_14 
REMARK    4  A    between atoms: O_14  and  C_15 
REMARK    5  A    between atoms: C_15  and  C_16 
ROOT
HETATM    1  N   UNL     1      39.930 -14.425   2.787  1.00  0.00    -0.305 N 
HETATM    2  C   UNL     1      41.054 -14.508   3.587  1.00  0.00     0.325 C 
HETATM    3  N   UNL     1      40.908 -15.529   4.511  1.00  0.00    -0.306 N 
HETATM    4  O   UNL     1      42.041 -13.792   3.498  1.00  0.00    -0.247 OA
HETATM    5  H   UNL     1      39.375 -15.264   2.713  1.00  0.00     0.171 HD
HETATM    6  H   UNL     1      39.966 -15.863   4.672  1.00  0.00     0.171 HD
ENDROOT
BRANCH   3   7
HETATM    7  C   UNL     1      41.873 -16.014   5.421  1.00  0.00     0.072 A 
HETATM    8  C   UNL     1      42.753 -17.012   4.956  1.00  0.00     0.096 A 
HETATM    9  C   UNL     1      43.769 -17.516   5.771  1.00  0.00     0.042 A 
HETATM   10  C   UNL     1      43.892 -17.048   7.076  1.00  0.00     0.045 A 
HETATM   11  C   UNL     1      43.012 -16.076   7.543  1.00  0.00     0.118 A 
HETATM   12  F   UNL     1      43.144 -15.626   8.798  1.00  0.00    -0.206 F 
HETATM   13  C   UNL     1      42.010 -15.552   6.729  1.00  0.00     0.074 A 
BRANCH   8  14
HETATM   14  O   UNL     1      42.609 -17.439   3.657  1.00  0.00    -0.340 OA
BRANCH  14  15
HETATM   15  C   UNL     1      43.802 -18.086   3.174  1.00  0.00     0.293 C 
BRANCH  15  16
HETATM   16  C   UNL     1      43.462 -19.478   2.664  1.00  0.00     0.408 C 
HETATM   17  F   UNL     1      43.400 -20.369   3.678  1.00  0.00    -0.169 F 
HETATM   18  F   UNL     1      42.272 -19.496   2.023  1.00  0.00    -0.169 F 
HETATM   19  F   UNL     1      44.401 -19.912   1.793  1.00  0.00    -0.169 F 
ENDBRANCH  15  16
ENDBRANCH  14  15
ENDBRANCH   8  14
ENDBRANCH   3   7
BRANCH   1  20
HETATM   20  C   UNL     1      39.648 -13.432   1.864  1.00  0.00     0.086 A 
HETATM   21  C   UNL     1      39.305 -12.149   2.251  1.00  0.00     0.052 A 
HETATM   22  C   UNL     1      39.130 -11.515   3.579  1.00  0.00     0.072 C 
HETATM   23  N   UNL     1      39.107 -11.452   1.094  1.00  0.00    -0.280 N 
HETATM   24  H   UNL     1      38.833 -10.482   0.984  1.00  0.00     0.189 HD
HETATM   25  N   UNL     1      39.323 -12.168  -0.013  1.00  0.00    -0.177 NA
HETATM   26  C   UNL     1      39.661 -13.386   0.439  1.00  0.00     0.079 A 
HETATM   27  C   UNL     1      40.025 -14.426  -0.555  1.00  0.00     0.075 C 
ENDBRANCH   1  20
TORSDOF 5
ENDMDL
