MODEL 1
REMARK VINA RESULT:      -8.4      0.000      0.000
REMARK  5 active torsions:
REMARK  status: ('A' for Active; 'I' for Inactive)
REMARK    1  A    between atoms: C_4  and  N_5 
REMARK       I    between atoms: N_5  and  C_6 
REMARK       I    between atoms: C_6  and  N_7 
REMARK    2  A    between atoms: N_7  and  C_8 
REMARK    3  A    between atoms: C_11  and  C_12 
REMARK    4  A    between atoms: C_12  and  C_13 
REMARK       I    between atoms: C_13  and  N_14 
REMARK    5  A    between atoms: N_14  and  C_15 
ROOT
HETATM    1  C   UNL     1      39.135  -8.764  11.596  1.00  0.00     0.174 A 
HETATM    2  S   UNL     1      39.327  -7.149  12.115  1.00  0.00    -0.062 SA
HETATM    3  C   UNL     1      39.695  -6.699  10.505  1.00  0.00     0.081 A 
HETATM    4  C   UNL     1      39.605  -7.800   9.672  1.00  0.00     0.052 A 
HETATM    5  N   UNL     1      39.249  -8.984  10.310  1.00  0.00    -0.228 NA
ENDROOT
BRANCH   1   6
HETATM    6  N   UNL     1      38.869  -9.632  12.619  1.00  0.00    -0.287 N 
HETATM    7  C   UNL     1      39.702 -10.606  13.028  1.00  0.00     0.326 C 
HETATM    8  N   UNL     1      41.024 -10.414  13.248  1.00  0.00    -0.309 N 
HETATM    9  O   UNL     1      39.231 -11.726  13.253  1.00  0.00    -0.247 OA
HETATM   10  H   UNL     1      41.497 -11.301  13.368  1.00  0.00     0.170 HD
HETATM   11  H   UNL     1      37.887  -9.832  12.747  1.00  0.00     0.172 HD
BRANCH   8  12
HETATM   12  C   UNL     1      41.786  -9.277  13.584  1.00  0.00     0.036 A 
HETATM   13  C   UNL     1      41.678  -8.568  14.782  1.00  0.00     0.036 A 
HETATM   14  C   UNL     1      42.470  -7.434  15.031  1.00  0.00    -0.060 A 
HETATM   15  C   UNL     1      42.256  -6.632  16.280  1.00  0.00     0.048 C 
HETATM   16  C   UNL     1      43.410  -7.035  14.078  1.00  0.00     0.007 A 
HETATM   17  C   UNL     1      43.573  -7.771  12.908  1.00  0.00     0.003 A 
HETATM   18  C   UNL     1      42.763  -8.881  12.661  1.00  0.00     0.029 A 
ENDBRANCH   8  12
ENDBRANCH   1   6
BRANCH   4  19
HETATM   19  C   UNL     1      39.790  -7.795   8.197  1.00  0.00     0.163 C 
BRANCH  19  20
HETATM   20  C   UNL     1      41.254  -7.849   7.797  1.00  0.00     0.227 C 
HETATM   21  N   UNL     1      41.990  -8.704   8.603  1.00  0.00    -0.327 N 
HETATM   22  H   UNL     1      41.546  -8.967   9.477  1.00  0.00     0.169 HD
HETATM   23  O   UNL     1      41.665  -7.231   6.819  1.00  0.00    -0.273 OA
BRANCH  21  24
HETATM   24  C   UNL     1      43.304  -9.165   8.400  1.00  0.00     0.036 A 
HETATM   25  C   UNL     1      43.452 -10.383   7.720  1.00  0.00     0.056 A 
HETATM   26  C   UNL     1      44.725 -10.897   7.463  1.00  0.00     0.074 A 
HETATM   27 CL   UNL     1      44.876 -12.394   6.626  1.00  0.00    -0.081 Cl
HETATM   28  C   UNL     1      45.853 -10.201   7.884  1.00  0.00     0.138 A 
HETATM   29  F   UNL     1      47.083 -10.680   7.649  1.00  0.00    -0.204 F 
HETATM   30  C   UNL     1      45.721  -8.994   8.559  1.00  0.00     0.046 A 
HETATM   31  C   UNL     1      44.447  -8.474   8.814  1.00  0.00     0.032 A 
ENDBRANCH  21  24
ENDBRANCH  19  20
ENDBRANCH   4  19
TORSDOF 5
ENDMDL
MODEL 2
REMARK VINA RESULT:      -8.2      8.614     11.279
REMARK  5 active torsions:
REMARK  status: ('A' for Active; 'I' for Inactive)
REMARK    1  A    between atoms: C_4  and  N_5 
REMARK       I    between atoms: N_5  and  C_6 
REMARK       I    between atoms: C_6  and  N_7 
REMARK    2  A    between atoms: N_7  and  C_8 
REMARK    3  A    between atoms: C_11  and  C_12 
REMARK    4  A    between atoms: C_12  and  C_13 
REMARK       I    between atoms: C_13  and  N_14 
REMARK    5  A    between atoms: N_14  and  C_15 
ROOT
HETATM    1  C   UNL     1      41.787 -12.623   4.901  1.00  0.00     0.174 A 
HETATM    2  S   UNL     1      43.474 -12.468   4.684  1.00  0.00    -0.062 SA
HETATM    3  C   UNL     1      43.185 -11.409   3.371  1.00  0.00     0.081 A 
HETATM    4  C   UNL     1      41.825 -11.209   3.212  1.00  0.00     0.052 A 
HETATM    5  N   UNL     1      41.027 -11.893   4.123  1.00  0.00    -0.228 NA
ENDROOT
BRANCH   1   6
HETATM    6  N   UNL     1      41.448 -13.504   5.891  1.00  0.00    -0.287 N 
HETATM    7  C   UNL     1      40.498 -14.449   5.777  1.00  0.00     0.326 C 
HETATM    8  N   UNL     1      40.390 -15.275   4.709  1.00  0.00    -0.309 N 
HETATM    9  O   UNL     1      39.705 -14.600   6.712  1.00  0.00    -0.247 OA
HETATM   10  H   UNL     1      39.512 -15.778   4.736  1.00  0.00     0.170 HD
HETATM   11  H   UNL     1      41.581 -13.146   6.826  1.00  0.00     0.172 HD
BRANCH   8  12
HETATM   12  C   UNL     1      41.321 -15.741   3.759  1.00  0.00     0.036 A 
HETATM   13  C   UNL     1      42.168 -16.836   3.940  1.00  0.00     0.036 A 
HETATM   14  C   UNL     1      43.078 -17.225   2.942  1.00  0.00    -0.060 A 
HETATM   15  C   UNL     1      44.048 -18.338   3.208  1.00  0.00     0.048 C 
HETATM   16  C   UNL     1      43.104 -16.529   1.732  1.00  0.00     0.007 A 
HETATM   17  C   UNL     1      42.220 -15.476   1.514  1.00  0.00     0.003 A 
HETATM   18  C   UNL     1      41.338 -15.083   2.522  1.00  0.00     0.029 A 
ENDBRANCH   8  12
ENDBRANCH   1   6
BRANCH   4  19
HETATM   19  C   UNL     1      41.187 -10.304   2.220  1.00  0.00     0.163 C 
BRANCH  19  20
HETATM   20  C   UNL     1      40.999 -10.969   0.867  1.00  0.00     0.227 C 
HETATM   21  N   UNL     1      40.008 -11.937   0.888  1.00  0.00    -0.327 N 
HETATM   22  H   UNL     1      39.729 -12.255   1.810  1.00  0.00     0.169 HD
HETATM   23  O   UNL     1      41.642 -10.599  -0.112  1.00  0.00    -0.273 OA
BRANCH  21  24
HETATM   24  C   UNL     1      39.419 -12.594  -0.209  1.00  0.00     0.036 A 
HETATM   25  C   UNL     1      38.413 -11.901  -0.899  1.00  0.00     0.056 A 
HETATM   26  C   UNL     1      37.795 -12.478  -2.010  1.00  0.00     0.074 A 
HETATM   27 CL   UNL     1      36.564 -11.605  -2.839  1.00  0.00    -0.081 Cl
HETATM   28  C   UNL     1      38.174 -13.747  -2.436  1.00  0.00     0.138 A 
HETATM   29  F   UNL     1      37.590 -14.319  -3.498  1.00  0.00    -0.204 F 
HETATM   30  C   UNL     1      39.168 -14.444  -1.761  1.00  0.00     0.046 A 
HETATM   31  C   UNL     1      39.793 -13.867  -0.651  1.00  0.00     0.032 A 
ENDBRANCH  21  24
ENDBRANCH  19  20
ENDBRANCH   4  19
TORSDOF 5
ENDMDL
MODEL 3
REMARK VINA RESULT:      -8.1      7.827     10.508
REMARK  5 active torsions:
REMARK  status: ('A' for Active; 'I' for Inactive)
REMARK    1  A    between atoms: C_4  and  N_5 
REMARK       I    between atoms: N_5  and  C_6 
REMARK       I    between atoms: C_6  and  N_7 
REMARK    2  A    between atoms: N_7  and  C_8 
REMARK    3  A    between atoms: C_11  and  C_12 
REMARK    4  A    between atoms: C_12  and  C_13 
REMARK       I    between atoms: C_13  and  N_14 
REMARK    5  A    between atoms: N_14  and  C_15 
ROOT
HETATM    1  C   UNL     1      42.051 -13.572   6.152  1.00  0.00     0.174 A 
HETATM    2  S   UNL     1      43.745 -13.442   6.320  1.00  0.00    -0.062 SA
HETATM    3  C   UNL     1      43.712 -12.039   5.342  1.00  0.00     0.081 A 
HETATM    4  C   UNL     1      42.409 -11.737   4.987  1.00  0.00     0.052 A 
HETATM    5  N   UNL     1      41.452 -12.614   5.488  1.00  0.00    -0.228 NA
ENDROOT
BRANCH   1   6
HETATM    6  N   UNL     1      41.531 -14.682   6.758  1.00  0.00    -0.287 N 
HETATM    7  C   UNL     1      40.495 -15.396   6.282  1.00  0.00     0.326 C 
HETATM    8  N   UNL     1      40.390 -15.788   4.990  1.00  0.00    -0.309 N 
HETATM    9  O   UNL     1      39.611 -15.748   7.070  1.00  0.00    -0.247 OA
HETATM   10  H   UNL     1      39.463 -16.148   4.802  1.00  0.00     0.170 HD
HETATM   11  H   UNL     1      41.620 -14.684   7.764  1.00  0.00     0.172 HD
BRANCH   8  12
HETATM   12  C   UNL     1      41.342 -16.026   3.979  1.00  0.00     0.036 A 
HETATM   13  C   UNL     1      42.176 -17.144   3.911  1.00  0.00     0.036 A 
HETATM   14  C   UNL     1      43.110 -17.294   2.871  1.00  0.00    -0.060 A 
HETATM   15  C   UNL     1      44.063 -18.452   2.884  1.00  0.00     0.048 C 
HETATM   16  C   UNL     1      43.174 -16.327   1.866  1.00  0.00     0.007 A 
HETATM   17  C   UNL     1      42.305 -15.240   1.887  1.00  0.00     0.003 A 
HETATM   18  C   UNL     1      41.399 -15.088   2.938  1.00  0.00     0.029 A 
ENDBRANCH   8  12
ENDBRANCH   1   6
BRANCH   4  19
HETATM   19  C   UNL     1      41.971 -10.556   4.197  1.00  0.00     0.163 C 
BRANCH  19  20
HETATM   20  C   UNL     1      41.593 -10.922   2.773  1.00  0.00     0.227 C 
HETATM   21  N   UNL     1      40.301 -11.416   2.680  1.00  0.00    -0.327 N 
HETATM   22  H   UNL     1      39.883 -11.710   3.557  1.00  0.00     0.169 HD
HETATM   23  O   UNL     1      42.367 -10.717   1.841  1.00  0.00    -0.273 OA
BRANCH  21  24
HETATM   24  C   UNL     1      39.546 -11.648   1.515  1.00  0.00     0.036 A 
HETATM   25  C   UNL     1      39.974 -12.687   0.677  1.00  0.00     0.056 A 
HETATM   26  C   UNL     1      39.267 -12.991  -0.488  1.00  0.00     0.074 A 
HETATM   27 CL   UNL     1      39.816 -14.273  -1.498  1.00  0.00    -0.081 Cl
HETATM   28  C   UNL     1      38.132 -12.260  -0.822  1.00  0.00     0.138 A 
HETATM   29  F   UNL     1      37.441 -12.535  -1.938  1.00  0.00    -0.204 F 
HETATM   30  C   UNL     1      37.696 -11.227  -0.001  1.00  0.00     0.046 A 
HETATM   31  C   UNL     1      38.401 -10.923   1.169  1.00  0.00     0.032 A 
ENDBRANCH  21  24
ENDBRANCH  19  20
ENDBRANCH   4  19
TORSDOF 5
ENDMDL
MODEL 4
REMARK VINA RESULT:      -8.1      7.556     10.603
REMARK  5 active torsions:
REMARK  status: ('A' for Active; 'I' for Inactive)
REMARK    1  A    between atoms: C_4  and  N_5 
REMARK       I    between atoms: N_5  and  C_6 
REMARK       I    between atoms: C_6  and  N_7 
REMARK    2  A    between atoms: N_7  and  C_8 
REMARK    3  A    between atoms: C_11  and  C_12 
REMARK    4  A    between atoms: C_12  and  C_13 
REMARK       I    between atoms: C_13  and  N_14 
REMARK    5  A    between atoms: N_14  and  C_15 
ROOT
HETATM    1  C   UNL     1      41.963 -11.989   5.466  1.00  0.00     0.174 A 
HETATM    2  S   UNL     1      40.456 -11.208   5.651  1.00  0.00    -0.062 SA
HETATM    3  C   UNL     1      39.783 -12.686   6.193  1.00  0.00     0.081 A 
HETATM    4  C   UNL     1      40.760 -13.665   6.237  1.00  0.00     0.052 A 
HETATM    5  N   UNL     1      42.025 -13.242   5.844  1.00  0.00    -0.228 NA
ENDROOT
BRANCH   1   6
HETATM    6  N   UNL     1      42.932 -11.177   4.943  1.00  0.00    -0.287 N 
HETATM    7  C   UNL     1      43.874 -11.579   4.071  1.00  0.00     0.326 C 
HETATM    8  N   UNL     1      43.607 -12.327   2.975  1.00  0.00    -0.309 N 
HETATM    9  O   UNL     1      45.040 -11.214   4.257  1.00  0.00    -0.247 OA
HETATM   10  H   UNL     1      44.465 -12.670   2.562  1.00  0.00     0.170 HD
HETATM   11  H   UNL     1      43.212 -10.422   5.553  1.00  0.00     0.172 HD
BRANCH   8  12
HETATM   12  C   UNL     1      42.451 -12.496   2.187  1.00  0.00     0.036 A 
HETATM   13  C   UNL     1      41.842 -13.722   1.912  1.00  0.00     0.036 A 
HETATM   14  C   UNL     1      40.697 -13.801   1.102  1.00  0.00    -0.060 A 
HETATM   15  C   UNL     1      40.129 -15.140   0.739  1.00  0.00     0.048 C 
HETATM   16  C   UNL     1      40.134 -12.626   0.599  1.00  0.00     0.007 A 
HETATM   17  C   UNL     1      40.693 -11.392   0.918  1.00  0.00     0.003 A 
HETATM   18  C   UNL     1      41.846 -11.328   1.702  1.00  0.00     0.029 A 
ENDBRANCH   8  12
ENDBRANCH   1   6
BRANCH   4  19
HETATM   19  C   UNL     1      40.575 -15.060   6.718  1.00  0.00     0.163 C 
BRANCH  19  20
HETATM   20  C   UNL     1      40.768 -16.082   5.612  1.00  0.00     0.227 C 
HETATM   21  N   UNL     1      42.091 -16.182   5.211  1.00  0.00    -0.327 N 
HETATM   22  H   UNL     1      42.692 -15.415   5.496  1.00  0.00     0.169 HD
HETATM   23  O   UNL     1      39.827 -16.759   5.207  1.00  0.00    -0.273 OA
BRANCH  21  24
HETATM   24  C   UNL     1      42.671 -17.159   4.379  1.00  0.00     0.036 A 
HETATM   25  C   UNL     1      43.315 -18.231   5.013  1.00  0.00     0.056 A 
HETATM   26  C   UNL     1      43.897 -19.251   4.258  1.00  0.00     0.074 A 
HETATM   27 CL   UNL     1      44.682 -20.555   5.063  1.00  0.00    -0.081 Cl
HETATM   28  C   UNL     1      43.841 -19.204   2.869  1.00  0.00     0.138 A 
HETATM   29  F   UNL     1      44.397 -20.172   2.125  1.00  0.00    -0.204 F 
HETATM   30  C   UNL     1      43.207 -18.148   2.227  1.00  0.00     0.046 A 
HETATM   31  C   UNL     1      42.618 -17.128   2.982  1.00  0.00     0.032 A 
ENDBRANCH  21  24
ENDBRANCH  19  20
ENDBRANCH   4  19
TORSDOF 5
ENDMDL
MODEL 5
REMARK VINA RESULT:      -8.1      7.198      9.946
REMARK  5 active torsions:
REMARK  status: ('A' for Active; 'I' for Inactive)
REMARK    1  A    between atoms: C_4  and  N_5 
REMARK       I    between atoms: N_5  and  C_6 
REMARK       I    between atoms: C_6  and  N_7 
REMARK    2  A    between atoms: N_7  and  C_8 
REMARK    3  A    between atoms: C_11  and  C_12 
REMARK    4  A    between atoms: C_12  and  C_13 
REMARK       I    between atoms: C_13  and  N_14 
REMARK    5  A    between atoms: N_14  and  C_15 
ROOT
HETATM    1  C   UNL     1      41.749 -11.709   2.525  1.00  0.00     0.174 A 
HETATM    2  S   UNL     1      40.090 -11.519   2.173  1.00  0.00    -0.062 SA
HETATM    3  C   UNL     1      40.106 -13.039   1.386  1.00  0.00     0.081 A 
HETATM    4  C   UNL     1      41.363 -13.609   1.480  1.00  0.00     0.052 A 
HETATM    5  N   UNL     1      42.298 -12.845   2.170  1.00  0.00    -0.228 NA
ENDROOT
BRANCH   1   6
HETATM    6  N   UNL     1      42.295 -10.626   3.158  1.00  0.00    -0.287 N 
HETATM    7  C   UNL     1      41.834 -10.102   4.307  1.00  0.00     0.326 C 
HETATM    8  N   UNL     1      41.516 -10.846   5.393  1.00  0.00    -0.309 N 
HETATM    9  O   UNL     1      41.730  -8.874   4.393  1.00  0.00    -0.247 OA
HETATM   10  H   UNL     1      41.021 -10.286   6.075  1.00  0.00     0.170 HD
HETATM   11  H   UNL     1      42.737  -9.964   2.536  1.00  0.00     0.172 HD
BRANCH   8  12
HETATM   12  C   UNL     1      41.944 -12.109   5.849  1.00  0.00     0.036 A 
HETATM   13  C   UNL     1      41.153 -13.260   5.874  1.00  0.00     0.036 A 
HETATM   14  C   UNL     1      41.658 -14.478   6.360  1.00  0.00    -0.060 A 
HETATM   15  C   UNL     1      40.754 -15.670   6.473  1.00  0.00     0.048 C 
HETATM   16  C   UNL     1      42.986 -14.547   6.787  1.00  0.00     0.007 A 
HETATM   17  C   UNL     1      43.803 -13.423   6.707  1.00  0.00     0.003 A 
HETATM   18  C   UNL     1      43.284 -12.212   6.246  1.00  0.00     0.029 A 
ENDBRANCH   8  12
ENDBRANCH   1   6
BRANCH   4  19
HETATM   19  C   UNL     1      41.751 -14.953   0.976  1.00  0.00     0.163 C 
BRANCH  19  20
HETATM   20  C   UNL     1      41.734 -16.008   2.069  1.00  0.00     0.227 C 
HETATM   21  N   UNL     1      42.780 -16.909   1.948  1.00  0.00    -0.327 N 
HETATM   22  H   UNL     1      43.245 -16.918   1.046  1.00  0.00     0.169 HD
HETATM   23  O   UNL     1      40.898 -15.972   2.968  1.00  0.00    -0.273 OA
BRANCH  21  24
HETATM   24  C   UNL     1      43.204 -17.872   2.884  1.00  0.00     0.036 A 
HETATM   25  C   UNL     1      43.254 -17.473   4.227  1.00  0.00     0.056 A 
HETATM   26  C   UNL     1      43.645 -18.376   5.217  1.00  0.00     0.074 A 
HETATM   27 CL   UNL     1      43.697 -17.858   6.859  1.00  0.00    -0.081 Cl
HETATM   28  C   UNL     1      43.990 -19.678   4.872  1.00  0.00     0.138 A 
HETATM   29  F   UNL     1      44.372 -20.560   5.808  1.00  0.00    -0.204 F 
HETATM   30  C   UNL     1      43.946 -20.087   3.545  1.00  0.00     0.046 A 
HETATM   31  C   UNL     1      43.549 -19.186   2.552  1.00  0.00     0.032 A 
ENDBRANCH  21  24
ENDBRANCH  19  20
ENDBRANCH   4  19
TORSDOF 5
ENDMDL
MODEL 6
REMARK VINA RESULT:      -8.0      7.411      9.784
REMARK  5 active torsions:
REMARK  status: ('A' for Active; 'I' for Inactive)
REMARK    1  A    between atoms: C_4  and  N_5 
REMARK       I    between atoms: N_5  and  C_6 
REMARK       I    between atoms: C_6  and  N_7 
REMARK    2  A    between atoms: N_7  and  C_8 
REMARK    3  A    between atoms: C_11  and  C_12 
REMARK    4  A    between atoms: C_12  and  C_13 
REMARK       I    between atoms: C_13  and  N_14 
REMARK    5  A    between atoms: N_14  and  C_15 
ROOT
HETATM    1  C   UNL     1      41.039 -11.150   2.208  1.00  0.00     0.174 A 
HETATM    2  S   UNL     1      39.421 -10.701   1.900  1.00  0.00    -0.062 SA
HETATM    3  C   UNL     1      39.201 -12.168   1.046  1.00  0.00     0.081 A 
HETATM    4  C   UNL     1      40.360 -12.922   1.089  1.00  0.00     0.052 A 
HETATM    5  N   UNL     1      41.408 -12.336   1.791  1.00  0.00    -0.228 NA
ENDROOT
BRANCH   1   6
HETATM    6  N   UNL     1      41.749 -10.190   2.876  1.00  0.00    -0.287 N 
HETATM    7  C   UNL     1      41.373  -9.639   4.044  1.00  0.00     0.326 C 
HETATM    8  N   UNL     1      40.937 -10.360   5.104  1.00  0.00    -0.309 N 
HETATM    9  O   UNL     1      41.466  -8.414   4.172  1.00  0.00    -0.247 OA
HETATM   10  H   UNL     1      40.535  -9.751   5.806  1.00  0.00     0.170 HD
HETATM   11  H   UNL     1      42.292  -9.586   2.277  1.00  0.00     0.172 HD
BRANCH   8  12
HETATM   12  C   UNL     1      41.156 -11.690   5.516  1.00  0.00     0.036 A 
HETATM   13  C   UNL     1      42.383 -12.203   5.942  1.00  0.00     0.036 A 
HETATM   14  C   UNL     1      42.516 -13.549   6.323  1.00  0.00    -0.060 A 
HETATM   15  C   UNL     1      43.867 -14.097   6.674  1.00  0.00     0.048 C 
HETATM   16  C   UNL     1      41.390 -14.376   6.315  1.00  0.00     0.007 A 
HETATM   17  C   UNL     1      40.149 -13.861   5.954  1.00  0.00     0.003 A 
HETATM   18  C   UNL     1      40.034 -12.528   5.553  1.00  0.00     0.029 A 
ENDBRANCH   8  12
ENDBRANCH   1   6
BRANCH   4  19
HETATM   19  C   UNL     1      40.537 -14.283   0.518  1.00  0.00     0.163 C 
BRANCH  19  20
HETATM   20  C   UNL     1      40.787 -15.331   1.588  1.00  0.00     0.227 C 
HETATM   21  N   UNL     1      42.059 -15.876   1.506  1.00  0.00    -0.327 N 
HETATM   22  H   UNL     1      42.546 -15.715   0.630  1.00  0.00     0.169 HD
HETATM   23  O   UNL     1      39.939 -15.576   2.441  1.00  0.00    -0.273 OA
BRANCH  21  24
HETATM   24  C   UNL     1      42.708 -16.700   2.445  1.00  0.00     0.036 A 
HETATM   25  C   UNL     1      42.896 -18.043   2.088  1.00  0.00     0.056 A 
HETATM   26  C   UNL     1      43.549 -18.919   2.957  1.00  0.00     0.074 A 
HETATM   27 CL   UNL     1      43.766 -20.563   2.494  1.00  0.00    -0.081 Cl
HETATM   28  C   UNL     1      44.014 -18.460   4.185  1.00  0.00     0.138 A 
HETATM   29  F   UNL     1      44.640 -19.286   5.036  1.00  0.00    -0.204 F 
HETATM   30  C   UNL     1      43.834 -17.132   4.552  1.00  0.00     0.046 A 
HETATM   31  C   UNL     1      43.185 -16.251   3.680  1.00  0.00     0.032 A 
ENDBRANCH  21  24
ENDBRANCH  19  20
ENDBRANCH   4  19
TORSDOF 5
ENDMDL
MODEL 7
REMARK VINA RESULT:      -7.9      4.043      5.970
REMARK  5 active torsions:
REMARK  status: ('A' for Active; 'I' for Inactive)
REMARK    1  A    between atoms: C_4  and  N_5 
REMARK       I    between atoms: N_5  and  C_6 
REMARK       I    between atoms: C_6  and  N_7 
REMARK    2  A    between atoms: N_7  and  C_8 
REMARK    3  A    between atoms: C_11  and  C_12 
REMARK    4  A    between atoms: C_12  and  C_13 
REMARK       I    between atoms: C_13  and  N_14 
REMARK    5  A    between atoms: N_14  and  C_15 
ROOT
HETATM    1  C   UNL     1      40.863  -9.116   7.973  1.00  0.00     0.174 A 
HETATM    2  S   UNL     1      41.761  -8.172   6.869  1.00  0.00    -0.062 SA
HETATM    3  C   UNL     1      41.239  -9.198   5.603  1.00  0.00     0.081 A 
HETATM    4  C   UNL     1      40.382 -10.165   6.097  1.00  0.00     0.052 A 
HETATM    5  N   UNL     1      40.147 -10.088   7.466  1.00  0.00    -0.228 NA
ENDROOT
BRANCH   1   6
HETATM    6  N   UNL     1      41.008  -8.712   9.272  1.00  0.00    -0.287 N 
HETATM    7  C   UNL     1      41.481  -9.488  10.263  1.00  0.00     0.326 C 
HETATM    8  N   UNL     1      42.597 -10.247  10.149  1.00  0.00    -0.309 N 
HETATM    9  O   UNL     1      40.891  -9.480  11.348  1.00  0.00    -0.247 OA
HETATM   10  H   UNL     1      42.673 -10.886  10.930  1.00  0.00     0.170 HD
HETATM   11  H   UNL     1      40.342  -8.011   9.563  1.00  0.00     0.172 HD
BRANCH   8  12
HETATM   12  C   UNL     1      43.746 -10.148   9.340  1.00  0.00     0.036 A 
HETATM   13  C   UNL     1      44.002 -10.934   8.214  1.00  0.00     0.036 A 
HETATM   14  C   UNL     1      45.184 -10.777   7.471  1.00  0.00    -0.060 A 
HETATM   15  C   UNL     1      45.479 -11.707   6.331  1.00  0.00     0.048 C 
HETATM   16  C   UNL     1      46.099  -9.789   7.841  1.00  0.00     0.007 A 
HETATM   17  C   UNL     1      45.826  -8.956   8.922  1.00  0.00     0.003 A 
HETATM   18  C   UNL     1      44.660  -9.138   9.669  1.00  0.00     0.029 A 
ENDBRANCH   8  12
ENDBRANCH   1   6
BRANCH   4  19
HETATM   19  C   UNL     1      39.673 -11.196   5.293  1.00  0.00     0.163 C 
BRANCH  19  20
HETATM   20  C   UNL     1      40.156 -12.602   5.602  1.00  0.00     0.227 C 
HETATM   21  N   UNL     1      41.358 -12.896   4.978  1.00  0.00    -0.327 N 
HETATM   22  H   UNL     1      41.620 -12.272   4.221  1.00  0.00     0.169 HD
HETATM   23  O   UNL     1      39.536 -13.326   6.377  1.00  0.00    -0.273 OA
BRANCH  21  24
HETATM   24  C   UNL     1      42.200 -14.002   5.203  1.00  0.00     0.036 A 
HETATM   25  C   UNL     1      42.372 -14.896   4.137  1.00  0.00     0.056 A 
HETATM   26  C   UNL     1      43.207 -16.006   4.275  1.00  0.00     0.074 A 
HETATM   27 CL   UNL     1      43.398 -17.088   2.949  1.00  0.00    -0.081 Cl
HETATM   28  C   UNL     1      43.871 -16.231   5.476  1.00  0.00     0.138 A 
HETATM   29  F   UNL     1      44.675 -17.293   5.629  1.00  0.00    -0.204 F 
HETATM   30  C   UNL     1      43.710 -15.353   6.541  1.00  0.00     0.046 A 
HETATM   31  C   UNL     1      42.878 -14.237   6.403  1.00  0.00     0.032 A 
ENDBRANCH  21  24
ENDBRANCH  19  20
ENDBRANCH   4  19
TORSDOF 5
ENDMDL
MODEL 8
REMARK VINA RESULT:      -7.9      6.375      9.671
REMARK  5 active torsions:
REMARK  status: ('A' for Active; 'I' for Inactive)
REMARK    1  A    between atoms: C_4  and  N_5 
REMARK       I    between atoms: N_5  and  C_6 
REMARK       I    between atoms: C_6  and  N_7 
REMARK    2  A    between atoms: N_7  and  C_8 
REMARK    3  A    between atoms: C_11  and  C_12 
REMARK    4  A    between atoms: C_12  and  C_13 
REMARK       I    between atoms: C_13  and  N_14 
REMARK    5  A    between atoms: N_14  and  C_15 
ROOT
HETATM    1  C   UNL     1      40.921 -14.468   4.196  1.00  0.00     0.174 A 
HETATM    2  S   UNL     1      40.536 -14.720   5.839  1.00  0.00    -0.062 SA
HETATM    3  C   UNL     1      41.790 -13.640   6.275  1.00  0.00     0.081 A 
HETATM    4  C   UNL     1      42.391 -13.127   5.140  1.00  0.00     0.052 A 
HETATM    5  N   UNL     1      41.859 -13.589   3.941  1.00  0.00    -0.228 NA
ENDROOT
BRANCH   1   6
HETATM    6  N   UNL     1      40.172 -15.231   3.341  1.00  0.00    -0.287 N 
HETATM    7  C   UNL     1      40.597 -15.677   2.146  1.00  0.00     0.326 C 
HETATM    8  N   UNL     1      41.803 -16.261   1.952  1.00  0.00    -0.309 N 
HETATM    9  O   UNL     1      39.833 -15.585   1.179  1.00  0.00    -0.247 OA
HETATM   10  H   UNL     1      41.998 -16.352   0.963  1.00  0.00     0.170 HD
HETATM   11  H   UNL     1      39.178 -15.065   3.404  1.00  0.00     0.172 HD
BRANCH   8  12
HETATM   12  C   UNL     1      42.676 -16.965   2.805  1.00  0.00     0.036 A 
HETATM   13  C   UNL     1      43.188 -16.475   4.008  1.00  0.00     0.036 A 
HETATM   14  C   UNL     1      44.066 -17.242   4.792  1.00  0.00    -0.060 A 
HETATM   15  C   UNL     1      44.681 -16.648   6.024  1.00  0.00     0.048 C 
HETATM   16  C   UNL     1      44.400 -18.533   4.379  1.00  0.00     0.007 A 
HETATM   17  C   UNL     1      43.847 -19.058   3.214  1.00  0.00     0.003 A 
HETATM   18  C   UNL     1      42.995 -18.277   2.431  1.00  0.00     0.029 A 
ENDBRANCH   8  12
ENDBRANCH   1   6
BRANCH   4  19
HETATM   19  C   UNL     1      43.475 -12.110   5.110  1.00  0.00     0.163 C 
BRANCH  19  20
HETATM   20  C   UNL     1      44.052 -11.840   6.489  1.00  0.00     0.227 C 
HETATM   21  N   UNL     1      43.713 -10.584   6.966  1.00  0.00    -0.327 N 
HETATM   22  H   UNL     1      43.368  -9.931   6.270  1.00  0.00     0.169 HD
HETATM   23  O   UNL     1      44.686 -12.705   7.088  1.00  0.00    -0.273 OA
BRANCH  21  24
HETATM   24  C   UNL     1      43.883 -10.081   8.270  1.00  0.00     0.036 A 
HETATM   25  C   UNL     1      42.740  -9.586   8.914  1.00  0.00     0.056 A 
HETATM   26  C   UNL     1      42.823  -9.089  10.216  1.00  0.00     0.074 A 
HETATM   27 CL   UNL     1      41.403  -8.488  10.982  1.00  0.00    -0.081 Cl
HETATM   28  C   UNL     1      44.045  -9.079  10.879  1.00  0.00     0.138 A 
HETATM   29  F   UNL     1      44.147  -8.602  12.128  1.00  0.00    -0.204 F 
HETATM   30  C   UNL     1      45.187  -9.565  10.253  1.00  0.00     0.046 A 
HETATM   31  C   UNL     1      45.105 -10.070   8.951  1.00  0.00     0.032 A 
ENDBRANCH  21  24
ENDBRANCH  19  20
ENDBRANCH   4  19
TORSDOF 5
ENDMDL
MODEL 9
REMARK VINA RESULT:      -7.8      8.399     11.055
REMARK  5 active torsions:
REMARK  status: ('A' for Active; 'I' for Inactive)
REMARK    1  A    between atoms: C_4  and  N_5 
REMARK       I    between atoms: N_5  and  C_6 
REMARK       I    between atoms: C_6  and  N_7 
REMARK    2  A    between atoms: N_7  and  C_8 
REMARK    3  A    between atoms: C_11  and  C_12 
REMARK    4  A    between atoms: C_12  and  C_13 
REMARK       I    between atoms: C_13  and  N_14 
REMARK    5  A    between atoms: N_14  and  C_15 
ROOT
HETATM    1  C   UNL     1      42.908 -12.638   5.066  1.00  0.00     0.174 A 
HETATM    2  S   UNL     1      43.965 -11.940   3.921  1.00  0.00    -0.062 SA
HETATM    3  C   UNL     1      42.613 -11.258   3.124  1.00  0.00     0.081 A 
HETATM    4  C   UNL     1      41.451 -11.571   3.806  1.00  0.00     0.052 A 
HETATM    5  N   UNL     1      41.637 -12.344   4.947  1.00  0.00    -0.228 NA
ENDROOT
BRANCH   1   6
HETATM    6  N   UNL     1      43.549 -13.423   5.985  1.00  0.00    -0.287 N 
HETATM    7  C   UNL     1      42.957 -14.393   6.704  1.00  0.00     0.326 C 
HETATM    8  N   UNL     1      42.132 -15.323   6.166  1.00  0.00    -0.309 N 
HETATM    9  O   UNL     1      43.208 -14.466   7.911  1.00  0.00    -0.247 OA
HETATM   10  H   UNL     1      41.655 -15.838   6.896  1.00  0.00     0.170 HD
HETATM   11  H   UNL     1      44.329 -12.971   6.442  1.00  0.00     0.172 HD
BRANCH   8  12
HETATM   12  C   UNL     1      42.010 -15.863   4.871  1.00  0.00     0.036 A 
HETATM   13  C   UNL     1      42.857 -16.829   4.323  1.00  0.00     0.036 A 
HETATM   14  C   UNL     1      42.670 -17.304   3.014  1.00  0.00    -0.060 A 
HETATM   15  C   UNL     1      43.657 -18.262   2.418  1.00  0.00     0.048 C 
HETATM   16  C   UNL     1      41.592 -16.830   2.263  1.00  0.00     0.007 A 
HETATM   17  C   UNL     1      40.703 -15.915   2.819  1.00  0.00     0.003 A 
HETATM   18  C   UNL     1      40.914 -15.432   4.112  1.00  0.00     0.029 A 
ENDBRANCH   8  12
ENDBRANCH   1   6
BRANCH   4  19
HETATM   19  C   UNL     1      40.083 -11.105   3.458  1.00  0.00     0.163 C 
BRANCH  19  20
HETATM   20  C   UNL     1      39.365 -12.063   2.524  1.00  0.00     0.227 C 
HETATM   21  N   UNL     1      39.662 -11.821   1.191  1.00  0.00    -0.327 N 
HETATM   22  H   UNL     1      40.083 -10.919   0.995  1.00  0.00     0.169 HD
HETATM   23  O   UNL     1      38.665 -12.970   2.965  1.00  0.00    -0.273 OA
BRANCH  21  24
HETATM   24  C   UNL     1      39.360 -12.630   0.079  1.00  0.00     0.036 A 
HETATM   25  C   UNL     1      38.323 -12.195  -0.760  1.00  0.00     0.056 A 
HETATM   26  C   UNL     1      37.978 -12.932  -1.894  1.00  0.00     0.074 A 
HETATM   27 CL   UNL     1      36.701 -12.374  -2.906  1.00  0.00    -0.081 Cl
HETATM   28  C   UNL     1      38.661 -14.105  -2.195  1.00  0.00     0.138 A 
HETATM   29  F   UNL     1      38.342 -14.828  -3.278  1.00  0.00    -0.204 F 
HETATM   30  C   UNL     1      39.690 -14.548  -1.373  1.00  0.00     0.046 A 
HETATM   31  C   UNL     1      40.042 -13.809  -0.238  1.00  0.00     0.032 A 
ENDBRANCH  21  24
ENDBRANCH  19  20
ENDBRANCH   4  19
TORSDOF 5
ENDMDL
MODEL 10
REMARK VINA RESULT:      -7.8      6.027      7.940
REMARK  5 active torsions:
REMARK  status: ('A' for Active; 'I' for Inactive)
REMARK    1  A    between atoms: C_4  and  N_5 
REMARK       I    between atoms: N_5  and  C_6 
REMARK       I    between atoms: C_6  and  N_7 
REMARK    2  A    between atoms: N_7  and  C_8 
REMARK    3  A    between atoms: C_11  and  C_12 
REMARK    4  A    between atoms: C_12  and  C_13 
REMARK       I    between atoms: C_13  and  N_14 
REMARK    5  A    between atoms: N_14  and  C_15 
ROOT
HETATM    1  C   UNL     1      41.536 -11.333   5.803  1.00  0.00     0.174 A 
HETATM    2  S   UNL     1      42.667 -10.779   4.651  1.00  0.00    -0.062 SA
HETATM    3  C   UNL     1      43.690 -12.090   5.058  1.00  0.00     0.081 A 
HETATM    4  C   UNL     1      43.084 -12.887   6.013  1.00  0.00     0.052 A 
HETATM    5  N   UNL     1      41.824 -12.456   6.414  1.00  0.00    -0.228 NA
ENDROOT
BRANCH   1   6
HETATM    6  N   UNL     1      40.447 -10.514   5.930  1.00  0.00    -0.287 N 
HETATM    7  C   UNL     1      39.839 -10.230   7.096  1.00  0.00     0.326 C 
HETATM    8  N   UNL     1      40.507  -9.875   8.219  1.00  0.00    -0.309 N 
HETATM    9  O   UNL     1      38.605 -10.256   7.135  1.00  0.00    -0.247 OA
HETATM   10  H   UNL     1      39.886  -9.886   9.019  1.00  0.00     0.170 HD
HETATM   11  H   UNL     1      39.842 -10.504   5.121  1.00  0.00     0.172 HD
BRANCH   8  12
HETATM   12  C   UNL     1      41.761  -9.273   8.440  1.00  0.00     0.036 A 
HETATM   13  C   UNL     1      42.920  -9.955   8.818  1.00  0.00     0.036 A 
HETATM   14  C   UNL     1      44.129  -9.272   9.031  1.00  0.00    -0.060 A 
HETATM   15  C   UNL     1      45.328 -10.017   9.538  1.00  0.00     0.048 C 
HETATM   16  C   UNL     1      44.182  -7.893   8.821  1.00  0.00     0.007 A 
HETATM   17  C   UNL     1      43.050  -7.211   8.383  1.00  0.00     0.003 A 
HETATM   18  C   UNL     1      41.848  -7.896   8.198  1.00  0.00     0.029 A 
ENDBRANCH   8  12
ENDBRANCH   1   6
BRANCH   4  19
HETATM   19  C   UNL     1      43.632 -14.152   6.569  1.00  0.00     0.163 C 
BRANCH  19  20
HETATM   20  C   UNL     1      43.047 -15.381   5.896  1.00  0.00     0.227 C 
HETATM   21  N   UNL     1      43.859 -15.864   4.882  1.00  0.00    -0.327 N 
HETATM   22  H   UNL     1      44.571 -15.222   4.550  1.00  0.00     0.169 HD
HETATM   23  O   UNL     1      41.998 -15.880   6.296  1.00  0.00    -0.273 OA
BRANCH  21  24
HETATM   24  C   UNL     1      43.749 -17.090   4.197  1.00  0.00     0.036 A 
HETATM   25  C   UNL     1      44.173 -18.239   4.880  1.00  0.00     0.056 A 
HETATM   26  C   UNL     1      44.078 -19.494   4.276  1.00  0.00     0.074 A 
HETATM   27 CL   UNL     1      44.607 -20.887   5.138  1.00  0.00    -0.081 Cl
HETATM   28  C   UNL     1      43.563 -19.608   2.989  1.00  0.00     0.138 A 
HETATM   29  F   UNL     1      43.466 -20.804   2.390  1.00  0.00    -0.204 F 
HETATM   30  C   UNL     1      43.139 -18.478   2.301  1.00  0.00     0.046 A 
HETATM   31  C   UNL     1      43.228 -17.219   2.906  1.00  0.00     0.032 A 
ENDBRANCH  21  24
ENDBRANCH  19  20
ENDBRANCH   4  19
TORSDOF 5
ENDMDL
