MODEL 1
REMARK VINA RESULT:      -9.5      0.000      0.000
REMARK  8 active torsions:
REMARK  status: ('A' for Active; 'I' for Inactive)
REMARK    1  A    between atoms: C_2  and  C_3 
REMARK    2  A    between atoms: C_3  and  C_4 
REMARK    3  A    between atoms: C_3  and  C_38 
REMARK    4  A    between atoms: C_6  and  C_7 
REMARK    5  A    between atoms: C_14  and  C_15 
REMARK    6  A    between atoms: C_18  and  C_19 
REMARK    7  A    between atoms: C_19  and  N_20 
REMARK       I    between atoms: N_20  and  C_21 
REMARK       I    between atoms: C_21  and  N_22 
REMARK    8  A    between atoms: N_22  and  C_23 
ROOT
HETATM    1  C   UNL     1      42.586  -9.428  10.751  1.00  0.00     0.037 A 
HETATM    2  C   UNL     1      41.315  -9.062  11.204  1.00  0.00     0.052 A 
HETATM    3  C   UNL     1      41.168  -8.270  12.351  1.00  0.00     0.046 A 
HETATM    4  C   UNL     1      39.856  -7.914  12.804  1.00  0.00     0.099 C 
HETATM    5  N   UNL     1      38.783  -7.635  13.146  1.00  0.00    -0.191 NA
HETATM    6  C   UNL     1      42.298  -7.842  13.053  1.00  0.00     0.023 A 
HETATM    7  C   UNL     1      43.568  -8.207  12.610  1.00  0.00     0.004 A 
HETATM    8  C   UNL     1      43.710  -9.001  11.467  1.00  0.00     0.029 A 
ENDROOT
BRANCH   1   9
HETATM    9  N   UNL     1      42.800 -10.251   9.624  1.00  0.00    -0.309 N 
HETATM   10  C   UNL     1      42.791  -9.860   8.310  1.00  0.00     0.320 C 
HETATM   11  N   UNL     1      42.811 -10.935   7.452  1.00  0.00    -0.341 N 
HETATM   12  O   UNL     1      42.813  -8.710   7.884  1.00  0.00    -0.247 OA
HETATM   13  H   UNL     1      42.411 -11.778   7.850  1.00  0.00     0.164 HD
HETATM   14  H   UNL     1      43.126 -11.189   9.814  1.00  0.00     0.170 HD
BRANCH  11  15
HETATM   15  C   UNL     1      42.626 -10.779   6.008  1.00  0.00     0.157 C 
BRANCH  15  16
HETATM   16  C   UNL     1      41.209 -10.322   5.580  1.00  0.00     0.206 C 
HETATM   17  C   UNL     1      40.991 -10.322   4.058  1.00  0.00     0.040 C 
HETATM   18  C   UNL     1      39.578 -10.849   3.716  1.00  0.00     0.001 C 
HETATM   19  C   UNL     1      39.491 -12.357   4.080  1.00  0.00     0.068 C 
HETATM   20  C   UNL     1      38.552 -10.097   4.598  1.00  0.00     0.033 C 
HETATM   21  C   UNL     1      39.961 -12.539   5.541  1.00  0.00     0.246 C 
HETATM   22  N   UNL     1      40.085 -11.162   6.183  1.00  0.00    -0.065 N 
HETATM   23  C   UNL     1      38.778 -10.418   6.081  1.00  0.00     0.236 C 
HETATM   24  H   UNL     1      40.319 -11.330   7.185  1.00  0.00     0.280 HD
BRANCH  19  25
HETATM   25  C   UNL     1      40.212 -13.248   3.090  1.00  0.00     0.045 A 
HETATM   26  N   UNL     1      39.832 -13.197   1.799  1.00  0.00    -0.233 NA
HETATM   27  C   UNL     1      40.506 -13.978   0.925  1.00  0.00     0.160 A 
HETATM   28  N   UNL     1      41.478 -14.838   1.278  1.00  0.00    -0.233 NA
HETATM   29  C   UNL     1      41.837 -14.889   2.575  1.00  0.00     0.043 A 
HETATM   30  C   UNL     1      41.221 -14.090   3.524  1.00  0.00     0.055 A 
BRANCH  27  31
HETATM   31  C   UNL     1      40.188 -13.840  -0.508  1.00  0.00     0.014 A 
HETATM   32  C   UNL     1      39.407 -14.793  -1.180  1.00  0.00     0.034 A 
HETATM   33  C   UNL     1      39.156 -14.641  -2.535  1.00  0.00     0.117 A 
HETATM   34  N   UNL     1      39.619 -13.610  -3.268  1.00  0.00    -0.273 NA
HETATM   35  C   UNL     1      40.371 -12.698  -2.624  1.00  0.00     0.117 A 
HETATM   36  C   UNL     1      40.675 -12.769  -1.273  1.00  0.00     0.034 A 
ENDBRANCH  27  31
BRANCH  29  37
HETATM   37  C   UNL     1      42.927 -15.867   2.994  1.00  0.00     0.037 C 
BRANCH  37  38
HETATM   38  C   UNL     1      43.217 -16.923   1.900  1.00  0.00     0.006 C 
HETATM   39  C   UNL     1      42.993 -18.380   2.287  1.00  0.00     0.006 C 
ENDBRANCH  37  38
BRANCH  37  40
HETATM   40  C   UNL     1      42.635 -16.500   4.369  1.00  0.00     0.006 C 
HETATM   41  C   UNL     1      43.798 -16.386   5.347  1.00  0.00     0.006 C 
ENDBRANCH  37  40
ENDBRANCH  29  37
ENDBRANCH  19  25
ENDBRANCH  15  16
ENDBRANCH  11  15
ENDBRANCH   1   9
TORSDOF 8
ENDMDL
MODEL 2
REMARK VINA RESULT:      -9.5      2.234      5.873
REMARK  8 active torsions:
REMARK  status: ('A' for Active; 'I' for Inactive)
REMARK    1  A    between atoms: C_2  and  C_3 
REMARK    2  A    between atoms: C_3  and  C_4 
REMARK    3  A    between atoms: C_3  and  C_38 
REMARK    4  A    between atoms: C_6  and  C_7 
REMARK    5  A    between atoms: C_14  and  C_15 
REMARK    6  A    between atoms: C_18  and  C_19 
REMARK    7  A    between atoms: C_19  and  N_20 
REMARK       I    between atoms: N_20  and  C_21 
REMARK       I    between atoms: C_21  and  N_22 
REMARK    8  A    between atoms: N_22  and  C_23 
ROOT
HETATM    1  C   UNL     1      44.713 -11.310   7.779  1.00  0.00     0.037 A 
HETATM    2  C   UNL     1      44.094 -10.745   8.898  1.00  0.00     0.052 A 
HETATM    3  C   UNL     1      44.571  -9.547   9.448  1.00  0.00     0.046 A 
HETATM    4  C   UNL     1      43.926  -8.989  10.600  1.00  0.00     0.099 C 
HETATM    5  N   UNL     1      43.383  -8.555  11.529  1.00  0.00    -0.191 NA
HETATM    6  C   UNL     1      45.677  -8.911   8.880  1.00  0.00     0.023 A 
HETATM    7  C   UNL     1      46.304  -9.472   7.768  1.00  0.00     0.004 A 
HETATM    8  C   UNL     1      45.826 -10.669   7.224  1.00  0.00     0.029 A 
ENDROOT
BRANCH   1   9
HETATM    9  N   UNL     1      44.302 -12.530   7.200  1.00  0.00    -0.309 N 
HETATM   10  C   UNL     1      43.184 -12.738   6.435  1.00  0.00     0.320 C 
HETATM   11  N   UNL     1      42.954 -14.076   6.211  1.00  0.00    -0.341 N 
HETATM   12  O   UNL     1      42.462 -11.880   5.939  1.00  0.00    -0.247 OA
HETATM   13  H   UNL     1      43.329 -14.678   6.936  1.00  0.00     0.164 HD
HETATM   14  H   UNL     1      44.971 -13.289   7.239  1.00  0.00     0.170 HD
BRANCH  11  15
HETATM   15  C   UNL     1      41.726 -14.556   5.577  1.00  0.00     0.157 C 
BRANCH  15  16
HETATM   16  C   UNL     1      41.918 -15.748   4.607  1.00  0.00     0.206 C 
HETATM   17  C   UNL     1      40.714 -15.996   3.682  1.00  0.00     0.040 C 
HETATM   18  C   UNL     1      41.196 -16.361   2.258  1.00  0.00     0.001 C 
HETATM   19  C   UNL     1      41.880 -15.123   1.616  1.00  0.00     0.068 C 
HETATM   20  C   UNL     1      42.264 -17.475   2.377  1.00  0.00     0.033 C 
HETATM   21  C   UNL     1      42.954 -14.591   2.592  1.00  0.00     0.246 C 
HETATM   22  N   UNL     1      43.143 -15.616   3.705  1.00  0.00    -0.065 N 
HETATM   23  C   UNL     1      43.501 -16.960   3.124  1.00  0.00     0.236 C 
HETATM   24  H   UNL     1      43.930 -15.263   4.292  1.00  0.00     0.280 HD
BRANCH  19  25
HETATM   25  C   UNL     1      40.892 -14.069   1.159  1.00  0.00     0.045 A 
HETATM   26  N   UNL     1      40.430 -13.197   2.075  1.00  0.00    -0.233 NA
HETATM   27  C   UNL     1      39.571 -12.246   1.643  1.00  0.00     0.160 A 
HETATM   28  N   UNL     1      39.111 -12.163   0.382  1.00  0.00    -0.233 NA
HETATM   29  C   UNL     1      39.572 -13.052  -0.519  1.00  0.00     0.043 A 
HETATM   30  C   UNL     1      40.484 -14.031  -0.163  1.00  0.00     0.055 A 
BRANCH  27  31
HETATM   31  C   UNL     1      39.153 -11.208   2.604  1.00  0.00     0.014 A 
HETATM   32  C   UNL     1      39.316 -11.381   3.986  1.00  0.00     0.034 A 
HETATM   33  C   UNL     1      38.884 -10.392   4.857  1.00  0.00     0.117 A 
HETATM   34  N   UNL     1      38.306  -9.244   4.453  1.00  0.00    -0.273 NA
HETATM   35  C   UNL     1      38.148  -9.080   3.127  1.00  0.00     0.117 A 
HETATM   36  C   UNL     1      38.547 -10.014   2.183  1.00  0.00     0.034 A 
ENDBRANCH  27  31
BRANCH  29  37
HETATM   37  C   UNL     1      39.050 -12.980  -1.949  1.00  0.00     0.037 C 
BRANCH  37  38
HETATM   38  C   UNL     1      37.522 -12.743  -2.003  1.00  0.00     0.006 C 
HETATM   39  C   UNL     1      37.061 -11.432  -2.630  1.00  0.00     0.006 C 
ENDBRANCH  37  38
BRANCH  37  40
HETATM   40  C   UNL     1      39.494 -14.197  -2.785  1.00  0.00     0.006 C 
HETATM   41  C   UNL     1      38.330 -15.036  -3.298  1.00  0.00     0.006 C 
ENDBRANCH  37  40
ENDBRANCH  29  37
ENDBRANCH  19  25
ENDBRANCH  15  16
ENDBRANCH  11  15
ENDBRANCH   1   9
TORSDOF 8
ENDMDL
MODEL 3
REMARK VINA RESULT:      -9.1      3.199      8.981
REMARK  8 active torsions:
REMARK  status: ('A' for Active; 'I' for Inactive)
REMARK    1  A    between atoms: C_2  and  C_3 
REMARK    2  A    between atoms: C_3  and  C_4 
REMARK    3  A    between atoms: C_3  and  C_38 
REMARK    4  A    between atoms: C_6  and  C_7 
REMARK    5  A    between atoms: C_14  and  C_15 
REMARK    6  A    between atoms: C_18  and  C_19 
REMARK    7  A    between atoms: C_19  and  N_20 
REMARK       I    between atoms: N_20  and  C_21 
REMARK       I    between atoms: C_21  and  N_22 
REMARK    8  A    between atoms: N_22  and  C_23 
ROOT
HETATM    1  C   UNL     1      43.304 -16.494   3.323  1.00  0.00     0.037 A 
HETATM    2  C   UNL     1      43.253 -17.622   2.497  1.00  0.00     0.052 A 
HETATM    3  C   UNL     1      43.714 -18.863   2.958  1.00  0.00     0.046 A 
HETATM    4  C   UNL     1      43.660 -20.004   2.092  1.00  0.00     0.099 C 
HETATM    5  N   UNL     1      43.600 -20.913   1.374  1.00  0.00    -0.191 NA
HETATM    6  C   UNL     1      44.232 -18.979   4.249  1.00  0.00     0.023 A 
HETATM    7  C   UNL     1      44.292 -17.858   5.076  1.00  0.00     0.004 A 
HETATM    8  C   UNL     1      43.834 -16.620   4.611  1.00  0.00     0.029 A 
ENDROOT
BRANCH   1   9
HETATM    9  N   UNL     1      42.888 -15.211   2.908  1.00  0.00    -0.309 N 
HETATM   10  C   UNL     1      41.959 -14.923   1.941  1.00  0.00     0.320 C 
HETATM   11  N   UNL     1      41.944 -13.584   1.623  1.00  0.00    -0.341 N 
HETATM   12  O   UNL     1      41.174 -15.707   1.419  1.00  0.00    -0.247 OA
HETATM   13  H   UNL     1      42.830 -13.119   1.788  1.00  0.00     0.164 HD
HETATM   14  H   UNL     1      43.205 -14.435   3.475  1.00  0.00     0.170 HD
BRANCH  11  15
HETATM   15  C   UNL     1      41.168 -13.064   0.496  1.00  0.00     0.157 C 
BRANCH  15  16
HETATM   16  C   UNL     1      39.873 -12.313   0.890  1.00  0.00     0.206 C 
HETATM   17  C   UNL     1      39.363 -12.654   2.301  1.00  0.00     0.040 C 
HETATM   18  C   UNL     1      38.844 -11.380   3.008  1.00  0.00     0.001 C 
HETATM   19  C   UNL     1      40.038 -10.427   3.289  1.00  0.00     0.068 C 
HETATM   20  C   UNL     1      37.880 -10.647   2.044  1.00  0.00     0.033 C 
HETATM   21  C   UNL     1      40.821 -10.216   1.974  1.00  0.00     0.246 C 
HETATM   22  N   UNL     1      39.999 -10.793   0.826  1.00  0.00    -0.065 N 
HETATM   23  C   UNL     1      38.629 -10.165   0.795  1.00  0.00     0.236 C 
HETATM   24  H   UNL     1      40.517 -10.556  -0.048  1.00  0.00     0.280 HD
BRANCH  19  25
HETATM   25  C   UNL     1      40.901 -10.883   4.448  1.00  0.00     0.045 A 
HETATM   26  N   UNL     1      41.519  -9.942   5.186  1.00  0.00    -0.233 NA
HETATM   27  C   UNL     1      42.261 -10.367   6.234  1.00  0.00     0.160 A 
HETATM   28  N   UNL     1      42.465 -11.662   6.536  1.00  0.00    -0.233 NA
HETATM   29  C   UNL     1      41.853 -12.592   5.779  1.00  0.00     0.043 A 
HETATM   30  C   UNL     1      41.043 -12.234   4.714  1.00  0.00     0.055 A 
BRANCH  27  31
HETATM   31  C   UNL     1      42.840  -9.347   7.126  1.00  0.00     0.014 A 
HETATM   32  C   UNL     1      42.226  -8.098   7.309  1.00  0.00     0.034 A 
HETATM   33  C   UNL     1      42.818  -7.157   8.135  1.00  0.00     0.117 A 
HETATM   34  N   UNL     1      43.973  -7.366   8.797  1.00  0.00    -0.273 NA
HETATM   35  C   UNL     1      44.564  -8.563   8.619  1.00  0.00     0.117 A 
HETATM   36  C   UNL     1      44.045  -9.564   7.812  1.00  0.00     0.034 A 
ENDBRANCH  27  31
BRANCH  29  37
HETATM   37  C   UNL     1      42.084 -14.063   6.100  1.00  0.00     0.037 C 
BRANCH  37  38
HETATM   38  C   UNL     1      40.767 -14.803   6.437  1.00  0.00     0.006 C 
HETATM   39  C   UNL     1      40.408 -15.988   5.547  1.00  0.00     0.006 C 
ENDBRANCH  37  38
BRANCH  37  40
HETATM   40  C   UNL     1      43.167 -14.253   7.181  1.00  0.00     0.006 C 
HETATM   41  C   UNL     1      42.989 -15.526   7.999  1.00  0.00     0.006 C 
ENDBRANCH  37  40
ENDBRANCH  29  37
ENDBRANCH  19  25
ENDBRANCH  15  16
ENDBRANCH  11  15
ENDBRANCH   1   9
TORSDOF 8
ENDMDL
MODEL 4
REMARK VINA RESULT:      -9.0      1.138      4.142
REMARK  8 active torsions:
REMARK  status: ('A' for Active; 'I' for Inactive)
REMARK    1  A    between atoms: C_2  and  C_3 
REMARK    2  A    between atoms: C_3  and  C_4 
REMARK    3  A    between atoms: C_3  and  C_38 
REMARK    4  A    between atoms: C_6  and  C_7 
REMARK    5  A    between atoms: C_14  and  C_15 
REMARK    6  A    between atoms: C_18  and  C_19 
REMARK    7  A    between atoms: C_19  and  N_20 
REMARK       I    between atoms: N_20  and  C_21 
REMARK       I    between atoms: C_21  and  N_22 
REMARK    8  A    between atoms: N_22  and  C_23 
ROOT
HETATM    1  C   UNL     1      42.572  -9.299  11.031  1.00  0.00     0.037 A 
HETATM    2  C   UNL     1      41.266  -8.918  11.353  1.00  0.00     0.052 A 
HETATM    3  C   UNL     1      41.014  -8.111  12.471  1.00  0.00     0.046 A 
HETATM    4  C   UNL     1      39.666  -7.740  12.788  1.00  0.00     0.099 C 
HETATM    5  N   UNL     1      38.567  -7.449  13.019  1.00  0.00    -0.191 NA
HETATM    6  C   UNL     1      42.072  -7.682  13.275  1.00  0.00     0.023 A 
HETATM    7  C   UNL     1      43.377  -8.062  12.963  1.00  0.00     0.004 A 
HETATM    8  C   UNL     1      43.624  -8.871  11.849  1.00  0.00     0.029 A 
ENDROOT
BRANCH   1   9
HETATM    9  N   UNL     1      42.889 -10.137   9.941  1.00  0.00    -0.309 N 
HETATM   10  C   UNL     1      42.724  -9.849   8.611  1.00  0.00     0.320 C 
HETATM   11  N   UNL     1      42.919 -10.955   7.816  1.00  0.00    -0.341 N 
HETATM   12  O   UNL     1      42.479  -8.752   8.120  1.00  0.00    -0.247 OA
HETATM   13  H   UNL     1      42.727 -11.832   8.288  1.00  0.00     0.164 HD
HETATM   14  H   UNL     1      43.415 -10.973  10.160  1.00  0.00     0.170 HD
BRANCH  11  15
HETATM   15  C   UNL     1      42.623 -10.941   6.382  1.00  0.00     0.157 C 
BRANCH  15  16
HETATM   16  C   UNL     1      41.164 -10.568   6.023  1.00  0.00     0.206 C 
HETATM   17  C   UNL     1      40.897 -10.491   4.510  1.00  0.00     0.040 C 
HETATM   18  C   UNL     1      39.517 -11.102   4.175  1.00  0.00     0.001 C 
HETATM   19  C   UNL     1      39.553 -12.632   4.445  1.00  0.00     0.068 C 
HETATM   20  C   UNL     1      38.467 -10.486   5.131  1.00  0.00     0.033 C 
HETATM   21  C   UNL     1      40.083 -12.867   5.878  1.00  0.00     0.246 C 
HETATM   22  N   UNL     1      40.124 -11.526   6.602  1.00  0.00    -0.065 N 
HETATM   23  C   UNL     1      38.763 -10.878   6.584  1.00  0.00     0.236 C 
HETATM   24  H   UNL     1      40.403 -11.737   7.585  1.00  0.00     0.280 HD
BRANCH  19  25
HETATM   25  C   UNL     1      40.306 -13.404   3.380  1.00  0.00     0.045 A 
HETATM   26  N   UNL     1      41.142 -14.380   3.779  1.00  0.00    -0.233 NA
HETATM   27  C   UNL     1      41.783 -15.077   2.814  1.00  0.00     0.160 A 
HETATM   28  N   UNL     1      41.681 -14.811   1.499  1.00  0.00    -0.233 NA
HETATM   29  C   UNL     1      40.852 -13.822   1.117  1.00  0.00     0.043 A 
HETATM   30  C   UNL     1      40.130 -13.089   2.044  1.00  0.00     0.055 A 
BRANCH  27  31
HETATM   31  C   UNL     1      42.604 -16.231   3.227  1.00  0.00     0.014 A 
HETATM   32  C   UNL     1      43.144 -16.321   4.519  1.00  0.00     0.034 A 
HETATM   33  C   UNL     1      43.933 -17.408   4.857  1.00  0.00     0.117 A 
HETATM   34  N   UNL     1      44.222 -18.414   4.008  1.00  0.00    -0.273 NA
HETATM   35  C   UNL     1      43.706 -18.325   2.768  1.00  0.00     0.117 A 
HETATM   36  C   UNL     1      42.908 -17.275   2.341  1.00  0.00     0.034 A 
ENDBRANCH  27  31
BRANCH  29  37
HETATM   37  C   UNL     1      40.735 -13.499  -0.368  1.00  0.00     0.037 C 
BRANCH  37  38
HETATM   38  C   UNL     1      40.736 -11.975  -0.637  1.00  0.00     0.006 C 
HETATM   39  C   UNL     1      39.373 -11.319  -0.827  1.00  0.00     0.006 C 
ENDBRANCH  37  38
BRANCH  37  40
HETATM   40  C   UNL     1      39.538 -14.218  -1.020  1.00  0.00     0.006 C 
HETATM   41  C   UNL     1      39.659 -14.343  -2.535  1.00  0.00     0.006 C 
ENDBRANCH  37  40
ENDBRANCH  29  37
ENDBRANCH  19  25
ENDBRANCH  15  16
ENDBRANCH  11  15
ENDBRANCH   1   9
TORSDOF 8
ENDMDL
MODEL 5
REMARK VINA RESULT:      -8.8      2.848      9.193
REMARK  8 active torsions:
REMARK  status: ('A' for Active; 'I' for Inactive)
REMARK    1  A    between atoms: C_2  and  C_3 
REMARK    2  A    between atoms: C_3  and  C_4 
REMARK    3  A    between atoms: C_3  and  C_38 
REMARK    4  A    between atoms: C_6  and  C_7 
REMARK    5  A    between atoms: C_14  and  C_15 
REMARK    6  A    between atoms: C_18  and  C_19 
REMARK    7  A    between atoms: C_19  and  N_20 
REMARK       I    between atoms: N_20  and  C_21 
REMARK       I    between atoms: C_21  and  N_22 
REMARK    8  A    between atoms: N_22  and  C_23 
ROOT
HETATM    1  C   UNL     1      40.173 -13.945  -0.570  1.00  0.00     0.037 A 
HETATM    2  C   UNL     1      40.870 -12.735  -0.488  1.00  0.00     0.052 A 
HETATM    3  C   UNL     1      40.723 -11.759  -1.483  1.00  0.00     0.046 A 
HETATM    4  C   UNL     1      41.453 -10.530  -1.383  1.00  0.00     0.099 C 
HETATM    5  N   UNL     1      42.050  -9.541  -1.276  1.00  0.00    -0.191 NA
HETATM    6  C   UNL     1      39.877 -11.993  -2.569  1.00  0.00     0.023 A 
HETATM    7  C   UNL     1      39.183 -13.199  -2.661  1.00  0.00     0.004 A 
HETATM    8  C   UNL     1      39.336 -14.172  -1.668  1.00  0.00     0.029 A 
ENDROOT
BRANCH   1   9
HETATM    9  N   UNL     1      40.303 -14.980   0.380  1.00  0.00    -0.309 N 
HETATM   10  C   UNL     1      40.098 -14.883   1.732  1.00  0.00     0.320 C 
HETATM   11  N   UNL     1      40.522 -16.008   2.401  1.00  0.00    -0.341 N 
HETATM   12  O   UNL     1      39.564 -13.955   2.331  1.00  0.00    -0.247 OA
HETATM   13  H   UNL     1      41.262 -16.509   1.921  1.00  0.00     0.164 HD
HETATM   14  H   UNL     1      40.425 -15.913   0.008  1.00  0.00     0.170 HD
BRANCH  11  15
HETATM   15  C   UNL     1      40.574 -16.069   3.862  1.00  0.00     0.157 C 
BRANCH  15  16
HETATM   16  C   UNL     1      41.928 -16.544   4.445  1.00  0.00     0.206 C 
HETATM   17  C   UNL     1      43.081 -15.550   4.225  1.00  0.00     0.040 C 
HETATM   18  C   UNL     1      43.974 -15.473   5.485  1.00  0.00     0.001 C 
HETATM   19  C   UNL     1      43.170 -14.824   6.645  1.00  0.00     0.068 C 
HETATM   20  C   UNL     1      44.330 -16.917   5.917  1.00  0.00     0.033 C 
HETATM   21  C   UNL     1      41.827 -15.574   6.795  1.00  0.00     0.246 C 
HETATM   22  N   UNL     1      41.883 -16.837   5.943  1.00  0.00    -0.065 N 
HETATM   23  C   UNL     1      43.068 -17.682   6.336  1.00  0.00     0.236 C 
HETATM   24  H   UNL     1      40.999 -17.355   6.137  1.00  0.00     0.280 HD
BRANCH  19  25
HETATM   25  C   UNL     1      43.019 -13.324   6.494  1.00  0.00     0.045 A 
HETATM   26  N   UNL     1      42.253 -12.863   5.487  1.00  0.00    -0.233 NA
HETATM   27  C   UNL     1      42.107 -11.522   5.386  1.00  0.00     0.160 A 
HETATM   28  N   UNL     1      42.727 -10.635   6.185  1.00  0.00    -0.233 NA
HETATM   29  C   UNL     1      43.501 -11.111   7.179  1.00  0.00     0.043 A 
HETATM   30  C   UNL     1      43.668 -12.472   7.372  1.00  0.00     0.055 A 
BRANCH  27  31
HETATM   31  C   UNL     1      41.173 -11.006   4.369  1.00  0.00     0.014 A 
HETATM   32  C   UNL     1      39.785 -11.027   4.571  1.00  0.00     0.034 A 
HETATM   33  C   UNL     1      38.940 -10.558   3.577  1.00  0.00     0.117 A 
HETATM   34  N   UNL     1      39.374 -10.066   2.400  1.00  0.00    -0.273 NA
HETATM   35  C   UNL     1      40.706 -10.048   2.206  1.00  0.00     0.117 A 
HETATM   36  C   UNL     1      41.626 -10.498   3.142  1.00  0.00     0.034 A 
ENDBRANCH  27  31
BRANCH  29  37
HETATM   37  C   UNL     1      44.220 -10.119   8.084  1.00  0.00     0.037 C 
BRANCH  37  38
HETATM   38  C   UNL     1      45.642 -10.598   8.465  1.00  0.00     0.006 C 
HETATM   39  C   UNL     1      46.715 -10.454   7.392  1.00  0.00     0.006 C 
ENDBRANCH  37  38
BRANCH  37  40
HETATM   40  C   UNL     1      43.370  -9.741   9.313  1.00  0.00     0.006 C 
HETATM   41  C   UNL     1      44.165  -9.035  10.406  1.00  0.00     0.006 C 
ENDBRANCH  37  40
ENDBRANCH  29  37
ENDBRANCH  19  25
ENDBRANCH  15  16
ENDBRANCH  11  15
ENDBRANCH   1   9
TORSDOF 8
ENDMDL
MODEL 6
REMARK VINA RESULT:      -8.7      3.853      7.721
REMARK  8 active torsions:
REMARK  status: ('A' for Active; 'I' for Inactive)
REMARK    1  A    between atoms: C_2  and  C_3 
REMARK    2  A    between atoms: C_3  and  C_4 
REMARK    3  A    between atoms: C_3  and  C_38 
REMARK    4  A    between atoms: C_6  and  C_7 
REMARK    5  A    between atoms: C_14  and  C_15 
REMARK    6  A    between atoms: C_18  and  C_19 
REMARK    7  A    between atoms: C_19  and  N_20 
REMARK       I    between atoms: N_20  and  C_21 
REMARK       I    between atoms: C_21  and  N_22 
REMARK    8  A    between atoms: N_22  and  C_23 
ROOT
HETATM    1  C   UNL     1      43.309 -16.640   3.834  1.00  0.00     0.037 A 
HETATM    2  C   UNL     1      43.675 -17.741   4.615  1.00  0.00     0.052 A 
HETATM    3  C   UNL     1      43.864 -19.000   4.028  1.00  0.00     0.046 A 
HETATM    4  C   UNL     1      44.230 -20.116   4.849  1.00  0.00     0.099 C 
HETATM    5  N   UNL     1      44.532 -21.003   5.534  1.00  0.00    -0.191 NA
HETATM    6  C   UNL     1      43.683 -19.162   2.653  1.00  0.00     0.023 A 
HETATM    7  C   UNL     1      43.313 -18.071   1.869  1.00  0.00     0.004 A 
HETATM    8  C   UNL     1      43.122 -16.817   2.459  1.00  0.00     0.029 A 
ENDROOT
BRANCH   1   9
HETATM    9  N   UNL     1      43.072 -15.356   4.368  1.00  0.00    -0.309 N 
HETATM   10  C   UNL     1      41.873 -14.861   4.812  1.00  0.00     0.320 C 
HETATM   11  N   UNL     1      41.933 -13.510   5.063  1.00  0.00    -0.341 N 
HETATM   12  O   UNL     1      40.847 -15.500   5.026  1.00  0.00    -0.247 OA
HETATM   13  H   UNL     1      42.637 -13.027   4.515  1.00  0.00     0.164 HD
HETATM   14  H   UNL     1      43.892 -14.799   4.570  1.00  0.00     0.170 HD
BRANCH  11  15
HETATM   15  C   UNL     1      40.737 -12.724   5.372  1.00  0.00     0.157 C 
BRANCH  15  16
HETATM   16  C   UNL     1      40.973 -11.198   5.486  1.00  0.00     0.206 C 
HETATM   17  C   UNL     1      41.871 -10.625   4.376  1.00  0.00     0.040 C 
HETATM   18  C   UNL     1      41.331  -9.256   3.900  1.00  0.00     0.001 C 
HETATM   19  C   UNL     1      39.972  -9.464   3.177  1.00  0.00     0.068 C 
HETATM   20  C   UNL     1      41.065  -8.378   5.147  1.00  0.00     0.033 C 
HETATM   21  C   UNL     1      39.045 -10.289   4.097  1.00  0.00     0.246 C 
HETATM   22  N   UNL     1      39.688 -10.374   5.477  1.00  0.00    -0.065 N 
HETATM   23  C   UNL     1      39.959  -8.993   6.015  1.00  0.00     0.236 C 
HETATM   24  H   UNL     1      38.997 -10.862   6.088  1.00  0.00     0.280 HD
BRANCH  19  25
HETATM   25  C   UNL     1      40.124 -10.041   1.785  1.00  0.00     0.045 A 
HETATM   26  N   UNL     1      40.642  -9.251   0.825  1.00  0.00    -0.233 NA
HETATM   27  C   UNL     1      40.797  -9.793  -0.404  1.00  0.00     0.160 A 
HETATM   28  N   UNL     1      40.409 -11.038  -0.733  1.00  0.00    -0.233 NA
HETATM   29  C   UNL     1      39.879 -11.811   0.234  1.00  0.00     0.043 A 
HETATM   30  C   UNL     1      39.725 -11.341   1.528  1.00  0.00     0.055 A 
BRANCH  27  31
HETATM   31  C   UNL     1      41.478  -8.984  -1.432  1.00  0.00     0.014 A 
HETATM   32  C   UNL     1      42.591  -8.190  -1.121  1.00  0.00     0.034 A 
HETATM   33  C   UNL     1      43.185  -7.423  -2.111  1.00  0.00     0.117 A 
HETATM   34  N   UNL     1      42.756  -7.391  -3.388  1.00  0.00    -0.273 NA
HETATM   35  C   UNL     1      41.685  -8.151  -3.685  1.00  0.00     0.117 A 
HETATM   36  C   UNL     1      41.027  -8.948  -2.761  1.00  0.00     0.034 A 
ENDBRANCH  27  31
BRANCH  29  37
HETATM   37  C   UNL     1      39.422 -13.219  -0.124  1.00  0.00     0.037 C 
BRANCH  37  38
HETATM   38  C   UNL     1      40.481 -14.288   0.240  1.00  0.00     0.006 C 
HETATM   39  C   UNL     1      40.066 -15.326   1.277  1.00  0.00     0.006 C 
ENDBRANCH  37  38
BRANCH  37  40
HETATM   40  C   UNL     1      38.957 -13.317  -1.591  1.00  0.00     0.006 C 
HETATM   41  C   UNL     1      39.971 -13.999  -2.503  1.00  0.00     0.006 C 
ENDBRANCH  37  40
ENDBRANCH  29  37
ENDBRANCH  19  25
ENDBRANCH  15  16
ENDBRANCH  11  15
ENDBRANCH   1   9
TORSDOF 8
ENDMDL
MODEL 7
REMARK VINA RESULT:      -8.7      2.999      9.879
REMARK  8 active torsions:
REMARK  status: ('A' for Active; 'I' for Inactive)
REMARK    1  A    between atoms: C_2  and  C_3 
REMARK    2  A    between atoms: C_3  and  C_4 
REMARK    3  A    between atoms: C_3  and  C_38 
REMARK    4  A    between atoms: C_6  and  C_7 
REMARK    5  A    between atoms: C_14  and  C_15 
REMARK    6  A    between atoms: C_18  and  C_19 
REMARK    7  A    between atoms: C_19  and  N_20 
REMARK       I    between atoms: N_20  and  C_21 
REMARK       I    between atoms: C_21  and  N_22 
REMARK    8  A    between atoms: N_22  and  C_23 
ROOT
HETATM    1  C   UNL     1      42.642 -16.586   3.891  1.00  0.00     0.037 A 
HETATM    2  C   UNL     1      42.688 -17.659   2.994  1.00  0.00     0.052 A 
HETATM    3  C   UNL     1      43.554 -18.738   3.219  1.00  0.00     0.046 A 
HETATM    4  C   UNL     1      43.591 -19.823   2.283  1.00  0.00     0.099 C 
HETATM    5  N   UNL     1      43.599 -20.691   1.513  1.00  0.00    -0.191 NA
HETATM    6  C   UNL     1      44.382 -18.746   4.344  1.00  0.00     0.023 A 
HETATM    7  C   UNL     1      44.346 -17.678   5.238  1.00  0.00     0.004 A 
HETATM    8  C   UNL     1      43.483 -16.601   5.009  1.00  0.00     0.029 A 
ENDROOT
BRANCH   1   9
HETATM    9  N   UNL     1      41.818 -15.455   3.704  1.00  0.00    -0.309 N 
HETATM   10  C   UNL     1      42.217 -14.208   3.300  1.00  0.00     0.320 C 
HETATM   11  N   UNL     1      41.213 -13.277   3.431  1.00  0.00    -0.341 N 
HETATM   12  O   UNL     1      43.306 -13.901   2.826  1.00  0.00    -0.247 OA
HETATM   13  H   UNL     1      40.539 -13.508   4.153  1.00  0.00     0.164 HD
HETATM   14  H   UNL     1      40.821 -15.621   3.739  1.00  0.00     0.170 HD
BRANCH  11  15
HETATM   15  C   UNL     1      41.451 -11.846   3.235  1.00  0.00     0.157 C 
BRANCH  15  16
HETATM   16  C   UNL     1      40.207 -10.946   3.440  1.00  0.00     0.206 C 
HETATM   17  C   UNL     1      39.610 -11.026   4.856  1.00  0.00     0.040 C 
HETATM   18  C   UNL     1      39.170  -9.622   5.334  1.00  0.00     0.001 C 
HETATM   19  C   UNL     1      40.427  -8.732   5.535  1.00  0.00     0.068 C 
HETATM   20  C   UNL     1      38.315  -8.975   4.218  1.00  0.00     0.033 C 
HETATM   21  C   UNL     1      41.281  -8.786   4.248  1.00  0.00     0.246 C 
HETATM   22  N   UNL     1      40.464  -9.468   3.156  1.00  0.00    -0.065 N 
HETATM   23  C   UNL     1      39.155  -8.749   2.955  1.00  0.00     0.236 C 
HETATM   24  H   UNL     1      41.038  -9.409   2.287  1.00  0.00     0.280 HD
BRANCH  19  25
HETATM   25  C   UNL     1      41.198  -9.069   6.795  1.00  0.00     0.045 A 
HETATM   26  N   UNL     1      40.817  -8.482   7.945  1.00  0.00    -0.233 NA
HETATM   27  C   UNL     1      41.498  -8.818   9.064  1.00  0.00     0.160 A 
HETATM   28  N   UNL     1      42.559  -9.645   9.081  1.00  0.00    -0.233 NA
HETATM   29  C   UNL     1      42.936 -10.213   7.920  1.00  0.00     0.043 A 
HETATM   30  C   UNL     1      42.263  -9.951   6.739  1.00  0.00     0.055 A 
BRANCH  27  31
HETATM   31  C   UNL     1      41.016  -8.282  10.351  1.00  0.00     0.014 A 
HETATM   32  C   UNL     1      40.070  -8.972  11.123  1.00  0.00     0.034 A 
HETATM   33  C   UNL     1      39.622  -8.419  12.313  1.00  0.00     0.117 A 
HETATM   34  N   UNL     1      40.048  -7.235  12.793  1.00  0.00    -0.273 NA
HETATM   35  C   UNL     1      40.954  -6.572  12.050  1.00  0.00     0.117 A 
HETATM   36  C   UNL     1      41.458  -7.046  10.848  1.00  0.00     0.034 A 
ENDBRANCH  27  31
BRANCH  29  37
HETATM   37  C   UNL     1      44.143 -11.143   7.920  1.00  0.00     0.037 C 
BRANCH  37  38
HETATM   38  C   UNL     1      45.434 -10.425   8.384  1.00  0.00     0.006 C 
HETATM   39  C   UNL     1      46.655 -10.579   7.485  1.00  0.00     0.006 C 
ENDBRANCH  37  38
BRANCH  37  40
HETATM   40  C   UNL     1      44.315 -11.862   6.567  1.00  0.00     0.006 C 
HETATM   41  C   UNL     1      43.954 -13.342   6.618  1.00  0.00     0.006 C 
ENDBRANCH  37  40
ENDBRANCH  29  37
ENDBRANCH  19  25
ENDBRANCH  15  16
ENDBRANCH  11  15
ENDBRANCH   1   9
TORSDOF 8
ENDMDL
MODEL 8
REMARK VINA RESULT:      -8.6      3.499      8.419
REMARK  8 active torsions:
REMARK  status: ('A' for Active; 'I' for Inactive)
REMARK    1  A    between atoms: C_2  and  C_3 
REMARK    2  A    between atoms: C_3  and  C_4 
REMARK    3  A    between atoms: C_3  and  C_38 
REMARK    4  A    between atoms: C_6  and  C_7 
REMARK    5  A    between atoms: C_14  and  C_15 
REMARK    6  A    between atoms: C_18  and  C_19 
REMARK    7  A    between atoms: C_19  and  N_20 
REMARK       I    between atoms: N_20  and  C_21 
REMARK       I    between atoms: C_21  and  N_22 
REMARK    8  A    between atoms: N_22  and  C_23 
ROOT
HETATM    1  C   UNL     1      43.163 -16.780   2.741  1.00  0.00     0.037 A 
HETATM    2  C   UNL     1      43.316 -16.493   4.101  1.00  0.00     0.052 A 
HETATM    3  C   UNL     1      43.769 -17.478   4.990  1.00  0.00     0.046 A 
HETATM    4  C   UNL     1      43.910 -17.165   6.381  1.00  0.00     0.099 C 
HETATM    5  N   UNL     1      44.021 -16.885   7.502  1.00  0.00    -0.191 NA
HETATM    6  C   UNL     1      44.070 -18.758   4.519  1.00  0.00     0.023 A 
HETATM    7  C   UNL     1      43.914 -19.052   3.165  1.00  0.00     0.004 A 
HETATM    8  C   UNL     1      43.458 -18.068   2.282  1.00  0.00     0.029 A 
ENDROOT
BRANCH   1   9
HETATM    9  N   UNL     1      42.680 -15.844   1.801  1.00  0.00    -0.309 N 
HETATM   10  C   UNL     1      41.368 -15.606   1.482  1.00  0.00     0.320 C 
HETATM   11  N   UNL     1      41.245 -14.796   0.377  1.00  0.00    -0.341 N 
HETATM   12  O   UNL     1      40.379 -15.997   2.094  1.00  0.00    -0.247 OA
HETATM   13  H   UNL     1      42.035 -14.851  -0.256  1.00  0.00     0.164 HD
HETATM   14  H   UNL     1      43.360 -15.192   1.431  1.00  0.00     0.170 HD
BRANCH  11  15
HETATM   15  C   UNL     1      39.952 -14.548  -0.262  1.00  0.00     0.157 C 
BRANCH  15  16
HETATM   16  C   UNL     1      39.732 -13.091  -0.741  1.00  0.00     0.206 C 
HETATM   17  C   UNL     1      38.895 -12.239   0.228  1.00  0.00     0.040 C 
HETATM   18  C   UNL     1      39.476 -10.809   0.327  1.00  0.00     0.001 C 
HETATM   19  C   UNL     1      40.865 -10.866   1.021  1.00  0.00     0.068 C 
HETATM   20  C   UNL     1      39.696 -10.274  -1.109  1.00  0.00     0.033 C 
HETATM   21  C   UNL     1      41.736 -11.917   0.297  1.00  0.00     0.246 C 
HETATM   22  N   UNL     1      41.028 -12.324  -0.991  1.00  0.00    -0.065 N 
HETATM   23  C   UNL     1      40.751 -11.111  -1.843  1.00  0.00     0.236 C 
HETATM   24  H   UNL     1      41.683 -12.965  -1.490  1.00  0.00     0.280 HD
BRANCH  19  25
HETATM   25  C   UNL     1      40.770 -11.077   2.518  1.00  0.00     0.045 A 
HETATM   26  N   UNL     1      40.266 -10.078   3.268  1.00  0.00    -0.233 NA
HETATM   27  C   UNL     1      40.163 -10.296   4.598  1.00  0.00     0.160 A 
HETATM   28  N   UNL     1      40.587 -11.415   5.214  1.00  0.00    -0.233 NA
HETATM   29  C   UNL     1      41.101 -12.399   4.452  1.00  0.00     0.043 A 
HETATM   30  C   UNL     1      41.203 -12.267   3.078  1.00  0.00     0.055 A 
BRANCH  27  31
HETATM   31  C   UNL     1      39.499  -9.264   5.416  1.00  0.00     0.014 A 
HETATM   32  C   UNL     1      38.530  -8.408   4.870  1.00  0.00     0.034 A 
HETATM   33  C   UNL     1      37.950  -7.433   5.666  1.00  0.00     0.117 A 
HETATM   34  N   UNL     1      38.260  -7.248   6.964  1.00  0.00    -0.273 NA
HETATM   35  C   UNL     1      39.191  -8.068   7.486  1.00  0.00     0.117 A 
HETATM   36  C   UNL     1      39.824  -9.070   6.767  1.00  0.00     0.034 A 
ENDBRANCH  27  31
BRANCH  29  37
HETATM   37  C   UNL     1      41.598 -13.667   5.135  1.00  0.00     0.037 C 
BRANCH  37  38
HETATM   38  C   UNL     1      40.489 -14.740   5.257  1.00  0.00     0.006 C 
HETATM   39  C   UNL     1      40.459 -15.539   6.554  1.00  0.00     0.006 C 
ENDBRANCH  37  38
BRANCH  37  40
HETATM   40  C   UNL     1      42.283 -13.364   6.483  1.00  0.00     0.006 C 
HETATM   41  C   UNL     1      43.806 -13.385   6.406  1.00  0.00     0.006 C 
ENDBRANCH  37  40
ENDBRANCH  29  37
ENDBRANCH  19  25
ENDBRANCH  15  16
ENDBRANCH  11  15
ENDBRANCH   1   9
TORSDOF 8
ENDMDL
MODEL 9
REMARK VINA RESULT:      -8.5     18.669     22.348
REMARK  8 active torsions:
REMARK  status: ('A' for Active; 'I' for Inactive)
REMARK    1  A    between atoms: C_2  and  C_3 
REMARK    2  A    between atoms: C_3  and  C_4 
REMARK    3  A    between atoms: C_3  and  C_38 
REMARK    4  A    between atoms: C_6  and  C_7 
REMARK    5  A    between atoms: C_14  and  C_15 
REMARK    6  A    between atoms: C_18  and  C_19 
REMARK    7  A    between atoms: C_19  and  N_20 
REMARK       I    between atoms: N_20  and  C_21 
REMARK       I    between atoms: C_21  and  N_22 
REMARK    8  A    between atoms: N_22  and  C_23 
ROOT
HETATM    1  C   UNL     1      52.513 -32.553  -2.590  1.00  0.00     0.037 A 
HETATM    2  C   UNL     1      53.399 -32.602  -3.671  1.00  0.00     0.052 A 
HETATM    3  C   UNL     1      54.749 -32.924  -3.472  1.00  0.00     0.046 A 
HETATM    4  C   UNL     1      55.641 -32.960  -4.593  1.00  0.00     0.099 C 
HETATM    5  N   UNL     1      56.342 -32.988  -5.518  1.00  0.00    -0.191 NA
HETATM    6  C   UNL     1      55.219 -33.198  -2.186  1.00  0.00     0.023 A 
HETATM    7  C   UNL     1      54.343 -33.146  -1.102  1.00  0.00     0.004 A 
HETATM    8  C   UNL     1      52.998 -32.820  -1.304  1.00  0.00     0.029 A 
ENDROOT
BRANCH   1   9
HETATM    9  N   UNL     1      51.153 -32.202  -2.719  1.00  0.00    -0.309 N 
HETATM   10  C   UNL     1      50.578 -31.008  -2.369  1.00  0.00     0.320 C 
HETATM   11  N   UNL     1      49.204 -31.064  -2.414  1.00  0.00    -0.341 N 
HETATM   12  O   UNL     1      51.160 -29.965  -2.088  1.00  0.00    -0.247 OA
HETATM   13  H   UNL     1      48.832 -31.996  -2.268  1.00  0.00     0.164 HD
HETATM   14  H   UNL     1      50.575 -32.844  -3.247  1.00  0.00     0.170 HD
BRANCH  11  15
HETATM   15  C   UNL     1      48.366 -29.974  -1.912  1.00  0.00     0.157 C 
BRANCH  15  16
HETATM   16  C   UNL     1      47.000 -29.821  -2.626  1.00  0.00     0.206 C 
HETATM   17  C   UNL     1      45.889 -30.705  -2.035  1.00  0.00     0.040 C 
HETATM   18  C   UNL     1      44.553 -29.928  -1.985  1.00  0.00     0.001 C 
HETATM   19  C   UNL     1      44.668 -28.775  -0.951  1.00  0.00     0.068 C 
HETATM   20  C   UNL     1      44.311 -29.286  -3.373  1.00  0.00     0.033 C 
HETATM   21  C   UNL     1      45.935 -27.950  -1.272  1.00  0.00     0.246 C 
HETATM   22  N   UNL     1      46.466 -28.391  -2.631  1.00  0.00    -0.065 N 
HETATM   23  C   UNL     1      45.396 -28.246  -3.683  1.00  0.00     0.236 C 
HETATM   24  H   UNL     1      47.264 -27.756  -2.849  1.00  0.00     0.280 HD
BRANCH  19  25
HETATM   25  C   UNL     1      44.599 -29.257   0.484  1.00  0.00     0.045 A 
HETATM   26  N   UNL     1      43.419 -29.719   0.940  1.00  0.00    -0.233 NA
HETATM   27  C   UNL     1      43.384 -30.171   2.213  1.00  0.00     0.160 A 
HETATM   28  N   UNL     1      44.430 -30.127   3.058  1.00  0.00    -0.233 NA
HETATM   29  C   UNL     1      45.599 -29.648   2.591  1.00  0.00     0.043 A 
HETATM   30  C   UNL     1      45.726 -29.204   1.286  1.00  0.00     0.055 A 
BRANCH  27  31
HETATM   31  C   UNL     1      42.135 -30.796   2.688  1.00  0.00     0.014 A 
HETATM   32  C   UNL     1      41.792 -30.806   4.048  1.00  0.00     0.034 A 
HETATM   33  C   UNL     1      40.623 -31.429   4.456  1.00  0.00     0.117 A 
HETATM   34  N   UNL     1      39.769 -32.038   3.610  1.00  0.00    -0.273 NA
HETATM   35  C   UNL     1      40.100 -32.031   2.306  1.00  0.00     0.117 A 
HETATM   36  C   UNL     1      41.248 -31.434   1.808  1.00  0.00     0.034 A 
ENDBRANCH  27  31
BRANCH  29  37
HETATM   37  C   UNL     1      46.790 -29.579   3.539  1.00  0.00     0.037 C 
BRANCH  37  38
HETATM   38  C   UNL     1      48.013 -28.885   2.892  1.00  0.00     0.006 C 
HETATM   39  C   UNL     1      49.386 -29.383   3.330  1.00  0.00     0.006 C 
ENDBRANCH  37  38
BRANCH  37  40
HETATM   40  C   UNL     1      47.134 -30.960   4.132  1.00  0.00     0.006 C 
HETATM   41  C   UNL     1      46.810 -31.079   5.617  1.00  0.00     0.006 C 
ENDBRANCH  37  40
ENDBRANCH  29  37
ENDBRANCH  19  25
ENDBRANCH  15  16
ENDBRANCH  11  15
ENDBRANCH   1   9
TORSDOF 8
ENDMDL
MODEL 10
REMARK VINA RESULT:      -8.4      4.288      9.626
REMARK  8 active torsions:
REMARK  status: ('A' for Active; 'I' for Inactive)
REMARK    1  A    between atoms: C_2  and  C_3 
REMARK    2  A    between atoms: C_3  and  C_4 
REMARK    3  A    between atoms: C_3  and  C_38 
REMARK    4  A    between atoms: C_6  and  C_7 
REMARK    5  A    between atoms: C_14  and  C_15 
REMARK    6  A    between atoms: C_18  and  C_19 
REMARK    7  A    between atoms: C_19  and  N_20 
REMARK       I    between atoms: N_20  and  C_21 
REMARK       I    between atoms: C_21  and  N_22 
REMARK    8  A    between atoms: N_22  and  C_23 
ROOT
HETATM    1  C   UNL     1      42.848 -16.358   2.520  1.00  0.00     0.037 A 
HETATM    2  C   UNL     1      43.051 -17.719   2.272  1.00  0.00     0.052 A 
HETATM    3  C   UNL     1      43.589 -18.551   3.263  1.00  0.00     0.046 A 
HETATM    4  C   UNL     1      43.797 -19.942   2.985  1.00  0.00     0.099 C 
HETATM    5  N   UNL     1      43.950 -21.065   2.736  1.00  0.00    -0.191 NA
HETATM    6  C   UNL     1      43.930 -18.022   4.510  1.00  0.00     0.023 A 
HETATM    7  C   UNL     1      43.736 -16.664   4.763  1.00  0.00     0.004 A 
HETATM    8  C   UNL     1      43.202 -15.836   3.770  1.00  0.00     0.029 A 
ENDROOT
BRANCH   1   9
HETATM    9  N   UNL     1      42.342 -15.461   1.555  1.00  0.00    -0.309 N 
HETATM   10  C   UNL     1      41.046 -15.369   1.121  1.00  0.00     0.320 C 
HETATM   11  N   UNL     1      40.926 -14.552   0.021  1.00  0.00    -0.341 N 
HETATM   12  O   UNL     1      40.059 -15.888   1.633  1.00  0.00    -0.247 OA
HETATM   13  H   UNL     1      41.771 -14.498  -0.538  1.00  0.00     0.164 HD
HETATM   14  H   UNL     1      42.971 -14.725   1.258  1.00  0.00     0.170 HD
BRANCH  11  15
HETATM   15  C   UNL     1      39.675 -14.440  -0.731  1.00  0.00     0.157 C 
BRANCH  15  16
HETATM   16  C   UNL     1      39.624 -13.263  -1.737  1.00  0.00     0.206 C 
HETATM   17  C   UNL     1      38.501 -12.251  -1.451  1.00  0.00     0.040 C 
HETATM   18  C   UNL     1      39.005 -10.808  -1.685  1.00  0.00     0.001 C 
HETATM   19  C   UNL     1      40.073 -10.457  -0.613  1.00  0.00     0.068 C 
HETATM   20  C   UNL     1      39.699 -10.754  -3.068  1.00  0.00     0.033 C 
HETATM   21  C   UNL     1      41.146 -11.569  -0.602  1.00  0.00     0.246 C 
HETATM   22  N   UNL     1      40.923 -12.465  -1.816  1.00  0.00    -0.065 N 
HETATM   23  C   UNL     1      40.946 -11.647  -3.082  1.00  0.00     0.236 C 
HETATM   24  H   UNL     1      41.712 -13.147  -1.821  1.00  0.00     0.280 HD
BRANCH  19  25
HETATM   25  C   UNL     1      39.474 -10.172   0.749  1.00  0.00     0.045 A 
HETATM   26  N   UNL     1      39.657 -11.082   1.724  1.00  0.00    -0.233 NA
HETATM   27  C   UNL     1      39.140 -10.797   2.941  1.00  0.00     0.160 A 
HETATM   28  N   UNL     1      38.409  -9.701   3.210  1.00  0.00    -0.233 NA
HETATM   29  C   UNL     1      38.222  -8.806   2.220  1.00  0.00     0.043 A 
HETATM   30  C   UNL     1      38.755  -9.008   0.958  1.00  0.00     0.055 A 
BRANCH  27  31
HETATM   31  C   UNL     1      39.438 -11.722   4.050  1.00  0.00     0.014 A 
HETATM   32  C   UNL     1      39.140 -11.390   5.380  1.00  0.00     0.034 A 
HETATM   33  C   UNL     1      39.463 -12.276   6.396  1.00  0.00     0.117 A 
HETATM   34  N   UNL     1      40.055 -13.468   6.186  1.00  0.00    -0.273 NA
HETATM   35  C   UNL     1      40.343 -13.784   4.910  1.00  0.00     0.117 A 
HETATM   36  C   UNL     1      40.059 -12.961   3.831  1.00  0.00     0.034 A 
ENDBRANCH  27  31
BRANCH  29  37
HETATM   37  C   UNL     1      37.385  -7.565   2.506  1.00  0.00     0.037 C 
BRANCH  37  38
HETATM   38  C   UNL     1      37.060  -7.412   4.011  1.00  0.00     0.006 C 
HETATM   39  C   UNL     1      37.709  -6.234   4.728  1.00  0.00     0.006 C 
ENDBRANCH  37  38
BRANCH  37  40
HETATM   40  C   UNL     1      36.128  -7.502   1.615  1.00  0.00     0.006 C 
HETATM   41  C   UNL     1      36.173  -6.381   0.583  1.00  0.00     0.006 C 
ENDBRANCH  37  40
ENDBRANCH  29  37
ENDBRANCH  19  25
ENDBRANCH  15  16
ENDBRANCH  11  15
ENDBRANCH   1   9
TORSDOF 8
ENDMDL
