MODEL 1
REMARK VINA RESULT:      -7.6      0.000      0.000
REMARK  14 active torsions:
REMARK  status: ('A' for Active; 'I' for Inactive)
REMARK    1  A    between atoms: C_2  and  N_3 
REMARK    2  A    between atoms: N_3  and  C_5 
REMARK    3  A    between atoms: N_3  and  C_37 
REMARK    4  A    between atoms: C_5  and  C_6 
REMARK    5  A    between atoms: C_6  and  N_7 
REMARK    6  A    between atoms: C_10  and  O_11 
REMARK    7  A    between atoms: C_12  and  C_13 
REMARK    8  A    between atoms: C_13  and  C_14 
REMARK    9  A    between atoms: C_18  and  O_19 
REMARK   10  A    between atoms: O_19  and  C_20 
REMARK   11  A    between atoms: C_20  and  C_21 
REMARK   12  A    between atoms: C_27  and  C_28 
REMARK   13  A    between atoms: C_30  and  O_31 
REMARK   14  A    between atoms: C_33  and  O_34 
ROOT
HETATM    1  N   UNL     1      42.960 -14.986   6.126  1.00  0.00    -0.332 N 
HETATM    2  C   UNL     1      41.735 -15.324   6.661  1.00  0.00     0.278 A 
HETATM    3  O   UNL     1      41.473 -16.261   7.392  1.00  0.00    -0.265 OA
HETATM    4  C   UNL     1      40.753 -14.320   6.208  1.00  0.00     0.146 A 
HETATM    5  C   UNL     1      41.433 -13.381   5.545  1.00  0.00     0.059 A 
HETATM    6  C   UNL     1      42.892 -13.704   5.427  1.00  0.00     0.161 A 
ENDROOT
BRANCH   5   7
HETATM    7  C   UNL     1      40.916 -12.184   4.856  1.00  0.00     0.193 C 
HETATM    8  O   UNL     1      40.918 -11.118   5.468  1.00  0.00    -0.287 OA
BRANCH   7   9
HETATM    9  C   UNL     1      40.361 -12.266   3.476  1.00  0.00     0.015 A 
HETATM   10  C   UNL     1      40.416 -13.499   2.815  1.00  0.00     0.025 A 
HETATM   11  C   UNL     1      39.923 -13.639   1.506  1.00  0.00    -0.028 A 
HETATM   12  C   UNL     1      39.995 -14.978   0.821  1.00  0.00     0.051 C 
HETATM   13  C   UNL     1      39.350 -12.530   0.857  1.00  0.00     0.074 A 
HETATM   14  C   UNL     1      39.329 -11.294   1.505  1.00  0.00     0.038 A 
HETATM   15  C   UNL     1      39.844 -11.158   2.799  1.00  0.00     0.018 A 
BRANCH  13  16
HETATM   16  O   UNL     1      38.855 -12.764  -0.398  1.00  0.00    -0.350 OA
BRANCH  16  17
HETATM   17  C   UNL     1      39.337 -11.945  -1.466  1.00  0.00     0.179 C 
BRANCH  17  18
HETATM   18  C   UNL     1      40.544 -12.635  -2.117  1.00  0.00     0.002 C 
HETATM   19  C   UNL     1      40.142 -13.957  -2.773  1.00  0.00     0.011 C 
HETATM   20  C   UNL     1      41.194 -11.710  -3.146  1.00  0.00     0.011 C 
ENDBRANCH  17  18
ENDBRANCH  16  17
ENDBRANCH  13  16
ENDBRANCH   7   9
ENDBRANCH   5   7
BRANCH   4  21
HETATM   21  O   UNL     1      39.418 -14.408   6.453  1.00  0.00    -0.355 OA
HETATM   22  H   UNL     1      39.087 -13.493   6.565  1.00  0.00     0.218 HD
ENDBRANCH   4  21
BRANCH   6  23
HETATM   23  C   UNL     1      43.826 -12.665   6.020  1.00  0.00    -0.028 A 
HETATM   24  C   UNL     1      43.778 -12.302   7.382  1.00  0.00     0.049 A 
HETATM   25  C   UNL     1      44.675 -11.361   7.892  1.00  0.00     0.101 A 
HETATM   26  C   UNL     1      45.651 -10.819   7.055  1.00  0.00     0.099 A 
HETATM   27  C   UNL     1      45.709 -11.151   5.711  1.00  0.00     0.040 A 
HETATM   28  C   UNL     1      44.792 -12.064   5.191  1.00  0.00     0.012 A 
BRANCH  25  29
HETATM   29  O   UNL     1      44.707 -10.956   9.201  1.00  0.00    -0.353 OA
HETATM   30  C   UNL     1      43.607 -10.134   9.585  1.00  0.00     0.210 C 
ENDBRANCH  25  29
BRANCH  26  31
HETATM   31  O   UNL     1      46.568  -9.931   7.542  1.00  0.00    -0.358 OA
HETATM   32  H   UNL     1      46.908  -9.447   6.765  1.00  0.00     0.218 HD
ENDBRANCH  26  31
ENDBRANCH   6  23
BRANCH   1  33
HETATM   33  C   UNL     1      44.216 -15.599   6.543  1.00  0.00     0.155 C 
BRANCH  33  34
HETATM   34  C   UNL     1      44.692 -16.747   5.632  1.00  0.00     0.254 C 
BRANCH  34  35
HETATM   35  N   UNL     1      43.569 -17.684   5.187  1.00  0.00    -0.070 N 
HETATM   36  H   UNL     1      42.701 -17.199   5.449  1.00  0.00     0.279 HD
BRANCH  35  37
HETATM   37  C   UNL     1      43.523 -19.012   5.932  1.00  0.00     0.230 C 
HETATM   38  C   UNL     1      44.092 -20.146   5.101  1.00  0.00     0.034 C 
ENDBRANCH  35  37
BRANCH  35  39
HETATM   39  C   UNL     1      43.475 -17.913   3.689  1.00  0.00     0.230 C 
HETATM   40  C   UNL     1      42.412 -17.033   3.057  1.00  0.00     0.034 C 
ENDBRANCH  35  39
ENDBRANCH  34  35
ENDBRANCH  33  34
ENDBRANCH   1  33
TORSDOF 14
ENDMDL
MODEL 2
REMARK VINA RESULT:      -7.4      2.466      7.547
REMARK  14 active torsions:
REMARK  status: ('A' for Active; 'I' for Inactive)
REMARK    1  A    between atoms: C_2  and  N_3 
REMARK    2  A    between atoms: N_3  and  C_5 
REMARK    3  A    between atoms: N_3  and  C_37 
REMARK    4  A    between atoms: C_5  and  C_6 
REMARK    5  A    between atoms: C_6  and  N_7 
REMARK    6  A    between atoms: C_10  and  O_11 
REMARK    7  A    between atoms: C_12  and  C_13 
REMARK    8  A    between atoms: C_13  and  C_14 
REMARK    9  A    between atoms: C_18  and  O_19 
REMARK   10  A    between atoms: O_19  and  C_20 
REMARK   11  A    between atoms: C_20  and  C_21 
REMARK   12  A    between atoms: C_27  and  C_28 
REMARK   13  A    between atoms: C_30  and  O_31 
REMARK   14  A    between atoms: C_33  and  O_34 
ROOT
HETATM    1  N   UNL     1      40.295 -15.368   2.430  1.00  0.00    -0.332 N 
HETATM    2  C   UNL     1      41.234 -16.300   2.819  1.00  0.00     0.278 A 
HETATM    3  O   UNL     1      41.719 -17.194   2.151  1.00  0.00    -0.265 OA
HETATM    4  C   UNL     1      41.591 -16.021   4.223  1.00  0.00     0.146 A 
HETATM    5  C   UNL     1      40.964 -14.893   4.568  1.00  0.00     0.059 A 
HETATM    6  C   UNL     1      40.086 -14.367   3.474  1.00  0.00     0.161 A 
ENDROOT
BRANCH   5   7
HETATM    7  C   UNL     1      40.954 -14.208   5.874  1.00  0.00     0.193 C 
HETATM    8  O   UNL     1      40.020 -14.438   6.641  1.00  0.00    -0.287 OA
BRANCH   7   9
HETATM    9  C   UNL     1      42.012 -13.228   6.242  1.00  0.00     0.015 A 
HETATM   10  C   UNL     1      41.684 -11.867   6.229  1.00  0.00     0.025 A 
HETATM   11  C   UNL     1      42.644 -10.890   6.550  1.00  0.00    -0.028 A 
HETATM   12  C   UNL     1      42.261  -9.434   6.529  1.00  0.00     0.051 C 
HETATM   13  C   UNL     1      43.946 -11.285   6.906  1.00  0.00     0.074 A 
HETATM   14  C   UNL     1      44.280 -12.640   6.883  1.00  0.00     0.038 A 
HETATM   15  C   UNL     1      43.326 -13.604   6.538  1.00  0.00     0.018 A 
BRANCH  13  16
HETATM   16  O   UNL     1      44.803 -10.274   7.247  1.00  0.00    -0.350 OA
BRANCH  16  17
HETATM   17  C   UNL     1      45.729 -10.516   8.308  1.00  0.00     0.179 C 
BRANCH  17  18
HETATM   18  C   UNL     1      45.526  -9.454   9.399  1.00  0.00     0.002 C 
HETATM   19  C   UNL     1      44.873  -8.192   8.832  1.00  0.00     0.011 C 
HETATM   20  C   UNL     1      44.682 -10.019  10.540  1.00  0.00     0.011 C 
ENDBRANCH  17  18
ENDBRANCH  16  17
ENDBRANCH  13  16
ENDBRANCH   7   9
ENDBRANCH   5   7
BRANCH   4  21
HETATM   21  O   UNL     1      42.406 -16.818   4.966  1.00  0.00    -0.355 OA
HETATM   22  H   UNL     1      43.194 -17.009   4.417  1.00  0.00     0.218 HD
ENDBRANCH   4  21
BRANCH   6  23
HETATM   23  C   UNL     1      40.419 -12.960   3.009  1.00  0.00    -0.028 A 
HETATM   24  C   UNL     1      39.440 -11.950   2.911  1.00  0.00     0.049 A 
HETATM   25  C   UNL     1      39.796 -10.662   2.505  1.00  0.00     0.101 A 
HETATM   26  C   UNL     1      41.136 -10.369   2.246  1.00  0.00     0.099 A 
HETATM   27  C   UNL     1      42.113 -11.349   2.324  1.00  0.00     0.040 A 
HETATM   28  C   UNL     1      41.754 -12.645   2.694  1.00  0.00     0.012 A 
BRANCH  25  29
HETATM   29  O   UNL     1      38.916  -9.618   2.391  1.00  0.00    -0.353 OA
HETATM   30  C   UNL     1      38.378  -9.170   3.634  1.00  0.00     0.210 C 
ENDBRANCH  25  29
BRANCH  26  31
HETATM   31  O   UNL     1      41.515  -9.106   1.892  1.00  0.00    -0.358 OA
HETATM   32  H   UNL     1      42.489  -9.090   1.964  1.00  0.00     0.218 HD
ENDBRANCH  26  31
ENDBRANCH   6  23
BRANCH   1  33
HETATM   33  C   UNL     1      39.883 -15.171   1.045  1.00  0.00     0.155 C 
BRANCH  33  34
HETATM   34  C   UNL     1      41.009 -14.682   0.114  1.00  0.00     0.254 C 
BRANCH  34  35
HETATM   35  N   UNL     1      40.508 -13.894  -1.096  1.00  0.00    -0.070 N 
HETATM   36  H   UNL     1      41.075 -14.234  -1.885  1.00  0.00     0.279 HD
BRANCH  35  37
HETATM   37  C   UNL     1      40.777 -12.396  -1.030  1.00  0.00     0.230 C 
HETATM   38  C   UNL     1      39.490 -11.596  -0.942  1.00  0.00     0.034 C 
ENDBRANCH  35  37
BRANCH  35  39
HETATM   39  C   UNL     1      39.064 -14.158  -1.485  1.00  0.00     0.230 C 
HETATM   40  C   UNL     1      38.971 -14.930  -2.789  1.00  0.00     0.034 C 
ENDBRANCH  35  39
ENDBRANCH  34  35
ENDBRANCH  33  34
ENDBRANCH   1  33
TORSDOF 14
ENDMDL
MODEL 3
REMARK VINA RESULT:      -7.3      3.031      6.946
REMARK  14 active torsions:
REMARK  status: ('A' for Active; 'I' for Inactive)
REMARK    1  A    between atoms: C_2  and  N_3 
REMARK    2  A    between atoms: N_3  and  C_5 
REMARK    3  A    between atoms: N_3  and  C_37 
REMARK    4  A    between atoms: C_5  and  C_6 
REMARK    5  A    between atoms: C_6  and  N_7 
REMARK    6  A    between atoms: C_10  and  O_11 
REMARK    7  A    between atoms: C_12  and  C_13 
REMARK    8  A    between atoms: C_13  and  C_14 
REMARK    9  A    between atoms: C_18  and  O_19 
REMARK   10  A    between atoms: O_19  and  C_20 
REMARK   11  A    between atoms: C_20  and  C_21 
REMARK   12  A    between atoms: C_27  and  C_28 
REMARK   13  A    between atoms: C_30  and  O_31 
REMARK   14  A    between atoms: C_33  and  O_34 
ROOT
HETATM    1  N   UNL     1      40.147 -10.691   4.445  1.00  0.00    -0.332 N 
HETATM    2  C   UNL     1      39.545 -11.352   3.394  1.00  0.00     0.278 A 
HETATM    3  O   UNL     1      39.118 -10.874   2.360  1.00  0.00    -0.265 OA
HETATM    4  C   UNL     1      39.518 -12.790   3.723  1.00  0.00     0.146 A 
HETATM    5  C   UNL     1      40.196 -12.943   4.864  1.00  0.00     0.059 A 
HETATM    6  C   UNL     1      40.661 -11.637   5.434  1.00  0.00     0.161 A 
ENDROOT
BRANCH   5   7
HETATM    7  C   UNL     1      40.424 -14.175   5.641  1.00  0.00     0.193 C 
HETATM    8  O   UNL     1      39.808 -14.318   6.695  1.00  0.00    -0.287 OA
BRANCH   7   9
HETATM    9  C   UNL     1      41.409 -15.199   5.193  1.00  0.00     0.015 A 
HETATM   10  C   UNL     1      41.859 -16.136   6.131  1.00  0.00     0.025 A 
HETATM   11  C   UNL     1      42.800 -17.118   5.775  1.00  0.00    -0.028 A 
HETATM   12  C   UNL     1      43.264 -18.114   6.806  1.00  0.00     0.051 C 
HETATM   13  C   UNL     1      43.284 -17.172   4.456  1.00  0.00     0.074 A 
HETATM   14  C   UNL     1      42.862 -16.214   3.533  1.00  0.00     0.038 A 
HETATM   15  C   UNL     1      41.943 -15.225   3.901  1.00  0.00     0.018 A 
BRANCH  13  16
HETATM   16  O   UNL     1      44.163 -18.186   4.185  1.00  0.00    -0.350 OA
BRANCH  16  17
HETATM   17  C   UNL     1      44.348 -18.557   2.817  1.00  0.00     0.179 C 
BRANCH  17  18
HETATM   18  C   UNL     1      43.971 -20.035   2.646  1.00  0.00     0.002 C 
HETATM   19  C   UNL     1      43.899 -20.751   3.997  1.00  0.00     0.011 C 
HETATM   20  C   UNL     1      42.639 -20.163   1.908  1.00  0.00     0.011 C 
ENDBRANCH  17  18
ENDBRANCH  16  17
ENDBRANCH  13  16
ENDBRANCH   7   9
ENDBRANCH   5   7
BRANCH   4  21
HETATM   21  O   UNL     1      38.891 -13.725   2.959  1.00  0.00    -0.355 OA
HETATM   22  H   UNL     1      39.450 -13.869   2.168  1.00  0.00     0.218 HD
ENDBRANCH   4  21
BRANCH   6  23
HETATM   23  C   UNL     1      42.163 -11.524   5.624  1.00  0.00    -0.028 A 
HETATM   24  C   UNL     1      42.752 -11.406   6.900  1.00  0.00     0.049 A 
HETATM   25  C   UNL     1      44.140 -11.332   7.031  1.00  0.00     0.101 A 
HETATM   26  C   UNL     1      44.943 -11.426   5.894  1.00  0.00     0.099 A 
HETATM   27  C   UNL     1      44.386 -11.530   4.629  1.00  0.00     0.040 A 
HETATM   28  C   UNL     1      42.999 -11.568   4.492  1.00  0.00     0.012 A 
BRANCH  25  29
HETATM   29  O   UNL     1      44.798 -11.227   8.229  1.00  0.00    -0.353 OA
HETATM   30  C   UNL     1      44.150 -10.382   9.178  1.00  0.00     0.210 C 
ENDBRANCH  25  29
BRANCH  26  31
HETATM   31  O   UNL     1      46.305 -11.402   6.000  1.00  0.00    -0.358 OA
HETATM   32  H   UNL     1      46.590 -12.336   5.973  1.00  0.00     0.218 HD
ENDBRANCH  26  31
ENDBRANCH   6  23
BRANCH   1  33
HETATM   33  C   UNL     1      40.572  -9.297   4.381  1.00  0.00     0.155 C 
BRANCH  33  34
HETATM   34  C   UNL     1      39.460  -8.283   4.711  1.00  0.00     0.254 C 
BRANCH  34  35
HETATM   35  N   UNL     1      39.573  -7.681   6.111  1.00  0.00    -0.070 N 
HETATM   36  H   UNL     1      38.710  -7.967   6.592  1.00  0.00     0.279 HD
BRANCH  35  37
HETATM   37  C   UNL     1      39.562  -6.158   6.147  1.00  0.00     0.230 C 
HETATM   38  C   UNL     1      40.478  -5.562   5.094  1.00  0.00     0.034 C 
ENDBRANCH  35  37
BRANCH  35  39
HETATM   39  C   UNL     1      40.712  -8.223   6.957  1.00  0.00     0.230 C 
HETATM   40  C   UNL     1      40.196  -8.993   8.159  1.00  0.00     0.034 C 
ENDBRANCH  35  39
ENDBRANCH  34  35
ENDBRANCH  33  34
ENDBRANCH   1  33
TORSDOF 14
ENDMDL
MODEL 4
REMARK VINA RESULT:      -7.1      1.431      2.046
REMARK  14 active torsions:
REMARK  status: ('A' for Active; 'I' for Inactive)
REMARK    1  A    between atoms: C_2  and  N_3 
REMARK    2  A    between atoms: N_3  and  C_5 
REMARK    3  A    between atoms: N_3  and  C_37 
REMARK    4  A    between atoms: C_5  and  C_6 
REMARK    5  A    between atoms: C_6  and  N_7 
REMARK    6  A    between atoms: C_10  and  O_11 
REMARK    7  A    between atoms: C_12  and  C_13 
REMARK    8  A    between atoms: C_13  and  C_14 
REMARK    9  A    between atoms: C_18  and  O_19 
REMARK   10  A    between atoms: O_19  and  C_20 
REMARK   11  A    between atoms: C_20  and  C_21 
REMARK   12  A    between atoms: C_27  and  C_28 
REMARK   13  A    between atoms: C_30  and  O_31 
REMARK   14  A    between atoms: C_33  and  O_34 
ROOT
HETATM    1  N   UNL     1      41.764 -14.338   5.620  1.00  0.00    -0.332 N 
HETATM    2  C   UNL     1      40.494 -14.292   6.155  1.00  0.00     0.278 A 
HETATM    3  O   UNL     1      39.956 -15.116   6.870  1.00  0.00    -0.265 OA
HETATM    4  C   UNL     1      39.870 -13.025   5.726  1.00  0.00     0.146 A 
HETATM    5  C   UNL     1      40.807 -12.329   5.076  1.00  0.00     0.059 A 
HETATM    6  C   UNL     1      42.095 -13.085   4.944  1.00  0.00     0.161 A 
ENDROOT
BRANCH   5   7
HETATM    7  C   UNL     1      40.684 -11.019   4.411  1.00  0.00     0.193 C 
HETATM    8  O   UNL     1      40.861 -10.008   5.088  1.00  0.00    -0.287 OA
BRANCH   7   9
HETATM    9  C   UNL     1      40.309 -10.913   2.974  1.00  0.00     0.015 A 
HETATM   10  C   UNL     1      38.958 -11.054   2.633  1.00  0.00     0.025 A 
HETATM   11  C   UNL     1      38.541 -10.980   1.292  1.00  0.00    -0.028 A 
HETATM   12  C   UNL     1      37.081 -11.133   0.957  1.00  0.00     0.051 C 
HETATM   13  C   UNL     1      39.489 -10.745   0.281  1.00  0.00     0.074 A 
HETATM   14  C   UNL     1      40.840 -10.643   0.620  1.00  0.00     0.038 A 
HETATM   15  C   UNL     1      41.249 -10.741   1.954  1.00  0.00     0.018 A 
BRANCH  13  16
HETATM   16  O   UNL     1      38.992 -10.645  -0.991  1.00  0.00    -0.350 OA
BRANCH  16  17
HETATM   17  C   UNL     1      39.552 -11.496  -1.993  1.00  0.00     0.179 C 
BRANCH  17  18
HETATM   18  C   UNL     1      39.104 -12.940  -1.729  1.00  0.00     0.002 C 
HETATM   19  C   UNL     1      37.672 -13.175  -2.213  1.00  0.00     0.011 C 
HETATM   20  C   UNL     1      40.059 -13.925  -2.401  1.00  0.00     0.011 C 
ENDBRANCH  17  18
ENDBRANCH  16  17
ENDBRANCH  13  16
ENDBRANCH   7   9
ENDBRANCH   5   7
BRANCH   4  21
HETATM   21  O   UNL     1      38.573 -12.702   5.977  1.00  0.00    -0.355 OA
HETATM   22  H   UNL     1      38.039 -13.078   5.247  1.00  0.00     0.218 HD
ENDBRANCH   4  21
BRANCH   6  23
HETATM   23  C   UNL     1      43.304 -12.395   5.551  1.00  0.00    -0.028 A 
HETATM   24  C   UNL     1      43.429 -12.183   6.939  1.00  0.00     0.049 A 
HETATM   25  C   UNL     1      44.572 -11.570   7.457  1.00  0.00     0.101 A 
HETATM   26  C   UNL     1      45.610 -11.212   6.596  1.00  0.00     0.099 A 
HETATM   27  C   UNL     1      45.503 -11.399   5.227  1.00  0.00     0.040 A 
HETATM   28  C   UNL     1      44.348 -11.979   4.703  1.00  0.00     0.012 A 
BRANCH  25  29
HETATM   29  O   UNL     1      44.784 -11.333   8.790  1.00  0.00    -0.353 OA
HETATM   30  C   UNL     1      43.913 -10.354   9.355  1.00  0.00     0.210 C 
ENDBRANCH  25  29
BRANCH  26  31
HETATM   31  O   UNL     1      46.756 -10.652   7.084  1.00  0.00    -0.358 OA
HETATM   32  H   UNL     1      46.607  -9.687   7.072  1.00  0.00     0.218 HD
ENDBRANCH  26  31
ENDBRANCH   6  23
BRANCH   1  33
HETATM   33  C   UNL     1      42.770 -15.316   6.019  1.00  0.00     0.155 C 
BRANCH  33  34
HETATM   34  C   UNL     1      42.603 -16.699   5.360  1.00  0.00     0.254 C 
BRANCH  34  35
HETATM   35  N   UNL     1      43.632 -16.988   4.267  1.00  0.00    -0.070 N 
HETATM   36  H   UNL     1      44.392 -16.315   4.435  1.00  0.00     0.279 HD
BRANCH  35  37
HETATM   37  C   UNL     1      43.148 -16.696   2.852  1.00  0.00     0.230 C 
HETATM   38  C   UNL     1      41.641 -16.530   2.793  1.00  0.00     0.034 C 
ENDBRANCH  35  37
BRANCH  35  39
HETATM   39  C   UNL     1      44.277 -18.361   4.335  1.00  0.00     0.230 C 
HETATM   40  C   UNL     1      44.029 -19.156   3.066  1.00  0.00     0.034 C 
ENDBRANCH  35  39
ENDBRANCH  34  35
ENDBRANCH  33  34
ENDBRANCH   1  33
TORSDOF 14
ENDMDL
MODEL 5
REMARK VINA RESULT:      -7.0      2.411      8.090
REMARK  14 active torsions:
REMARK  status: ('A' for Active; 'I' for Inactive)
REMARK    1  A    between atoms: C_2  and  N_3 
REMARK    2  A    between atoms: N_3  and  C_5 
REMARK    3  A    between atoms: N_3  and  C_37 
REMARK    4  A    between atoms: C_5  and  C_6 
REMARK    5  A    between atoms: C_6  and  N_7 
REMARK    6  A    between atoms: C_10  and  O_11 
REMARK    7  A    between atoms: C_12  and  C_13 
REMARK    8  A    between atoms: C_13  and  C_14 
REMARK    9  A    between atoms: C_18  and  O_19 
REMARK   10  A    between atoms: O_19  and  C_20 
REMARK   11  A    between atoms: C_20  and  C_21 
REMARK   12  A    between atoms: C_27  and  C_28 
REMARK   13  A    between atoms: C_30  and  O_31 
REMARK   14  A    between atoms: C_33  and  O_34 
ROOT
HETATM    1  N   UNL     1      40.549 -13.261   2.648  1.00  0.00    -0.332 N 
HETATM    2  C   UNL     1      39.904 -12.114   3.062  1.00  0.00     0.278 A 
HETATM    3  O   UNL     1      38.721 -11.848   2.962  1.00  0.00    -0.265 OA
HETATM    4  C   UNL     1      40.907 -11.234   3.691  1.00  0.00     0.146 A 
HETATM    5  C   UNL     1      42.053 -11.920   3.740  1.00  0.00     0.059 A 
HETATM    6  C   UNL     1      41.943 -13.266   3.089  1.00  0.00     0.161 A 
ENDROOT
BRANCH   5   7
HETATM    7  C   UNL     1      43.370 -11.479   4.234  1.00  0.00     0.193 C 
HETATM    8  O   UNL     1      44.310 -11.462   3.441  1.00  0.00    -0.287 OA
BRANCH   7   9
HETATM    9  C   UNL     1      43.576 -11.110   5.662  1.00  0.00     0.015 A 
HETATM   10  C   UNL     1      42.977  -9.935   6.133  1.00  0.00     0.025 A 
HETATM   11  C   UNL     1      43.146  -9.524   7.467  1.00  0.00    -0.028 A 
HETATM   12  C   UNL     1      42.487  -8.257   7.945  1.00  0.00     0.051 C 
HETATM   13  C   UNL     1      43.912 -10.311   8.345  1.00  0.00     0.074 A 
HETATM   14  C   UNL     1      44.539 -11.461   7.863  1.00  0.00     0.038 A 
HETATM   15  C   UNL     1      44.385 -11.851   6.528  1.00  0.00     0.018 A 
BRANCH  13  16
HETATM   16  O   UNL     1      43.989  -9.861   9.636  1.00  0.00    -0.350 OA
BRANCH  16  17
HETATM   17  C   UNL     1      43.596 -10.757  10.677  1.00  0.00     0.179 C 
BRANCH  17  18
HETATM   18  C   UNL     1      42.806  -9.975  11.736  1.00  0.00     0.002 C 
HETATM   19  C   UNL     1      43.510  -8.667  12.102  1.00  0.00     0.011 C 
HETATM   20  C   UNL     1      41.388  -9.693  11.242  1.00  0.00     0.011 C 
ENDBRANCH  17  18
ENDBRANCH  16  17
ENDBRANCH  13  16
ENDBRANCH   7   9
ENDBRANCH   5   7
BRANCH   4  21
HETATM   21  O   UNL     1      40.641  -9.968   4.111  1.00  0.00    -0.355 OA
HETATM   22  H   UNL     1      41.366  -9.399   3.779  1.00  0.00     0.218 HD
ENDBRANCH   4  21
BRANCH   6  23
HETATM   23  C   UNL     1      42.265 -14.441   3.995  1.00  0.00    -0.028 A 
HETATM   24  C   UNL     1      42.993 -15.560   3.544  1.00  0.00     0.049 A 
HETATM   25  C   UNL     1      43.291 -16.607   4.420  1.00  0.00     0.101 A 
HETATM   26  C   UNL     1      42.904 -16.514   5.757  1.00  0.00     0.099 A 
HETATM   27  C   UNL     1      42.176 -15.428   6.220  1.00  0.00     0.040 A 
HETATM   28  C   UNL     1      41.847 -14.399   5.339  1.00  0.00     0.012 A 
BRANCH  25  29
HETATM   29  O   UNL     1      44.001 -17.726   4.072  1.00  0.00    -0.353 OA
HETATM   30  C   UNL     1      43.678 -18.245   2.784  1.00  0.00     0.210 C 
ENDBRANCH  25  29
BRANCH  26  31
HETATM   31  O   UNL     1      43.223 -17.503   6.644  1.00  0.00    -0.358 OA
HETATM   32  H   UNL     1      42.392 -17.989   6.810  1.00  0.00     0.218 HD
ENDBRANCH  26  31
ENDBRANCH   6  23
BRANCH   1  33
HETATM   33  C   UNL     1      39.851 -14.461   2.204  1.00  0.00     0.155 C 
BRANCH  33  34
HETATM   34  C   UNL     1      40.286 -14.968   0.815  1.00  0.00     0.254 C 
BRANCH  34  35
HETATM   35  N   UNL     1      39.536 -14.309  -0.342  1.00  0.00    -0.070 N 
HETATM   36  H   UNL     1      38.623 -14.043   0.052  1.00  0.00     0.279 HD
BRANCH  35  37
HETATM   37  C   UNL     1      39.212 -15.246  -1.499  1.00  0.00     0.230 C 
HETATM   38  C   UNL     1      38.936 -14.484  -2.782  1.00  0.00     0.034 C 
ENDBRANCH  35  37
BRANCH  35  39
HETATM   39  C   UNL     1      40.150 -13.020  -0.859  1.00  0.00     0.230 C 
HETATM   40  C   UNL     1      39.280 -11.820  -0.536  1.00  0.00     0.034 C 
ENDBRANCH  35  39
ENDBRANCH  34  35
ENDBRANCH  33  34
ENDBRANCH   1  33
TORSDOF 14
ENDMDL
MODEL 6
REMARK VINA RESULT:      -7.0      3.493      8.946
REMARK  14 active torsions:
REMARK  status: ('A' for Active; 'I' for Inactive)
REMARK    1  A    between atoms: C_2  and  N_3 
REMARK    2  A    between atoms: N_3  and  C_5 
REMARK    3  A    between atoms: N_3  and  C_37 
REMARK    4  A    between atoms: C_5  and  C_6 
REMARK    5  A    between atoms: C_6  and  N_7 
REMARK    6  A    between atoms: C_10  and  O_11 
REMARK    7  A    between atoms: C_12  and  C_13 
REMARK    8  A    between atoms: C_13  and  C_14 
REMARK    9  A    between atoms: C_18  and  O_19 
REMARK   10  A    between atoms: O_19  and  C_20 
REMARK   11  A    between atoms: C_20  and  C_21 
REMARK   12  A    between atoms: C_27  and  C_28 
REMARK   13  A    between atoms: C_30  and  O_31 
REMARK   14  A    between atoms: C_33  and  O_34 
ROOT
HETATM    1  N   UNL     1      43.005 -11.097   6.621  1.00  0.00    -0.332 N 
HETATM    2  C   UNL     1      44.255 -11.205   6.049  1.00  0.00     0.278 A 
HETATM    3  O   UNL     1      44.532 -11.604   4.934  1.00  0.00    -0.265 OA
HETATM    4  C   UNL     1      45.244 -10.722   7.032  1.00  0.00     0.146 A 
HETATM    5  C   UNL     1      44.558 -10.242   8.073  1.00  0.00     0.059 A 
HETATM    6  C   UNL     1      43.078 -10.429   7.920  1.00  0.00     0.161 A 
ENDROOT
BRANCH   5   7
HETATM    7  C   UNL     1      45.073  -9.684   9.336  1.00  0.00     0.193 C 
HETATM    8  O   UNL     1      46.238  -9.293   9.364  1.00  0.00    -0.287 OA
BRANCH   7   9
HETATM    9  C   UNL     1      44.229  -9.638  10.562  1.00  0.00     0.015 A 
HETATM   10  C   UNL     1      43.886  -8.383  11.081  1.00  0.00     0.025 A 
HETATM   11  C   UNL     1      43.104  -8.273  12.245  1.00  0.00    -0.028 A 
HETATM   12  C   UNL     1      42.751  -6.910  12.778  1.00  0.00     0.051 C 
HETATM   13  C   UNL     1      42.645  -9.436  12.887  1.00  0.00     0.074 A 
HETATM   14  C   UNL     1      43.019 -10.686  12.389  1.00  0.00     0.038 A 
HETATM   15  C   UNL     1      43.817 -10.787  11.244  1.00  0.00     0.018 A 
BRANCH  13  16
HETATM   16  O   UNL     1      41.855  -9.237  13.987  1.00  0.00    -0.350 OA
BRANCH  16  17
HETATM   17  C   UNL     1      40.467  -9.561  13.876  1.00  0.00     0.179 C 
BRANCH  17  18
HETATM   18  C   UNL     1      39.975  -9.175  12.475  1.00  0.00     0.002 C 
HETATM   19  C   UNL     1      39.312 -10.361  11.771  1.00  0.00     0.011 C 
HETATM   20  C   UNL     1      39.004  -7.999  12.557  1.00  0.00     0.011 C 
ENDBRANCH  17  18
ENDBRANCH  16  17
ENDBRANCH  13  16
ENDBRANCH   7   9
ENDBRANCH   5   7
BRANCH   4  21
HETATM   21  O   UNL     1      46.590 -10.795   6.844  1.00  0.00    -0.355 OA
HETATM   22  H   UNL     1      47.000 -10.827   7.733  1.00  0.00     0.218 HD
ENDBRANCH   4  21
BRANCH   6  23
HETATM   23  C   UNL     1      42.266  -9.147   7.963  1.00  0.00    -0.028 A 
HETATM   24  C   UNL     1      42.621  -8.007   7.212  1.00  0.00     0.049 A 
HETATM   25  C   UNL     1      41.830  -6.858   7.260  1.00  0.00     0.101 A 
HETATM   26  C   UNL     1      40.658  -6.862   8.018  1.00  0.00     0.099 A 
HETATM   27  C   UNL     1      40.296  -7.966   8.774  1.00  0.00     0.040 A 
HETATM   28  C   UNL     1      41.104  -9.102   8.756  1.00  0.00     0.012 A 
BRANCH  25  29
HETATM   29  O   UNL     1      42.091  -5.710   6.558  1.00  0.00    -0.353 OA
HETATM   30  C   UNL     1      41.829  -5.810   5.159  1.00  0.00     0.210 C 
ENDBRANCH  25  29
BRANCH  26  31
HETATM   31  O   UNL     1      39.844  -5.765   8.045  1.00  0.00    -0.358 OA
HETATM   32  H   UNL     1      40.321  -5.067   7.556  1.00  0.00     0.218 HD
ENDBRANCH  26  31
ENDBRANCH   6  23
BRANCH   1  33
HETATM   33  C   UNL     1      41.762 -11.248   5.874  1.00  0.00     0.155 C 
BRANCH  33  34
HETATM   34  C   UNL     1      41.305 -12.709   5.697  1.00  0.00     0.254 C 
BRANCH  34  35
HETATM   35  N   UNL     1      42.075 -13.468   4.616  1.00  0.00    -0.070 N 
HETATM   36  H   UNL     1      42.811 -12.817   4.310  1.00  0.00     0.279 HD
BRANCH  35  37
HETATM   37  C   UNL     1      41.267 -13.772   3.361  1.00  0.00     0.230 C 
HETATM   38  C   UNL     1      39.830 -13.304   3.488  1.00  0.00     0.034 C 
ENDBRANCH  35  37
BRANCH  35  39
HETATM   39  C   UNL     1      42.802 -14.712   5.095  1.00  0.00     0.230 C 
HETATM   40  C   UNL     1      42.717 -15.833   4.075  1.00  0.00     0.034 C 
ENDBRANCH  35  39
ENDBRANCH  34  35
ENDBRANCH  33  34
ENDBRANCH   1  33
TORSDOF 14
ENDMDL
MODEL 7
REMARK VINA RESULT:      -6.8      3.742      9.371
REMARK  14 active torsions:
REMARK  status: ('A' for Active; 'I' for Inactive)
REMARK    1  A    between atoms: C_2  and  N_3 
REMARK    2  A    between atoms: N_3  and  C_5 
REMARK    3  A    between atoms: N_3  and  C_37 
REMARK    4  A    between atoms: C_5  and  C_6 
REMARK    5  A    between atoms: C_6  and  N_7 
REMARK    6  A    between atoms: C_10  and  O_11 
REMARK    7  A    between atoms: C_12  and  C_13 
REMARK    8  A    between atoms: C_13  and  C_14 
REMARK    9  A    between atoms: C_18  and  O_19 
REMARK   10  A    between atoms: O_19  and  C_20 
REMARK   11  A    between atoms: C_20  and  C_21 
REMARK   12  A    between atoms: C_27  and  C_28 
REMARK   13  A    between atoms: C_30  and  O_31 
REMARK   14  A    between atoms: C_33  and  O_34 
ROOT
HETATM    1  N   UNL     1      43.256 -11.290   6.659  1.00  0.00    -0.332 N 
HETATM    2  C   UNL     1      44.556 -11.258   6.199  1.00  0.00     0.278 A 
HETATM    3  O   UNL     1      44.980 -11.668   5.135  1.00  0.00    -0.265 OA
HETATM    4  C   UNL     1      45.383 -10.603   7.230  1.00  0.00     0.146 A 
HETATM    5  C   UNL     1      44.551 -10.171   8.182  1.00  0.00     0.059 A 
HETATM    6  C   UNL     1      43.127 -10.558   7.918  1.00  0.00     0.161 A 
ENDROOT
BRANCH   5   7
HETATM    7  C   UNL     1      44.876  -9.490   9.449  1.00  0.00     0.193 C 
HETATM    8  O   UNL     1      46.037  -9.129   9.631  1.00  0.00    -0.287 OA
BRANCH   7   9
HETATM    9  C   UNL     1      43.844  -9.288  10.504  1.00  0.00     0.015 A 
HETATM   10  C   UNL     1      43.338  -7.996  10.692  1.00  0.00     0.025 A 
HETATM   11  C   UNL     1      42.374  -7.736  11.682  1.00  0.00    -0.028 A 
HETATM   12  C   UNL     1      41.847  -6.337  11.860  1.00  0.00     0.051 C 
HETATM   13  C   UNL     1      41.898  -8.790  12.483  1.00  0.00     0.074 A 
HETATM   14  C   UNL     1      42.431 -10.070  12.318  1.00  0.00     0.038 A 
HETATM   15  C   UNL     1      43.408 -10.315  11.346  1.00  0.00     0.018 A 
BRANCH  13  16
HETATM   16  O   UNL     1      40.929  -8.458  13.392  1.00  0.00    -0.350 OA
BRANCH  16  17
HETATM   17  C   UNL     1      41.153  -8.805  14.760  1.00  0.00     0.179 C 
BRANCH  17  18
HETATM   18  C   UNL     1      41.119  -7.528  15.611  1.00  0.00     0.002 C 
HETATM   19  C   UNL     1      42.465  -6.801  15.577  1.00  0.00     0.011 C 
HETATM   20  C   UNL     1      40.004  -6.599  15.132  1.00  0.00     0.011 C 
ENDBRANCH  17  18
ENDBRANCH  16  17
ENDBRANCH  13  16
ENDBRANCH   7   9
ENDBRANCH   5   7
BRANCH   4  21
HETATM   21  O   UNL     1      46.738 -10.505   7.158  1.00  0.00    -0.355 OA
HETATM   22  H   UNL     1      46.971  -9.586   7.403  1.00  0.00     0.218 HD
ENDBRANCH   4  21
BRANCH   6  23
HETATM   23  C   UNL     1      42.157  -9.394   7.820  1.00  0.00    -0.028 A 
HETATM   24  C   UNL     1      40.881  -9.429   8.418  1.00  0.00     0.049 A 
HETATM   25  C   UNL     1      40.031  -8.324   8.327  1.00  0.00     0.101 A 
HETATM   26  C   UNL     1      40.473  -7.169   7.682  1.00  0.00     0.099 A 
HETATM   27  C   UNL     1      41.719  -7.117   7.076  1.00  0.00     0.040 A 
HETATM   28  C   UNL     1      42.555  -8.231   7.135  1.00  0.00     0.012 A 
BRANCH  25  29
HETATM   29  O   UNL     1      38.780  -8.265   8.884  1.00  0.00    -0.353 OA
HETATM   30  C   UNL     1      38.780  -8.159  10.306  1.00  0.00     0.210 C 
ENDBRANCH  25  29
BRANCH  26  31
HETATM   31  O   UNL     1      39.677  -6.060   7.619  1.00  0.00    -0.358 OA
HETATM   32  H   UNL     1      39.213  -6.114   6.761  1.00  0.00     0.218 HD
ENDBRANCH  26  31
ENDBRANCH   6  23
BRANCH   1  33
HETATM   33  C   UNL     1      42.115 -11.639   5.822  1.00  0.00     0.155 C 
BRANCH  33  34
HETATM   34  C   UNL     1      41.815 -13.150   5.760  1.00  0.00     0.254 C 
BRANCH  34  35
HETATM   35  N   UNL     1      42.989 -13.989   5.256  1.00  0.00    -0.070 N 
HETATM   36  H   UNL     1      43.757 -13.317   5.126  1.00  0.00     0.279 HD
BRANCH  35  37
HETATM   37  C   UNL     1      42.774 -14.617   3.885  1.00  0.00     0.230 C 
HETATM   38  C   UNL     1      43.015 -13.623   2.765  1.00  0.00     0.034 C 
ENDBRANCH  35  37
BRANCH  35  39
HETATM   39  C   UNL     1      43.511 -15.024   6.238  1.00  0.00     0.230 C 
HETATM   40  C   UNL     1      42.487 -15.337   7.313  1.00  0.00     0.034 C 
ENDBRANCH  35  39
ENDBRANCH  34  35
ENDBRANCH  33  34
ENDBRANCH   1  33
TORSDOF 14
ENDMDL
MODEL 8
REMARK VINA RESULT:      -6.8      4.119      8.547
REMARK  14 active torsions:
REMARK  status: ('A' for Active; 'I' for Inactive)
REMARK    1  A    between atoms: C_2  and  N_3 
REMARK    2  A    between atoms: N_3  and  C_5 
REMARK    3  A    between atoms: N_3  and  C_37 
REMARK    4  A    between atoms: C_5  and  C_6 
REMARK    5  A    between atoms: C_6  and  N_7 
REMARK    6  A    between atoms: C_10  and  O_11 
REMARK    7  A    between atoms: C_12  and  C_13 
REMARK    8  A    between atoms: C_13  and  C_14 
REMARK    9  A    between atoms: C_18  and  O_19 
REMARK   10  A    between atoms: O_19  and  C_20 
REMARK   11  A    between atoms: C_20  and  C_21 
REMARK   12  A    between atoms: C_27  and  C_28 
REMARK   13  A    between atoms: C_30  and  O_31 
REMARK   14  A    between atoms: C_33  and  O_34 
ROOT
HETATM    1  N   UNL     1      41.951  -8.554  10.936  1.00  0.00    -0.332 N 
HETATM    2  C   UNL     1      42.220  -9.752  11.564  1.00  0.00     0.278 A 
HETATM    3  O   UNL     1      41.748 -10.170  12.604  1.00  0.00    -0.265 OA
HETATM    4  C   UNL     1      43.194 -10.487  10.735  1.00  0.00     0.146 A 
HETATM    5  C   UNL     1      43.368  -9.778   9.616  1.00  0.00     0.059 A 
HETATM    6  C   UNL     1      42.602  -8.489   9.628  1.00  0.00     0.161 A 
ENDROOT
BRANCH   5   7
HETATM    7  C   UNL     1      44.269 -10.054   8.482  1.00  0.00     0.193 C 
HETATM    8  O   UNL     1      45.363  -9.493   8.462  1.00  0.00    -0.287 OA
BRANCH   7   9
HETATM    9  C   UNL     1      43.854 -10.946   7.364  1.00  0.00     0.015 A 
HETATM   10  C   UNL     1      43.238 -10.364   6.249  1.00  0.00     0.025 A 
HETATM   11  C   UNL     1      42.809 -11.154   5.168  1.00  0.00    -0.028 A 
HETATM   12  C   UNL     1      42.151 -10.499   3.982  1.00  0.00     0.051 C 
HETATM   13  C   UNL     1      43.016 -12.545   5.197  1.00  0.00     0.074 A 
HETATM   14  C   UNL     1      43.597 -13.126   6.325  1.00  0.00     0.038 A 
HETATM   15  C   UNL     1      43.999 -12.336   7.408  1.00  0.00     0.018 A 
BRANCH  13  16
HETATM   16  O   UNL     1      42.608 -13.232   4.086  1.00  0.00    -0.350 OA
BRANCH  16  17
HETATM   17  C   UNL     1      42.307 -14.621   4.236  1.00  0.00     0.179 C 
BRANCH  17  18
HETATM   18  C   UNL     1      43.295 -15.439   3.393  1.00  0.00     0.002 C 
HETATM   19  C   UNL     1      43.039 -16.941   3.537  1.00  0.00     0.011 C 
HETATM   20  C   UNL     1      43.211 -15.026   1.924  1.00  0.00     0.011 C 
ENDBRANCH  17  18
ENDBRANCH  16  17
ENDBRANCH  13  16
ENDBRANCH   7   9
ENDBRANCH   5   7
BRANCH   4  21
HETATM   21  O   UNL     1      43.771 -11.660  11.112  1.00  0.00    -0.355 OA
HETATM   22  H   UNL     1      44.043 -11.556  12.047  1.00  0.00     0.218 HD
ENDBRANCH   4  21
BRANCH   6  23
HETATM   23  C   UNL     1      41.611  -8.325   8.490  1.00  0.00    -0.028 A 
HETATM   24  C   UNL     1      40.578  -9.255   8.254  1.00  0.00     0.049 A 
HETATM   25  C   UNL     1      39.671  -9.051   7.212  1.00  0.00     0.101 A 
HETATM   26  C   UNL     1      39.765  -7.894   6.437  1.00  0.00     0.099 A 
HETATM   27  C   UNL     1      40.779  -6.972   6.643  1.00  0.00     0.040 A 
HETATM   28  C   UNL     1      41.708  -7.192   7.660  1.00  0.00     0.012 A 
BRANCH  25  29
HETATM   29  O   UNL     1      38.632  -9.894   6.916  1.00  0.00    -0.353 OA
HETATM   30  C   UNL     1      39.031 -11.118   6.303  1.00  0.00     0.210 C 
ENDBRANCH  25  29
BRANCH  26  31
HETATM   31  O   UNL     1      38.862  -7.649   5.441  1.00  0.00    -0.358 OA
HETATM   32  H   UNL     1      38.168  -8.330   5.538  1.00  0.00     0.218 HD
ENDBRANCH  26  31
ENDBRANCH   6  23
BRANCH   1  33
HETATM   33  C   UNL     1      40.860  -7.669  11.325  1.00  0.00     0.155 C 
BRANCH  33  34
HETATM   34  C   UNL     1      41.190  -6.744  12.513  1.00  0.00     0.254 C 
BRANCH  34  35
HETATM   35  N   UNL     1      40.806  -7.328  13.872  1.00  0.00    -0.070 N 
HETATM   36  H   UNL     1      40.417  -8.257  13.660  1.00  0.00     0.279 HD
BRANCH  35  37
HETATM   37  C   UNL     1      39.686  -6.583  14.587  1.00  0.00     0.230 C 
HETATM   38  C   UNL     1      39.545  -5.159  14.082  1.00  0.00     0.034 C 
ENDBRANCH  35  37
BRANCH  35  39
HETATM   39  C   UNL     1      41.967  -7.577  14.819  1.00  0.00     0.230 C 
HETATM   40  C   UNL     1      43.286  -7.133  14.211  1.00  0.00     0.034 C 
ENDBRANCH  35  39
ENDBRANCH  34  35
ENDBRANCH  33  34
ENDBRANCH   1  33
TORSDOF 14
ENDMDL
MODEL 9
REMARK VINA RESULT:      -6.7      3.582      8.655
REMARK  14 active torsions:
REMARK  status: ('A' for Active; 'I' for Inactive)
REMARK    1  A    between atoms: C_2  and  N_3 
REMARK    2  A    between atoms: N_3  and  C_5 
REMARK    3  A    between atoms: N_3  and  C_37 
REMARK    4  A    between atoms: C_5  and  C_6 
REMARK    5  A    between atoms: C_6  and  N_7 
REMARK    6  A    between atoms: C_10  and  O_11 
REMARK    7  A    between atoms: C_12  and  C_13 
REMARK    8  A    between atoms: C_13  and  C_14 
REMARK    9  A    between atoms: C_18  and  O_19 
REMARK   10  A    between atoms: O_19  and  C_20 
REMARK   11  A    between atoms: C_20  and  C_21 
REMARK   12  A    between atoms: C_27  and  C_28 
REMARK   13  A    between atoms: C_30  and  O_31 
REMARK   14  A    between atoms: C_33  and  O_34 
ROOT
HETATM    1  N   UNL     1      39.646 -11.027  -1.318  1.00  0.00    -0.332 N 
HETATM    2  C   UNL     1      40.457 -11.439  -2.355  1.00  0.00     0.278 A 
HETATM    3  O   UNL     1      40.933 -10.759  -3.244  1.00  0.00    -0.265 OA
HETATM    4  C   UNL     1      40.687 -12.888  -2.199  1.00  0.00     0.146 A 
HETATM    5  C   UNL     1      40.125 -13.250  -1.042  1.00  0.00     0.059 A 
HETATM    6  C   UNL     1      39.414 -12.115  -0.370  1.00  0.00     0.161 A 
ENDROOT
BRANCH   5   7
HETATM    7  C   UNL     1      40.036 -14.595  -0.443  1.00  0.00     0.193 C 
HETATM    8  O   UNL     1      39.209 -15.379  -0.903  1.00  0.00    -0.287 OA
BRANCH   7   9
HETATM    9  C   UNL     1      40.884 -14.981   0.718  1.00  0.00     0.015 A 
HETATM   10  C   UNL     1      40.244 -15.361   1.905  1.00  0.00     0.025 A 
HETATM   11  C   UNL     1      40.989 -15.723   3.042  1.00  0.00    -0.028 A 
HETATM   12  C   UNL     1      40.273 -16.128   4.303  1.00  0.00     0.051 C 
HETATM   13  C   UNL     1      42.394 -15.720   2.983  1.00  0.00     0.074 A 
HETATM   14  C   UNL     1      43.029 -15.305   1.810  1.00  0.00     0.038 A 
HETATM   15  C   UNL     1      42.280 -14.924   0.691  1.00  0.00     0.018 A 
BRANCH  13  16
HETATM   16  O   UNL     1      43.039 -16.126   4.120  1.00  0.00    -0.350 OA
BRANCH  16  17
HETATM   17  C   UNL     1      43.504 -17.477   4.173  1.00  0.00     0.179 C 
BRANCH  17  18
HETATM   18  C   UNL     1      43.337 -18.005   5.605  1.00  0.00     0.002 C 
HETATM   19  C   UNL     1      43.850 -19.441   5.731  1.00  0.00     0.011 C 
HETATM   20  C   UNL     1      44.061 -17.096   6.596  1.00  0.00     0.011 C 
ENDBRANCH  17  18
ENDBRANCH  16  17
ENDBRANCH  13  16
ENDBRANCH   7   9
ENDBRANCH   5   7
BRANCH   4  21
HETATM   21  O   UNL     1      41.351 -13.648  -3.111  1.00  0.00    -0.355 OA
HETATM   22  H   UNL     1      41.434 -14.546  -2.728  1.00  0.00     0.218 HD
ENDBRANCH   4  21
BRANCH   6  23
HETATM   23  C   UNL     1      39.911 -11.788   1.027  1.00  0.00    -0.028 A 
HETATM   24  C   UNL     1      41.266 -11.505   1.295  1.00  0.00     0.049 A 
HETATM   25  C   UNL     1      41.675 -11.181   2.590  1.00  0.00     0.101 A 
HETATM   26  C   UNL     1      40.725 -11.093   3.608  1.00  0.00     0.099 A 
HETATM   27  C   UNL     1      39.390 -11.379   3.371  1.00  0.00     0.040 A 
HETATM   28  C   UNL     1      38.985 -11.737   2.086  1.00  0.00     0.012 A 
BRANCH  25  29
HETATM   29  O   UNL     1      42.966 -10.882   2.940  1.00  0.00    -0.353 OA
HETATM   30  C   UNL     1      43.754 -12.018   3.291  1.00  0.00     0.210 C 
ENDBRANCH  25  29
BRANCH  26  31
HETATM   31  O   UNL     1      41.094 -10.734   4.874  1.00  0.00    -0.358 OA
HETATM   32  H   UNL     1      41.268  -9.773   4.838  1.00  0.00     0.218 HD
ENDBRANCH  26  31
ENDBRANCH   6  23
BRANCH   1  33
HETATM   33  C   UNL     1      39.400  -9.626  -0.998  1.00  0.00     0.155 C 
BRANCH  33  34
HETATM   34  C   UNL     1      38.163  -9.027  -1.694  1.00  0.00     0.254 C 
BRANCH  34  35
HETATM   35  N   UNL     1      36.954  -9.962  -1.714  1.00  0.00    -0.070 N 
HETATM   36  H   UNL     1      37.278 -10.821  -1.250  1.00  0.00     0.279 HD
BRANCH  35  37
HETATM   37  C   UNL     1      36.519 -10.402  -3.106  1.00  0.00     0.230 C 
HETATM   38  C   UNL     1      35.008 -10.415  -3.246  1.00  0.00     0.034 C 
ENDBRANCH  35  37
BRANCH  35  39
HETATM   39  C   UNL     1      35.757  -9.487  -0.909  1.00  0.00     0.230 C 
HETATM   40  C   UNL     1      35.892  -9.854   0.558  1.00  0.00     0.034 C 
ENDBRANCH  35  39
ENDBRANCH  34  35
ENDBRANCH  33  34
ENDBRANCH   1  33
TORSDOF 14
ENDMDL
MODEL 10
REMARK VINA RESULT:      -6.7      2.560      6.046
REMARK  14 active torsions:
REMARK  status: ('A' for Active; 'I' for Inactive)
REMARK    1  A    between atoms: C_2  and  N_3 
REMARK    2  A    between atoms: N_3  and  C_5 
REMARK    3  A    between atoms: N_3  and  C_37 
REMARK    4  A    between atoms: C_5  and  C_6 
REMARK    5  A    between atoms: C_6  and  N_7 
REMARK    6  A    between atoms: C_10  and  O_11 
REMARK    7  A    between atoms: C_12  and  C_13 
REMARK    8  A    between atoms: C_13  and  C_14 
REMARK    9  A    between atoms: C_18  and  O_19 
REMARK   10  A    between atoms: O_19  and  C_20 
REMARK   11  A    between atoms: C_20  and  C_21 
REMARK   12  A    between atoms: C_27  and  C_28 
REMARK   13  A    between atoms: C_30  and  O_31 
REMARK   14  A    between atoms: C_33  and  O_34 
ROOT
HETATM    1  N   UNL     1      41.986 -14.290   1.675  1.00  0.00    -0.332 N 
HETATM    2  C   UNL     1      40.735 -14.382   1.102  1.00  0.00     0.278 A 
HETATM    3  O   UNL     1      40.220 -15.358   0.589  1.00  0.00    -0.265 OA
HETATM    4  C   UNL     1      40.081 -13.065   1.232  1.00  0.00     0.146 A 
HETATM    5  C   UNL     1      40.893 -12.298   1.966  1.00  0.00     0.059 A 
HETATM    6  C   UNL     1      42.173 -12.991   2.320  1.00  0.00     0.161 A 
ENDROOT
BRANCH   5   7
HETATM    7  C   UNL     1      40.725 -10.884   2.347  1.00  0.00     0.193 C 
HETATM    8  O   UNL     1      41.065 -10.022   1.539  1.00  0.00    -0.287 OA
BRANCH   7   9
HETATM    9  C   UNL     1      40.207 -10.502   3.690  1.00  0.00     0.015 A 
HETATM   10  C   UNL     1      40.777  -9.392   4.326  1.00  0.00     0.025 A 
HETATM   11  C   UNL     1      40.343  -8.990   5.602  1.00  0.00    -0.028 A 
HETATM   12  C   UNL     1      40.974  -7.792   6.260  1.00  0.00     0.051 C 
HETATM   13  C   UNL     1      39.311  -9.700   6.241  1.00  0.00     0.074 A 
HETATM   14  C   UNL     1      38.770 -10.827   5.620  1.00  0.00     0.038 A 
HETATM   15  C   UNL     1      39.224 -11.235   4.361  1.00  0.00     0.018 A 
BRANCH  13  16
HETATM   16  O   UNL     1      38.920  -9.215   7.460  1.00  0.00    -0.350 OA
BRANCH  16  17
HETATM   17  C   UNL     1      39.150 -10.035   8.607  1.00  0.00     0.179 C 
BRANCH  17  18
HETATM   18  C   UNL     1      39.643  -9.152   9.762  1.00  0.00     0.002 C 
HETATM   19  C   UNL     1      41.171  -9.078   9.792  1.00  0.00     0.011 C 
HETATM   20  C   UNL     1      39.048  -7.749   9.651  1.00  0.00     0.011 C 
ENDBRANCH  17  18
ENDBRANCH  16  17
ENDBRANCH  13  16
ENDBRANCH   7   9
ENDBRANCH   5   7
BRANCH   4  21
HETATM   21  O   UNL     1      38.879 -12.763   0.672  1.00  0.00    -0.355 OA
HETATM   22  H   UNL     1      38.707 -11.817   0.860  1.00  0.00     0.218 HD
ENDBRANCH   4  21
BRANCH   6  23
HETATM   23  C   UNL     1      42.442 -13.112   3.809  1.00  0.00    -0.028 A 
HETATM   24  C   UNL     1      41.692 -13.969   4.641  1.00  0.00     0.049 A 
HETATM   25  C   UNL     1      41.992 -14.070   6.001  1.00  0.00     0.101 A 
HETATM   26  C   UNL     1      43.071 -13.354   6.521  1.00  0.00     0.099 A 
HETATM   27  C   UNL     1      43.815 -12.497   5.725  1.00  0.00     0.040 A 
HETATM   28  C   UNL     1      43.495 -12.367   4.374  1.00  0.00     0.012 A 
BRANCH  25  29
HETATM   29  O   UNL     1      41.325 -14.882   6.880  1.00  0.00    -0.353 OA
HETATM   30  C   UNL     1      40.415 -15.790   6.261  1.00  0.00     0.210 C 
ENDBRANCH  25  29
BRANCH  26  31
HETATM   31  O   UNL     1      43.412 -13.472   7.839  1.00  0.00    -0.358 OA
HETATM   32  H   UNL     1      43.704 -12.583   8.118  1.00  0.00     0.218 HD
ENDBRANCH  26  31
ENDBRANCH   6  23
BRANCH   1  33
HETATM   33  C   UNL     1      42.830 -15.446   1.954  1.00  0.00     0.155 C 
BRANCH  33  34
HETATM   34  C   UNL     1      42.074 -16.651   2.547  1.00  0.00     0.254 C 
BRANCH  34  35
HETATM   35  N   UNL     1      42.954 -17.574   3.390  1.00  0.00    -0.070 N 
HETATM   36  H   UNL     1      42.294 -18.197   3.875  1.00  0.00     0.279 HD
BRANCH  35  37
HETATM   37  C   UNL     1      43.726 -16.872   4.499  1.00  0.00     0.230 C 
HETATM   38  C   UNL     1      43.667 -17.644   5.804  1.00  0.00     0.034 C 
ENDBRANCH  35  37
BRANCH  35  39
HETATM   39  C   UNL     1      43.874 -18.488   2.599  1.00  0.00     0.230 C 
HETATM   40  C   UNL     1      43.171 -19.771   2.194  1.00  0.00     0.034 C 
ENDBRANCH  35  39
ENDBRANCH  34  35
ENDBRANCH  33  34
ENDBRANCH   1  33
TORSDOF 14
ENDMDL
