MODEL 1
REMARK VINA RESULT:      -8.2      0.000      0.000
REMARK  8 active torsions:
REMARK  status: ('A' for Active; 'I' for Inactive)
REMARK    1  A    between atoms: C_2  and  O_3 
REMARK    2  A    between atoms: C_2  and  C_4 
REMARK    3  A    between atoms: C_4  and  N_5 
REMARK       I    between atoms: N_5  and  C_6 
REMARK    4  A    between atoms: C_6  and  C_7 
REMARK    5  A    between atoms: C_10  and  O_11 
REMARK    6  A    between atoms: O_11  and  C_12 
REMARK    7  A    between atoms: C_15  and  O_16 
REMARK    8  A    between atoms: O_16  and  C_17 
ROOT
HETATM    1  C   UNL     1      43.535 -11.222   6.671  1.00  0.00     0.049 A 
HETATM    2  C   UNL     1      42.179 -11.301   6.373  1.00  0.00     0.136 A 
HETATM    3  N   UNL     1      41.689 -11.709   5.177  1.00  0.00    -0.236 NA
HETATM    4  C   UNL     1      42.593 -12.042   4.230  1.00  0.00     0.169 A 
HETATM    5  C   UNL     1      43.965 -11.946   4.412  1.00  0.00     0.059 A 
HETATM    6  C   UNL     1      44.445 -11.535   5.657  1.00  0.00     0.023 A 
ENDROOT
BRANCH   4   7
HETATM    7  O   UNL     1      42.157 -12.460   2.980  1.00  0.00    -0.292 OA
BRANCH   7   8
HETATM    8  C   UNL     1      42.269 -13.801   2.692  1.00  0.00     0.078 A 
HETATM    9  C   UNL     1      43.412 -14.210   2.002  1.00  0.00     0.040 A 
HETATM   10  C   UNL     1      43.609 -15.564   1.714  1.00  0.00     0.040 A 
HETATM   11  C   UNL     1      42.676 -16.508   2.151  1.00  0.00     0.076 A 
HETATM   12  C   UNL     1      41.537 -16.101   2.846  1.00  0.00     0.040 A 
HETATM   13  C   UNL     1      41.340 -14.749   3.133  1.00  0.00     0.040 A 
BRANCH  11  14
HETATM   14  O   UNL     1      42.770 -17.847   1.854  1.00  0.00    -0.311 OA
BRANCH  14  15
HETATM   15  C   UNL     1      43.316 -18.691   2.794  1.00  0.00     0.076 A 
HETATM   16  C   UNL     1      43.715 -18.279   4.068  1.00  0.00     0.037 A 
HETATM   17  C   UNL     1      44.210 -19.216   4.978  1.00  0.00     0.003 A 
HETATM   18  C   UNL     1      44.287 -20.563   4.623  1.00  0.00     0.000 A 
HETATM   19  C   UNL     1      43.867 -20.977   3.359  1.00  0.00     0.003 A 
HETATM   20  C   UNL     1      43.377 -20.042   2.448  1.00  0.00     0.037 A 
ENDBRANCH  14  15
ENDBRANCH  11  14
ENDBRANCH   7   8
ENDBRANCH   4   7
BRANCH   1  21
HETATM   21  C   UNL     1      43.935 -10.807   8.035  1.00  0.00     0.253 C 
HETATM   22  N   UNL     1      43.089  -9.946   8.699  1.00  0.00    -0.354 N 
HETATM   23  H   UNL     1      42.300  -9.526   8.225  1.00  0.00     0.162 HD
HETATM   24  O   UNL     1      44.999 -11.193   8.507  1.00  0.00    -0.268 OA
BRANCH  22  25
HETATM   25  C   UNL     1      43.423  -9.424  10.018  1.00  0.00     0.154 C 
BRANCH  25  26
HETATM   26  C   UNL     1      42.800 -10.258  11.147  1.00  0.00     0.132 C 
HETATM   27  C   UNL     1      42.809  -9.498  12.464  1.00  0.00     0.041 C 
BRANCH  26  28
HETATM   28  O   UNL     1      43.556 -11.460  11.323  1.00  0.00    -0.394 OA
HETATM   29  H   UNL     1      44.050 -11.586  10.495  1.00  0.00     0.210 HD
ENDBRANCH  26  28
ENDBRANCH  25  26
ENDBRANCH  22  25
ENDBRANCH   1  21
TORSDOF 8
ENDMDL
MODEL 2
REMARK VINA RESULT:      -8.1      1.137      1.531
REMARK  8 active torsions:
REMARK  status: ('A' for Active; 'I' for Inactive)
REMARK    1  A    between atoms: C_2  and  O_3 
REMARK    2  A    between atoms: C_2  and  C_4 
REMARK    3  A    between atoms: C_4  and  N_5 
REMARK       I    between atoms: N_5  and  C_6 
REMARK    4  A    between atoms: C_6  and  C_7 
REMARK    5  A    between atoms: C_10  and  O_11 
REMARK    6  A    between atoms: O_11  and  C_12 
REMARK    7  A    between atoms: C_15  and  O_16 
REMARK    8  A    between atoms: O_16  and  C_17 
ROOT
HETATM    1  C   UNL     1      42.612 -10.896   6.340  1.00  0.00     0.049 A 
HETATM    2  C   UNL     1      42.445 -12.276   6.366  1.00  0.00     0.136 A 
HETATM    3  N   UNL     1      41.903 -12.993   5.352  1.00  0.00    -0.236 NA
HETATM    4  C   UNL     1      41.499 -12.300   4.265  1.00  0.00     0.169 A 
HETATM    5  C   UNL     1      41.574 -10.918   4.165  1.00  0.00     0.059 A 
HETATM    6  C   UNL     1      42.147 -10.203   5.219  1.00  0.00     0.023 A 
ENDROOT
BRANCH   4   7
HETATM    7  O   UNL     1      40.928 -12.972   3.193  1.00  0.00    -0.292 OA
BRANCH   7   8
HETATM    8  C   UNL     1      41.496 -14.173   2.830  1.00  0.00     0.078 A 
HETATM    9  C   UNL     1      42.793 -14.133   2.317  1.00  0.00     0.040 A 
HETATM   10  C   UNL     1      43.445 -15.320   1.968  1.00  0.00     0.040 A 
HETATM   11  C   UNL     1      42.805 -16.545   2.169  1.00  0.00     0.076 A 
HETATM   12  C   UNL     1      41.511 -16.587   2.687  1.00  0.00     0.040 A 
HETATM   13  C   UNL     1      40.860 -15.402   3.035  1.00  0.00     0.040 A 
BRANCH  11  14
HETATM   14  O   UNL     1      43.357 -17.748   1.794  1.00  0.00    -0.311 OA
BRANCH  14  15
HETATM   15  C   UNL     1      43.571 -18.702   2.762  1.00  0.00     0.076 A 
HETATM   16  C   UNL     1      43.546 -20.078   2.514  1.00  0.00     0.037 A 
HETATM   17  C   UNL     1      43.827 -20.974   3.548  1.00  0.00     0.003 A 
HETATM   18  C   UNL     1      44.151 -20.498   4.819  1.00  0.00     0.000 A 
HETATM   19  C   UNL     1      44.198 -19.125   5.059  1.00  0.00     0.003 A 
HETATM   20  C   UNL     1      43.913 -18.229   4.029  1.00  0.00     0.037 A 
ENDBRANCH  14  15
ENDBRANCH  11  14
ENDBRANCH   7   8
ENDBRANCH   4   7
BRANCH   1  21
HETATM   21  C   UNL     1      43.264 -10.241   7.497  1.00  0.00     0.253 C 
HETATM   22  N   UNL     1      43.830 -11.067   8.444  1.00  0.00    -0.354 N 
HETATM   23  H   UNL     1      43.694 -12.068   8.407  1.00  0.00     0.162 HD
HETATM   24  O   UNL     1      43.245  -9.020   7.604  1.00  0.00    -0.268 OA
BRANCH  22  25
HETATM   25  C   UNL     1      44.436 -10.527   9.654  1.00  0.00     0.154 C 
BRANCH  25  26
HETATM   26  C   UNL     1      43.481 -10.582  10.856  1.00  0.00     0.132 C 
HETATM   27  C   UNL     1      43.601  -9.334  11.715  1.00  0.00     0.041 C 
BRANCH  26  28
HETATM   28  O   UNL     1      43.807 -11.714  11.670  1.00  0.00    -0.394 OA
HETATM   29  H   UNL     1      43.318 -11.592  12.502  1.00  0.00     0.210 HD
ENDBRANCH  26  28
ENDBRANCH  25  26
ENDBRANCH  22  25
ENDBRANCH   1  21
TORSDOF 8
ENDMDL
MODEL 3
REMARK VINA RESULT:      -8.0      1.207      1.730
REMARK  8 active torsions:
REMARK  status: ('A' for Active; 'I' for Inactive)
REMARK    1  A    between atoms: C_2  and  O_3 
REMARK    2  A    between atoms: C_2  and  C_4 
REMARK    3  A    between atoms: C_4  and  N_5 
REMARK       I    between atoms: N_5  and  C_6 
REMARK    4  A    between atoms: C_6  and  C_7 
REMARK    5  A    between atoms: C_10  and  O_11 
REMARK    6  A    between atoms: O_11  and  C_12 
REMARK    7  A    between atoms: C_15  and  O_16 
REMARK    8  A    between atoms: O_16  and  C_17 
ROOT
HETATM    1  C   UNL     1      43.986 -10.584   7.920  1.00  0.00     0.049 A 
HETATM    2  C   UNL     1      42.884 -10.048   7.264  1.00  0.00     0.136 A 
HETATM    3  N   UNL     1      42.591 -10.281   5.961  1.00  0.00    -0.236 NA
HETATM    4  C   UNL     1      43.444 -11.077   5.279  1.00  0.00     0.169 A 
HETATM    5  C   UNL     1      44.598 -11.615   5.830  1.00  0.00     0.059 A 
HETATM    6  C   UNL     1      44.870 -11.370   7.176  1.00  0.00     0.023 A 
ENDROOT
BRANCH   4   7
HETATM    7  O   UNL     1      43.207 -11.349   3.938  1.00  0.00    -0.292 OA
BRANCH   7   8
HETATM    8  C   UNL     1      42.829 -12.633   3.615  1.00  0.00     0.078 A 
HETATM    9  C   UNL     1      43.565 -13.281   2.621  1.00  0.00     0.040 A 
HETATM   10  C   UNL     1      43.261 -14.601   2.274  1.00  0.00     0.040 A 
HETATM   11  C   UNL     1      42.244 -15.278   2.951  1.00  0.00     0.076 A 
HETATM   12  C   UNL     1      41.512 -14.633   3.948  1.00  0.00     0.040 A 
HETATM   13  C   UNL     1      41.815 -13.316   4.294  1.00  0.00     0.040 A 
BRANCH  11  14
HETATM   14  O   UNL     1      41.849 -16.554   2.624  1.00  0.00    -0.311 OA
BRANCH  14  15
HETATM   15  C   UNL     1      42.632 -17.609   3.034  1.00  0.00     0.076 A 
HETATM   16  C   UNL     1      42.959 -18.695   2.217  1.00  0.00     0.037 A 
HETATM   17  C   UNL     1      43.805 -19.697   2.699  1.00  0.00     0.003 A 
HETATM   18  C   UNL     1      44.338 -19.603   3.985  1.00  0.00     0.000 A 
HETATM   19  C   UNL     1      44.030 -18.507   4.791  1.00  0.00     0.003 A 
HETATM   20  C   UNL     1      43.182 -17.509   4.312  1.00  0.00     0.037 A 
ENDBRANCH  14  15
ENDBRANCH  11  14
ENDBRANCH   7   8
ENDBRANCH   4   7
BRANCH   1  21
HETATM   21  C   UNL     1      44.162 -10.288   9.361  1.00  0.00     0.253 C 
HETATM   22  N   UNL     1      43.230  -9.459   9.946  1.00  0.00    -0.354 N 
HETATM   23  H   UNL     1      42.537  -8.982   9.387  1.00  0.00     0.162 HD
HETATM   24  O   UNL     1      45.128 -10.738   9.966  1.00  0.00    -0.268 OA
BRANCH  22  25
HETATM   25  C   UNL     1      43.351  -9.051  11.340  1.00  0.00     0.154 C 
BRANCH  25  26
HETATM   26  C   UNL     1      42.499  -9.922  12.276  1.00  0.00     0.132 C 
HETATM   27  C   UNL     1      42.352  -9.281  13.646  1.00  0.00     0.041 C 
BRANCH  26  28
HETATM   28  O   UNL     1      43.132 -11.195  12.446  1.00  0.00    -0.394 OA
HETATM   29  H   UNL     1      43.004 -11.431  13.381  1.00  0.00     0.210 HD
ENDBRANCH  26  28
ENDBRANCH  25  26
ENDBRANCH  22  25
ENDBRANCH   1  21
TORSDOF 8
ENDMDL
MODEL 4
REMARK VINA RESULT:      -7.9      2.213      3.903
REMARK  8 active torsions:
REMARK  status: ('A' for Active; 'I' for Inactive)
REMARK    1  A    between atoms: C_2  and  O_3 
REMARK    2  A    between atoms: C_2  and  C_4 
REMARK    3  A    between atoms: C_4  and  N_5 
REMARK       I    between atoms: N_5  and  C_6 
REMARK    4  A    between atoms: C_6  and  C_7 
REMARK    5  A    between atoms: C_10  and  O_11 
REMARK    6  A    between atoms: O_11  and  C_12 
REMARK    7  A    between atoms: C_15  and  O_16 
REMARK    8  A    between atoms: O_16  and  C_17 
ROOT
HETATM    1  C   UNL     1      43.585  -9.292  10.276  1.00  0.00     0.049 A 
HETATM    2  C   UNL     1      42.723  -9.311   9.185  1.00  0.00     0.136 A 
HETATM    3  N   UNL     1      43.034  -9.857   7.984  1.00  0.00    -0.236 NA
HETATM    4  C   UNL     1      44.266 -10.399   7.862  1.00  0.00     0.169 A 
HETATM    5  C   UNL     1      45.215 -10.381   8.875  1.00  0.00     0.059 A 
HETATM    6  C   UNL     1      44.866  -9.823  10.106  1.00  0.00     0.023 A 
ENDROOT
BRANCH   4   7
HETATM    7  O   UNL     1      44.652 -10.967   6.656  1.00  0.00    -0.292 OA
BRANCH   7   8
HETATM    8  C   UNL     1      43.982 -12.099   6.252  1.00  0.00     0.078 A 
HETATM    9  C   UNL     1      43.600 -12.168   4.911  1.00  0.00     0.040 A 
HETATM   10  C   UNL     1      42.953 -13.309   4.425  1.00  0.00     0.040 A 
HETATM   11  C   UNL     1      42.723 -14.391   5.279  1.00  0.00     0.076 A 
HETATM   12  C   UNL     1      43.110 -14.325   6.618  1.00  0.00     0.040 A 
HETATM   13  C   UNL     1      43.755 -13.187   7.103  1.00  0.00     0.040 A 
BRANCH  11  14
HETATM   14  O   UNL     1      42.040 -15.519   4.890  1.00  0.00    -0.311 OA
BRANCH  14  15
HETATM   15  C   UNL     1      42.743 -16.538   4.288  1.00  0.00     0.076 A 
HETATM   16  C   UNL     1      43.673 -17.339   4.956  1.00  0.00     0.037 A 
HETATM   17  C   UNL     1      44.302 -18.385   4.277  1.00  0.00     0.003 A 
HETATM   18  C   UNL     1      43.988 -18.643   2.943  1.00  0.00     0.000 A 
HETATM   19  C   UNL     1      43.042 -17.858   2.284  1.00  0.00     0.003 A 
HETATM   20  C   UNL     1      42.417 -16.810   2.958  1.00  0.00     0.037 A 
ENDBRANCH  14  15
ENDBRANCH  11  14
ENDBRANCH   7   8
ENDBRANCH   4   7
BRANCH   1  21
HETATM   21  C   UNL     1      43.100  -8.707  11.547  1.00  0.00     0.253 C 
HETATM   22  N   UNL     1      42.788  -9.587  12.560  1.00  0.00    -0.354 N 
HETATM   23  H   UNL     1      42.775 -10.584  12.396  1.00  0.00     0.162 HD
HETATM   24  O   UNL     1      42.951  -7.494  11.648  1.00  0.00    -0.268 OA
BRANCH  22  25
HETATM   25  C   UNL     1      42.239  -9.118  13.827  1.00  0.00     0.154 C 
BRANCH  25  26
HETATM   26  C   UNL     1      40.703  -9.104  13.824  1.00  0.00     0.132 C 
HETATM   27  C   UNL     1      40.141 -10.282  13.045  1.00  0.00     0.041 C 
BRANCH  26  28
HETATM   28  O   UNL     1      40.241  -7.900  13.202  1.00  0.00    -0.394 OA
HETATM   29  H   UNL     1      39.278  -7.885  13.337  1.00  0.00     0.210 HD
ENDBRANCH  26  28
ENDBRANCH  25  26
ENDBRANCH  22  25
ENDBRANCH   1  21
TORSDOF 8
ENDMDL
MODEL 5
REMARK VINA RESULT:      -7.9      5.527      7.721
REMARK  8 active torsions:
REMARK  status: ('A' for Active; 'I' for Inactive)
REMARK    1  A    between atoms: C_2  and  O_3 
REMARK    2  A    between atoms: C_2  and  C_4 
REMARK    3  A    between atoms: C_4  and  N_5 
REMARK       I    between atoms: N_5  and  C_6 
REMARK    4  A    between atoms: C_6  and  C_7 
REMARK    5  A    between atoms: C_10  and  O_11 
REMARK    6  A    between atoms: O_11  and  C_12 
REMARK    7  A    between atoms: C_15  and  O_16 
REMARK    8  A    between atoms: O_16  and  C_17 
ROOT
HETATM    1  C   UNL     1      41.308 -10.795  -0.645  1.00  0.00     0.049 A 
HETATM    2  C   UNL     1      40.992 -11.849  -1.495  1.00  0.00     0.136 A 
HETATM    3  N   UNL     1      40.574 -13.066  -1.069  1.00  0.00    -0.236 NA
HETATM    4  C   UNL     1      40.478 -13.244   0.267  1.00  0.00     0.169 A 
HETATM    5  C   UNL     1      40.822 -12.272   1.196  1.00  0.00     0.059 A 
HETATM    6  C   UNL     1      41.238 -11.023   0.732  1.00  0.00     0.023 A 
ENDROOT
BRANCH   4   7
HETATM    7  O   UNL     1      40.064 -14.470   0.770  1.00  0.00    -0.292 OA
BRANCH   7   8
HETATM    8  C   UNL     1      40.944 -15.143   1.587  1.00  0.00     0.078 A 
HETATM    9  C   UNL     1      42.269 -15.233   1.156  1.00  0.00     0.040 A 
HETATM   10  C   UNL     1      43.224 -15.867   1.958  1.00  0.00     0.040 A 
HETATM   11  C   UNL     1      42.853 -16.376   3.205  1.00  0.00     0.076 A 
HETATM   12  C   UNL     1      41.530 -16.281   3.638  1.00  0.00     0.040 A 
HETATM   13  C   UNL     1      40.578 -15.649   2.838  1.00  0.00     0.040 A 
BRANCH  11  14
HETATM   14  O   UNL     1      43.721 -17.065   4.020  1.00  0.00    -0.311 OA
BRANCH  14  15
HETATM   15  C   UNL     1      43.750 -18.438   3.936  1.00  0.00     0.076 A 
HETATM   16  C   UNL     1      43.632 -19.144   2.736  1.00  0.00     0.037 A 
HETATM   17  C   UNL     1      43.727 -20.538   2.739  1.00  0.00     0.003 A 
HETATM   18  C   UNL     1      43.959 -21.222   3.932  1.00  0.00     0.000 A 
HETATM   19  C   UNL     1      44.099 -20.514   5.126  1.00  0.00     0.003 A 
HETATM   20  C   UNL     1      44.001 -19.123   5.126  1.00  0.00     0.037 A 
ENDBRANCH  14  15
ENDBRANCH  11  14
ENDBRANCH   7   8
ENDBRANCH   4   7
BRANCH   1  21
HETATM   21  C   UNL     1      41.705  -9.500  -1.243  1.00  0.00     0.253 C 
HETATM   22  N   UNL     1      40.841  -8.947  -2.164  1.00  0.00    -0.354 N 
HETATM   23  H   UNL     1      40.040  -9.464  -2.500  1.00  0.00     0.162 HD
HETATM   24  O   UNL     1      42.780  -8.991  -0.948  1.00  0.00    -0.268 OA
BRANCH  22  25
HETATM   25  C   UNL     1      41.169  -7.710  -2.861  1.00  0.00     0.154 C 
BRANCH  25  26
HETATM   26  C   UNL     1      42.020  -7.960  -4.116  1.00  0.00     0.132 C 
HETATM   27  C   UNL     1      42.804  -6.717  -4.507  1.00  0.00     0.041 C 
BRANCH  26  28
HETATM   28  O   UNL     1      41.163  -8.306  -5.209  1.00  0.00    -0.394 OA
HETATM   29  H   UNL     1      41.752  -8.468  -5.966  1.00  0.00     0.210 HD
ENDBRANCH  26  28
ENDBRANCH  25  26
ENDBRANCH  22  25
ENDBRANCH   1  21
TORSDOF 8
ENDMDL
MODEL 6
REMARK VINA RESULT:      -7.7      5.362      7.136
REMARK  8 active torsions:
REMARK  status: ('A' for Active; 'I' for Inactive)
REMARK    1  A    between atoms: C_2  and  O_3 
REMARK    2  A    between atoms: C_2  and  C_4 
REMARK    3  A    between atoms: C_4  and  N_5 
REMARK       I    between atoms: N_5  and  C_6 
REMARK    4  A    between atoms: C_6  and  C_7 
REMARK    5  A    between atoms: C_10  and  O_11 
REMARK    6  A    between atoms: O_11  and  C_12 
REMARK    7  A    between atoms: C_15  and  O_16 
REMARK    8  A    between atoms: O_16  and  C_17 
ROOT
HETATM    1  C   UNL     1      40.846 -11.372  -1.323  1.00  0.00     0.049 A 
HETATM    2  C   UNL     1      40.989 -11.319   0.059  1.00  0.00     0.136 A 
HETATM    3  N   UNL     1      40.696 -12.348   0.890  1.00  0.00    -0.236 NA
HETATM    4  C   UNL     1      40.227 -13.478   0.318  1.00  0.00     0.169 A 
HETATM    5  C   UNL     1      39.998 -13.611  -1.044  1.00  0.00     0.059 A 
HETATM    6  C   UNL     1      40.320 -12.541  -1.880  1.00  0.00     0.023 A 
ENDROOT
BRANCH   4   7
HETATM    7  O   UNL     1      39.898 -14.567   1.115  1.00  0.00    -0.292 OA
BRANCH   7   8
HETATM    8  C   UNL     1      40.924 -15.173   1.804  1.00  0.00     0.078 A 
HETATM    9  C   UNL     1      40.619 -15.709   3.057  1.00  0.00     0.040 A 
HETATM   10  C   UNL     1      41.604 -16.376   3.792  1.00  0.00     0.040 A 
HETATM   11  C   UNL     1      42.883 -16.532   3.252  1.00  0.00     0.076 A 
HETATM   12  C   UNL     1      43.188 -16.002   1.998  1.00  0.00     0.040 A 
HETATM   13  C   UNL     1      42.204 -15.337   1.265  1.00  0.00     0.040 A 
BRANCH  11  14
HETATM   14  O   UNL     1      43.919 -17.121   3.940  1.00  0.00    -0.311 OA
BRANCH  14  15
HETATM   15  C   UNL     1      43.946 -18.493   4.038  1.00  0.00     0.076 A 
HETATM   16  C   UNL     1      44.013 -19.183   5.252  1.00  0.00     0.037 A 
HETATM   17  C   UNL     1      43.982 -20.580   5.259  1.00  0.00     0.003 A 
HETATM   18  C   UNL     1      43.863 -21.283   4.061  1.00  0.00     0.000 A 
HETATM   19  C   UNL     1      43.773 -20.594   2.852  1.00  0.00     0.003 A 
HETATM   20  C   UNL     1      43.809 -19.200   2.842  1.00  0.00     0.037 A 
ENDBRANCH  14  15
ENDBRANCH  11  14
ENDBRANCH   7   8
ENDBRANCH   4   7
BRANCH   1  21
HETATM   21  C   UNL     1      41.251 -10.192  -2.121  1.00  0.00     0.253 C 
HETATM   22  N   UNL     1      41.977  -9.219  -1.470  1.00  0.00    -0.354 N 
HETATM   23  H   UNL     1      42.117  -9.257  -0.470  1.00  0.00     0.162 HD
HETATM   24  O   UNL     1      40.900 -10.092  -3.291  1.00  0.00    -0.268 OA
BRANCH  22  25
HETATM   25  C   UNL     1      42.366  -7.987  -2.145  1.00  0.00     0.154 C 
BRANCH  25  26
HETATM   26  C   UNL     1      42.364  -6.779  -1.195  1.00  0.00     0.132 C 
HETATM   27  C   UNL     1      43.683  -6.025  -1.259  1.00  0.00     0.041 C 
BRANCH  26  28
HETATM   28  O   UNL     1      42.177  -7.232   0.149  1.00  0.00    -0.394 OA
HETATM   29  H   UNL     1      41.997  -6.434   0.675  1.00  0.00     0.210 HD
ENDBRANCH  26  28
ENDBRANCH  25  26
ENDBRANCH  22  25
ENDBRANCH   1  21
TORSDOF 8
ENDMDL
MODEL 7
REMARK VINA RESULT:      -7.7      2.643      2.957
REMARK  8 active torsions:
REMARK  status: ('A' for Active; 'I' for Inactive)
REMARK    1  A    between atoms: C_2  and  O_3 
REMARK    2  A    between atoms: C_2  and  C_4 
REMARK    3  A    between atoms: C_4  and  N_5 
REMARK       I    between atoms: N_5  and  C_6 
REMARK    4  A    between atoms: C_6  and  C_7 
REMARK    5  A    between atoms: C_10  and  O_11 
REMARK    6  A    between atoms: O_11  and  C_12 
REMARK    7  A    between atoms: C_15  and  O_16 
REMARK    8  A    between atoms: O_16  and  C_17 
ROOT
HETATM    1  C   UNL     1      40.099 -10.889   5.781  1.00  0.00     0.049 A 
HETATM    2  C   UNL     1      39.966 -12.254   6.012  1.00  0.00     0.136 A 
HETATM    3  N   UNL     1      39.814 -13.177   5.032  1.00  0.00    -0.236 NA
HETATM    4  C   UNL     1      39.780 -12.717   3.762  1.00  0.00     0.169 A 
HETATM    5  C   UNL     1      39.850 -11.371   3.432  1.00  0.00     0.059 A 
HETATM    6  C   UNL     1      40.019 -10.441   4.459  1.00  0.00     0.023 A 
ENDROOT
BRANCH   4   7
HETATM    7  O   UNL     1      39.617 -13.609   2.711  1.00  0.00    -0.292 OA
BRANCH   7   8
HETATM    8  C   UNL     1      40.615 -14.537   2.515  1.00  0.00     0.078 A 
HETATM    9  C   UNL     1      41.926 -14.059   2.459  1.00  0.00     0.040 A 
HETATM   10  C   UNL     1      42.990 -14.953   2.304  1.00  0.00     0.040 A 
HETATM   11  C   UNL     1      42.739 -16.325   2.241  1.00  0.00     0.076 A 
HETATM   12  C   UNL     1      41.430 -16.804   2.303  1.00  0.00     0.040 A 
HETATM   13  C   UNL     1      40.367 -15.912   2.457  1.00  0.00     0.040 A 
BRANCH  11  14
HETATM   14  O   UNL     1      43.726 -17.258   2.028  1.00  0.00    -0.311 OA
BRANCH  14  15
HETATM   15  C   UNL     1      43.761 -18.373   2.834  1.00  0.00     0.076 A 
HETATM   16  C   UNL     1      43.583 -19.677   2.363  1.00  0.00     0.037 A 
HETATM   17  C   UNL     1      43.687 -20.754   3.246  1.00  0.00     0.003 A 
HETATM   18  C   UNL     1      43.987 -20.532   4.589  1.00  0.00     0.000 A 
HETATM   19  C   UNL     1      44.187 -19.232   5.054  1.00  0.00     0.003 A 
HETATM   20  C   UNL     1      44.080 -18.155   4.175  1.00  0.00     0.037 A 
ENDBRANCH  14  15
ENDBRANCH  11  14
ENDBRANCH   7   8
ENDBRANCH   4   7
BRANCH   1  21
HETATM   21  C   UNL     1      40.309  -9.993   6.941  1.00  0.00     0.253 C 
HETATM   22  N   UNL     1      39.593 -10.274   8.084  1.00  0.00    -0.354 N 
HETATM   23  H   UNL     1      38.870 -10.981   8.083  1.00  0.00     0.162 HD
HETATM   24  O   UNL     1      41.058  -9.028   6.844  1.00  0.00    -0.268 OA
BRANCH  22  25
HETATM   25  C   UNL     1      39.675  -9.415   9.258  1.00  0.00     0.154 C 
BRANCH  25  26
HETATM   26  C   UNL     1      38.901  -9.991  10.454  1.00  0.00     0.132 C 
HETATM   27  C   UNL     1      39.794 -10.123  11.678  1.00  0.00     0.041 C 
BRANCH  26  28
HETATM   28  O   UNL     1      38.411 -11.293  10.120  1.00  0.00    -0.394 OA
HETATM   29  H   UNL     1      38.499 -11.369   9.154  1.00  0.00     0.210 HD
ENDBRANCH  26  28
ENDBRANCH  25  26
ENDBRANCH  22  25
ENDBRANCH   1  21
TORSDOF 8
ENDMDL
MODEL 8
REMARK VINA RESULT:      -7.5      2.392      4.849
REMARK  8 active torsions:
REMARK  status: ('A' for Active; 'I' for Inactive)
REMARK    1  A    between atoms: C_2  and  O_3 
REMARK    2  A    between atoms: C_2  and  C_4 
REMARK    3  A    between atoms: C_4  and  N_5 
REMARK       I    between atoms: N_5  and  C_6 
REMARK    4  A    between atoms: C_6  and  C_7 
REMARK    5  A    between atoms: C_10  and  O_11 
REMARK    6  A    between atoms: O_11  and  C_12 
REMARK    7  A    between atoms: C_15  and  O_16 
REMARK    8  A    between atoms: O_16  and  C_17 
ROOT
HETATM    1  C   UNL     1      43.426  -8.882  10.502  1.00  0.00     0.049 A 
HETATM    2  C   UNL     1      43.893 -10.141  10.863  1.00  0.00     0.136 A 
HETATM    3  N   UNL     1      44.504 -10.996  10.008  1.00  0.00    -0.236 NA
HETATM    4  C   UNL     1      44.646 -10.582   8.730  1.00  0.00     0.169 A 
HETATM    5  C   UNL     1      44.167  -9.367   8.260  1.00  0.00     0.059 A 
HETATM    6  C   UNL     1      43.552  -8.499   9.164  1.00  0.00     0.023 A 
ENDROOT
BRANCH   4   7
HETATM    7  O   UNL     1      45.256 -11.413   7.801  1.00  0.00    -0.292 OA
BRANCH   7   8
HETATM    8  C   UNL     1      44.458 -11.943   6.813  1.00  0.00     0.078 A 
HETATM    9  C   UNL     1      43.557 -12.940   7.189  1.00  0.00     0.040 A 
HETATM   10  C   UNL     1      42.687 -13.492   6.243  1.00  0.00     0.040 A 
HETATM   11  C   UNL     1      42.700 -13.015   4.930  1.00  0.00     0.076 A 
HETATM   12  C   UNL     1      43.596 -12.013   4.554  1.00  0.00     0.040 A 
HETATM   13  C   UNL     1      44.465 -11.464   5.499  1.00  0.00     0.040 A 
BRANCH  11  14
HETATM   14  O   UNL     1      41.919 -13.548   3.932  1.00  0.00    -0.311 OA
BRANCH  14  15
HETATM   15  C   UNL     1      42.363 -14.678   3.284  1.00  0.00     0.076 A 
HETATM   16  C   UNL     1      43.046 -14.655   2.065  1.00  0.00     0.037 A 
HETATM   17  C   UNL     1      43.507 -15.849   1.505  1.00  0.00     0.003 A 
HETATM   18  C   UNL     1      43.305 -17.058   2.170  1.00  0.00     0.000 A 
HETATM   19  C   UNL     1      42.643 -17.077   3.398  1.00  0.00     0.003 A 
HETATM   20  C   UNL     1      42.178 -15.887   3.956  1.00  0.00     0.037 A 
ENDBRANCH  14  15
ENDBRANCH  11  14
ENDBRANCH   7   8
ENDBRANCH   4   7
BRANCH   1  21
HETATM   21  C   UNL     1      42.821  -8.026  11.548  1.00  0.00     0.253 C 
HETATM   22  N   UNL     1      42.198  -8.669  12.596  1.00  0.00    -0.354 N 
HETATM   23  H   UNL     1      42.057  -9.670  12.581  1.00  0.00     0.162 HD
HETATM   24  O   UNL     1      42.848  -6.806  11.435  1.00  0.00    -0.268 OA
BRANCH  22  25
HETATM   25  C   UNL     1      41.512  -7.920  13.641  1.00  0.00     0.154 C 
BRANCH  25  26
HETATM   26  C   UNL     1      42.419  -7.647  14.851  1.00  0.00     0.132 C 
HETATM   27  C   UNL     1      41.602  -7.354  16.099  1.00  0.00     0.041 C 
BRANCH  26  28
HETATM   28  O   UNL     1      43.240  -6.506  14.580  1.00  0.00    -0.394 OA
HETATM   29  H   UNL     1      44.151  -6.843  14.521  1.00  0.00     0.210 HD
ENDBRANCH  26  28
ENDBRANCH  25  26
ENDBRANCH  22  25
ENDBRANCH   1  21
TORSDOF 8
ENDMDL
MODEL 9
REMARK VINA RESULT:      -7.4      2.040      2.821
REMARK  8 active torsions:
REMARK  status: ('A' for Active; 'I' for Inactive)
REMARK    1  A    between atoms: C_2  and  O_3 
REMARK    2  A    between atoms: C_2  and  C_4 
REMARK    3  A    between atoms: C_4  and  N_5 
REMARK       I    between atoms: N_5  and  C_6 
REMARK    4  A    between atoms: C_6  and  C_7 
REMARK    5  A    between atoms: C_10  and  O_11 
REMARK    6  A    between atoms: O_11  and  C_12 
REMARK    7  A    between atoms: C_15  and  O_16 
REMARK    8  A    between atoms: O_16  and  C_17 
ROOT
HETATM    1  C   UNL     1      42.157  -9.526   8.251  1.00  0.00     0.049 A 
HETATM    2  C   UNL     1      41.301  -9.074   7.253  1.00  0.00     0.136 A 
HETATM    3  N   UNL     1      41.426  -9.400   5.944  1.00  0.00    -0.236 NA
HETATM    4  C   UNL     1      42.460 -10.204   5.612  1.00  0.00     0.169 A 
HETATM    5  C   UNL     1      43.398 -10.663   6.526  1.00  0.00     0.059 A 
HETATM    6  C   UNL     1      43.240 -10.323   7.871  1.00  0.00     0.023 A 
ENDROOT
BRANCH   4   7
HETATM    7  O   UNL     1      42.650 -10.570   4.286  1.00  0.00    -0.292 OA
BRANCH   7   8
HETATM    8  C   UNL     1      42.455 -11.894   3.965  1.00  0.00     0.078 A 
HETATM    9  C   UNL     1      41.289 -12.498   4.438  1.00  0.00     0.040 A 
HETATM   10  C   UNL     1      41.009 -13.829   4.113  1.00  0.00     0.040 A 
HETATM   11  C   UNL     1      41.882 -14.538   3.286  1.00  0.00     0.076 A 
HETATM   12  C   UNL     1      43.045 -13.933   2.808  1.00  0.00     0.040 A 
HETATM   13  C   UNL     1      43.325 -12.605   3.133  1.00  0.00     0.040 A 
BRANCH  11  14
HETATM   14  O   UNL     1      41.705 -15.866   2.973  1.00  0.00    -0.311 OA
BRANCH  14  15
HETATM   15  C   UNL     1      42.628 -16.777   3.434  1.00  0.00     0.076 A 
HETATM   16  C   UNL     1      43.026 -16.869   4.770  1.00  0.00     0.037 A 
HETATM   17  C   UNL     1      43.930 -17.861   5.158  1.00  0.00     0.003 A 
HETATM   18  C   UNL     1      44.417 -18.770   4.219  1.00  0.00     0.000 A 
HETATM   19  C   UNL     1      44.001 -18.692   2.890  1.00  0.00     0.003 A 
HETATM   20  C   UNL     1      43.102 -17.699   2.500  1.00  0.00     0.037 A 
ENDBRANCH  14  15
ENDBRANCH  11  14
ENDBRANCH   7   8
ENDBRANCH   4   7
BRANCH   1  21
HETATM   21  C   UNL     1      41.878  -9.134   9.652  1.00  0.00     0.253 C 
HETATM   22  N   UNL     1      41.887 -10.138  10.595  1.00  0.00    -0.354 N 
HETATM   23  H   UNL     1      41.959 -11.108  10.319  1.00  0.00     0.162 HD
HETATM   24  O   UNL     1      41.609  -7.968   9.921  1.00  0.00    -0.268 OA
BRANCH  22  25
HETATM   25  C   UNL     1      41.558  -9.869  11.989  1.00  0.00     0.154 C 
BRANCH  25  26
HETATM   26  C   UNL     1      40.066 -10.083  12.285  1.00  0.00     0.132 C 
HETATM   27  C   UNL     1      39.414  -8.804  12.787  1.00  0.00     0.041 C 
BRANCH  26  28
HETATM   28  O   UNL     1      39.921 -11.082  13.299  1.00  0.00    -0.394 OA
HETATM   29  H   UNL     1      39.542 -10.625  14.070  1.00  0.00     0.210 HD
ENDBRANCH  26  28
ENDBRANCH  25  26
ENDBRANCH  22  25
ENDBRANCH   1  21
TORSDOF 8
ENDMDL
MODEL 10
REMARK VINA RESULT:      -7.3      7.691     14.399
REMARK  8 active torsions:
REMARK  status: ('A' for Active; 'I' for Inactive)
REMARK    1  A    between atoms: C_2  and  O_3 
REMARK    2  A    between atoms: C_2  and  C_4 
REMARK    3  A    between atoms: C_4  and  N_5 
REMARK       I    between atoms: N_5  and  C_6 
REMARK    4  A    between atoms: C_6  and  C_7 
REMARK    5  A    between atoms: C_10  and  O_11 
REMARK    6  A    between atoms: O_11  and  C_12 
REMARK    7  A    between atoms: C_15  and  O_16 
REMARK    8  A    between atoms: O_16  and  C_17 
ROOT
HETATM    1  C   UNL     1      42.817  -8.911  12.838  1.00  0.00     0.049 A 
HETATM    2  C   UNL     1      41.656  -9.326  13.482  1.00  0.00     0.136 A 
HETATM    3  N   UNL     1      41.037  -8.617  14.457  1.00  0.00    -0.236 NA
HETATM    4  C   UNL     1      41.608  -7.447  14.816  1.00  0.00     0.169 A 
HETATM    5  C   UNL     1      42.794  -6.974  14.272  1.00  0.00     0.059 A 
HETATM    6  C   UNL     1      43.406  -7.716  13.260  1.00  0.00     0.023 A 
ENDROOT
BRANCH   4   7
HETATM    7  O   UNL     1      41.029  -6.676  15.815  1.00  0.00    -0.292 OA
BRANCH   7   8
HETATM    8  C   UNL     1      41.071  -7.175  17.097  1.00  0.00     0.078 A 
HETATM    9  C   UNL     1      42.256  -6.989  17.813  1.00  0.00     0.040 A 
HETATM   10  C   UNL     1      42.352  -7.434  19.135  1.00  0.00     0.040 A 
HETATM   11  C   UNL     1      41.247  -8.031  19.746  1.00  0.00     0.076 A 
HETATM   12  C   UNL     1      40.060  -8.212  19.034  1.00  0.00     0.040 A 
HETATM   13  C   UNL     1      39.965  -7.768  17.714  1.00  0.00     0.040 A 
BRANCH  11  14
HETATM   14  O   UNL     1      41.284  -8.548  21.020  1.00  0.00    -0.311 OA
BRANCH  14  15
HETATM   15  C   UNL     1      42.224  -9.509  21.312  1.00  0.00     0.076 A 
HETATM   16  C   UNL     1      43.235  -9.343  22.263  1.00  0.00     0.037 A 
HETATM   17  C   UNL     1      44.114 -10.394  22.532  1.00  0.00     0.003 A 
HETATM   18  C   UNL     1      43.973 -11.613  21.868  1.00  0.00     0.000 A 
HETATM   19  C   UNL     1      42.950 -11.785  20.935  1.00  0.00     0.003 A 
HETATM   20  C   UNL     1      42.074 -10.735  20.662  1.00  0.00     0.037 A 
ENDBRANCH  14  15
ENDBRANCH  11  14
ENDBRANCH   7   8
ENDBRANCH   4   7
BRANCH   1  21
HETATM   21  C   UNL     1      43.364  -9.758  11.754  1.00  0.00     0.253 C 
HETATM   22  N   UNL     1      43.523  -9.166  10.520  1.00  0.00    -0.354 N 
HETATM   23  H   UNL     1      43.167  -8.237  10.340  1.00  0.00     0.162 HD
HETATM   24  O   UNL     1      43.611 -10.941  11.963  1.00  0.00    -0.268 OA
BRANCH  22  25
HETATM   25  C   UNL     1      43.989  -9.930   9.369  1.00  0.00     0.154 C 
BRANCH  25  26
HETATM   26  C   UNL     1      44.632  -9.034   8.299  1.00  0.00     0.132 C 
HETATM   27  C   UNL     1      46.136  -9.244   8.234  1.00  0.00     0.041 C 
BRANCH  26  28
HETATM   28  O   UNL     1      44.389  -7.660   8.622  1.00  0.00    -0.394 OA
HETATM   29  H   UNL     1      43.742  -7.345   7.968  1.00  0.00     0.210 HD
ENDBRANCH  26  28
ENDBRANCH  25  26
ENDBRANCH  22  25
ENDBRANCH   1  21
TORSDOF 8
ENDMDL
