MODEL 1
REMARK VINA RESULT:      -8.7      0.000      0.000
REMARK  8 active torsions:
REMARK  status: ('A' for Active; 'I' for Inactive)
REMARK    1  A    between atoms: C_7  and  S_8 
REMARK    2  A    between atoms: S_8  and  C_9 
REMARK    3  A    between atoms: C_9  and  C_10 
REMARK    4  A    between atoms: C_10  and  N_11 
REMARK       I    between atoms: N_11  and  C_12 
REMARK       I    between atoms: C_12  and  N_13 
REMARK    5  A    between atoms: N_13  and  C_14 
REMARK    6  A    between atoms: C_14  and  C_15 
REMARK    7  A    between atoms: C_17  and  O_18 
REMARK    8  A    between atoms: C_20  and  O_21 
ROOT
HETATM    1  N   UNL     1      40.428 -14.845   6.522  1.00  0.00    -0.342 N 
HETATM    2  C   UNL     1      40.001 -13.785   5.789  1.00  0.00     0.316 C 
HETATM    3  N   UNL     1      40.197 -13.854   4.450  1.00  0.00    -0.339 N 
HETATM    4  O   UNL     1      39.455 -12.846   6.356  1.00  0.00    -0.248 OA
HETATM    5  H   UNL     1      40.114 -14.762   7.483  1.00  0.00     0.164 HD
HETATM    6  H   UNL     1      40.776 -14.579   4.066  1.00  0.00     0.164 HD
ENDROOT
BRANCH   1   7
HETATM    7  C   UNL     1      40.922 -16.133   6.054  1.00  0.00     0.139 C 
BRANCH   7   8
HETATM    8  C   UNL     1      42.216 -16.518   6.741  1.00  0.00     0.165 C 
BRANCH   8   9
HETATM    9  S   UNL     1      43.595 -15.878   5.826  1.00  0.00     0.179 S 
HETATM   10  O   UNL     1      44.826 -16.207   6.516  1.00  0.00    -0.222 OA
HETATM   11  O   UNL     1      43.294 -14.526   5.403  1.00  0.00    -0.222 OA
BRANCH   9  12
HETATM   12  C   UNL     1      43.593 -16.839   4.383  1.00  0.00     0.093 A 
HETATM   13  C   UNL     1      43.390 -16.387   3.086  1.00  0.00     0.028 A 
HETATM   14  C   UNL     1      43.169 -15.025   2.532  1.00  0.00     0.070 C 
HETATM   15  N   UNL     1      43.439 -17.489   2.267  1.00  0.00    -0.358 N 
HETATM   16  H   UNL     1      43.344 -17.471   1.261  1.00  0.00     0.166 HD
HETATM   17  C   UNL     1      43.621 -18.636   3.003  1.00  0.00     0.044 A 
HETATM   18  C   UNL     1      43.729 -18.260   4.344  1.00  0.00     0.014 A 
HETATM   19  C   UNL     1      43.701 -19.967   2.577  1.00  0.00     0.030 A 
HETATM   20  C   UNL     1      43.930 -19.278   5.303  1.00  0.00     0.015 A 
HETATM   21  C   UNL     1      44.011 -20.615   4.892  1.00  0.00     0.001 A 
HETATM   22  C   UNL     1      43.897 -20.952   3.548  1.00  0.00     0.002 A 
ENDBRANCH   9  12
ENDBRANCH   8   9
ENDBRANCH   7   8
ENDBRANCH   1   7
BRANCH   3  23
HETATM   23  C   UNL     1      39.831 -12.772   3.565  1.00  0.00     0.163 C 
BRANCH  23  24
HETATM   24  C   UNL     1      39.952 -13.211   2.130  1.00  0.00    -0.038 A 
HETATM   25  C   UNL     1      40.174 -12.254   1.128  1.00  0.00     0.048 A 
HETATM   26  C   UNL     1      40.265 -12.627  -0.217  1.00  0.00     0.102 A 
HETATM   27  C   UNL     1      40.127 -13.984  -0.571  1.00  0.00     0.101 A 
HETATM   28  C   UNL     1      39.902 -14.937   0.428  1.00  0.00     0.040 A 
HETATM   29  C   UNL     1      39.811 -14.553   1.768  1.00  0.00     0.012 A 
BRANCH  26  30
HETATM   30  O   UNL     1      40.481 -11.750  -1.252  1.00  0.00    -0.353 OA
HETATM   31  C   UNL     1      41.160 -10.538  -0.955  1.00  0.00     0.210 C 
ENDBRANCH  26  30
BRANCH  27  32
HETATM   32  O   UNL     1      40.229 -14.271  -1.910  1.00  0.00    -0.353 OA
HETATM   33  C   UNL     1      39.088 -14.817  -2.556  1.00  0.00     0.210 C 
ENDBRANCH  27  32
ENDBRANCH  23  24
ENDBRANCH   3  23
TORSDOF 8
ENDMDL
MODEL 2
REMARK VINA RESULT:      -8.2      3.579      6.051
REMARK  8 active torsions:
REMARK  status: ('A' for Active; 'I' for Inactive)
REMARK    1  A    between atoms: C_7  and  S_8 
REMARK    2  A    between atoms: S_8  and  C_9 
REMARK    3  A    between atoms: C_9  and  C_10 
REMARK    4  A    between atoms: C_10  and  N_11 
REMARK       I    between atoms: N_11  and  C_12 
REMARK       I    between atoms: C_12  and  N_13 
REMARK    5  A    between atoms: N_13  and  C_14 
REMARK    6  A    between atoms: C_14  and  C_15 
REMARK    7  A    between atoms: C_17  and  O_18 
REMARK    8  A    between atoms: C_20  and  O_21 
ROOT
HETATM    1  N   UNL     1      39.991 -14.177   4.360  1.00  0.00    -0.342 N 
HETATM    2  C   UNL     1      40.005 -13.062   5.134  1.00  0.00     0.316 C 
HETATM    3  N   UNL     1      40.621 -11.971   4.617  1.00  0.00    -0.339 N 
HETATM    4  O   UNL     1      39.457 -13.086   6.230  1.00  0.00    -0.248 OA
HETATM    5  H   UNL     1      39.393 -14.887   4.770  1.00  0.00     0.164 HD
HETATM    6  H   UNL     1      41.172 -12.057   3.781  1.00  0.00     0.164 HD
ENDROOT
BRANCH   1   7
HETATM    7  C   UNL     1      40.401 -14.324   2.970  1.00  0.00     0.139 C 
BRANCH   7   8
HETATM    8  C   UNL     1      41.142 -15.625   2.741  1.00  0.00     0.165 C 
BRANCH   8   9
HETATM    9  S   UNL     1      42.885 -15.369   2.959  1.00  0.00     0.179 S 
HETATM   10  O   UNL     1      43.101 -14.175   3.750  1.00  0.00    -0.222 OA
HETATM   11  O   UNL     1      43.554 -15.577   1.691  1.00  0.00    -0.222 OA
BRANCH   9  12
HETATM   12  C   UNL     1      43.358 -16.697   3.969  1.00  0.00     0.093 A 
HETATM   13  C   UNL     1      43.775 -16.626   5.290  1.00  0.00     0.028 A 
HETATM   14  C   UNL     1      43.904 -15.482   6.231  1.00  0.00     0.070 C 
HETATM   15  N   UNL     1      44.080 -17.907   5.682  1.00  0.00    -0.358 N 
HETATM   16  H   UNL     1      44.395 -18.173   6.605  1.00  0.00     0.166 HD
HETATM   17  C   UNL     1      43.915 -18.788   4.640  1.00  0.00     0.044 A 
HETATM   18  C   UNL     1      43.453 -18.057   3.543  1.00  0.00     0.014 A 
HETATM   19  C   UNL     1      44.137 -20.170   4.595  1.00  0.00     0.030 A 
HETATM   20  C   UNL     1      43.200 -18.755   2.341  1.00  0.00     0.015 A 
HETATM   21  C   UNL     1      43.418 -20.137   2.280  1.00  0.00     0.001 A 
HETATM   22  C   UNL     1      43.881 -20.832   3.392  1.00  0.00     0.002 A 
ENDBRANCH   9  12
ENDBRANCH   8   9
ENDBRANCH   7   8
ENDBRANCH   1   7
BRANCH   3  23
HETATM   23  C   UNL     1      40.745 -10.737   5.358  1.00  0.00     0.163 C 
BRANCH  23  24
HETATM   24  C   UNL     1      42.056 -10.707   6.098  1.00  0.00    -0.038 A 
HETATM   25  C   UNL     1      42.135 -10.065   7.344  1.00  0.00     0.048 A 
HETATM   26  C   UNL     1      43.344  -9.996   8.044  1.00  0.00     0.102 A 
HETATM   27  C   UNL     1      44.501 -10.576   7.487  1.00  0.00     0.101 A 
HETATM   28  C   UNL     1      44.424 -11.211   6.243  1.00  0.00     0.040 A 
HETATM   29  C   UNL     1      43.211 -11.273   5.552  1.00  0.00     0.012 A 
BRANCH  26  30
HETATM   30  O   UNL     1      43.500  -9.388   9.266  1.00  0.00    -0.353 OA
HETATM   31  C   UNL     1      42.426  -9.488  10.191  1.00  0.00     0.210 C 
ENDBRANCH  26  30
BRANCH  27  32
HETATM   32  O   UNL     1      45.650 -10.467   8.234  1.00  0.00    -0.353 OA
HETATM   33  C   UNL     1      46.494  -9.353   7.986  1.00  0.00     0.210 C 
ENDBRANCH  27  32
ENDBRANCH  23  24
ENDBRANCH   3  23
TORSDOF 8
ENDMDL
MODEL 3
REMARK VINA RESULT:      -8.0      2.490      7.146
REMARK  8 active torsions:
REMARK  status: ('A' for Active; 'I' for Inactive)
REMARK    1  A    between atoms: C_7  and  S_8 
REMARK    2  A    between atoms: S_8  and  C_9 
REMARK    3  A    between atoms: C_9  and  C_10 
REMARK    4  A    between atoms: C_10  and  N_11 
REMARK       I    between atoms: N_11  and  C_12 
REMARK       I    between atoms: C_12  and  N_13 
REMARK    5  A    between atoms: N_13  and  C_14 
REMARK    6  A    between atoms: C_14  and  C_15 
REMARK    7  A    between atoms: C_17  and  O_18 
REMARK    8  A    between atoms: C_20  and  O_21 
ROOT
HETATM    1  N   UNL     1      39.288 -13.007   4.452  1.00  0.00    -0.342 N 
HETATM    2  C   UNL     1      40.105 -13.703   5.283  1.00  0.00     0.316 C 
HETATM    3  N   UNL     1      40.976 -14.563   4.701  1.00  0.00    -0.339 N 
HETATM    4  O   UNL     1      40.032 -13.514   6.492  1.00  0.00    -0.248 OA
HETATM    5  H   UNL     1      38.778 -12.297   4.967  1.00  0.00     0.164 HD
HETATM    6  H   UNL     1      40.888 -14.777   3.723  1.00  0.00     0.164 HD
ENDROOT
BRANCH   1   7
HETATM    7  C   UNL     1      39.328 -12.926   2.999  1.00  0.00     0.139 C 
BRANCH   7   8
HETATM    8  C   UNL     1      39.918 -11.612   2.528  1.00  0.00     0.165 C 
BRANCH   8   9
HETATM    9  S   UNL     1      41.468 -11.907   1.716  1.00  0.00     0.179 S 
HETATM   10  O   UNL     1      41.888 -13.272   1.962  1.00  0.00    -0.222 OA
HETATM   11  O   UNL     1      42.348 -10.782   1.955  1.00  0.00    -0.222 OA
BRANCH   9  12
HETATM   12  C   UNL     1      41.053 -11.837   0.034  1.00  0.00     0.093 A 
HETATM   13  C   UNL     1      41.228 -10.757  -0.819  1.00  0.00     0.028 A 
HETATM   14  C   UNL     1      41.826  -9.412  -0.609  1.00  0.00     0.070 C 
HETATM   15  N   UNL     1      40.732 -11.130  -2.045  1.00  0.00    -0.358 N 
HETATM   16  H   UNL     1      40.739 -10.554  -2.876  1.00  0.00     0.166 HD
HETATM   17  C   UNL     1      40.204 -12.399  -1.991  1.00  0.00     0.044 A 
HETATM   18  C   UNL     1      40.397 -12.878  -0.693  1.00  0.00     0.014 A 
HETATM   19  C   UNL     1      39.579 -13.150  -2.994  1.00  0.00     0.030 A 
HETATM   20  C   UNL     1      39.937 -14.180  -0.392  1.00  0.00     0.015 A 
HETATM   21  C   UNL     1      39.309 -14.943  -1.385  1.00  0.00     0.001 A 
HETATM   22  C   UNL     1      39.133 -14.432  -2.666  1.00  0.00     0.002 A 
ENDBRANCH   9  12
ENDBRANCH   8   9
ENDBRANCH   7   8
ENDBRANCH   1   7
BRANCH   3  23
HETATM   23  C   UNL     1      41.865 -15.396   5.476  1.00  0.00     0.163 C 
BRANCH  23  24
HETATM   24  C   UNL     1      42.463 -16.469   4.605  1.00  0.00    -0.038 A 
HETATM   25  C   UNL     1      43.253 -17.473   5.185  1.00  0.00     0.048 A 
HETATM   26  C   UNL     1      43.844 -18.469   4.399  1.00  0.00     0.102 A 
HETATM   27  C   UNL     1      43.647 -18.458   3.004  1.00  0.00     0.101 A 
HETATM   28  C   UNL     1      42.863 -17.454   2.425  1.00  0.00     0.040 A 
HETATM   29  C   UNL     1      42.279 -16.464   3.220  1.00  0.00     0.012 A 
BRANCH  26  30
HETATM   30  O   UNL     1      44.627 -19.483   4.892  1.00  0.00    -0.353 OA
HETATM   31  C   UNL     1      43.969 -20.583   5.504  1.00  0.00     0.210 C 
ENDBRANCH  26  30
BRANCH  27  32
HETATM   32  O   UNL     1      44.259 -19.467   2.301  1.00  0.00    -0.353 OA
HETATM   33  C   UNL     1      43.431 -20.467   1.726  1.00  0.00     0.210 C 
ENDBRANCH  27  32
ENDBRANCH  23  24
ENDBRANCH   3  23
TORSDOF 8
ENDMDL
MODEL 4
REMARK VINA RESULT:      -7.8      3.762      7.575
REMARK  8 active torsions:
REMARK  status: ('A' for Active; 'I' for Inactive)
REMARK    1  A    between atoms: C_7  and  S_8 
REMARK    2  A    between atoms: S_8  and  C_9 
REMARK    3  A    between atoms: C_9  and  C_10 
REMARK    4  A    between atoms: C_10  and  N_11 
REMARK       I    between atoms: N_11  and  C_12 
REMARK       I    between atoms: C_12  and  N_13 
REMARK    5  A    between atoms: N_13  and  C_14 
REMARK    6  A    between atoms: C_14  and  C_15 
REMARK    7  A    between atoms: C_17  and  O_18 
REMARK    8  A    between atoms: C_20  and  O_21 
ROOT
HETATM    1  N   UNL     1      39.521 -13.441   4.099  1.00  0.00    -0.342 N 
HETATM    2  C   UNL     1      40.254 -14.080   3.152  1.00  0.00     0.316 C 
HETATM    3  N   UNL     1      41.578 -14.226   3.402  1.00  0.00    -0.339 N 
HETATM    4  O   UNL     1      39.694 -14.503   2.146  1.00  0.00    -0.248 OA
HETATM    5  H   UNL     1      38.531 -13.506   3.887  1.00  0.00     0.164 HD
HETATM    6  H   UNL     1      41.998 -13.734   4.171  1.00  0.00     0.164 HD
ENDROOT
BRANCH   1   7
HETATM    7  C   UNL     1      39.926 -13.030   5.436  1.00  0.00     0.139 C 
BRANCH   7   8
HETATM    8  C   UNL     1      39.627 -11.566   5.686  1.00  0.00     0.165 C 
BRANCH   8   9
HETATM    9  S   UNL     1      41.002 -10.575   5.158  1.00  0.00     0.179 S 
HETATM   10  O   UNL     1      40.524  -9.274   4.738  1.00  0.00    -0.222 OA
HETATM   11  O   UNL     1      41.868 -11.378   4.320  1.00  0.00    -0.222 OA
BRANCH   9  12
HETATM   12  C   UNL     1      41.881 -10.302   6.628  1.00  0.00     0.093 A 
HETATM   13  C   UNL     1      41.403  -9.694   7.780  1.00  0.00     0.028 A 
HETATM   14  C   UNL     1      40.064  -9.152   8.134  1.00  0.00     0.070 C 
HETATM   15  N   UNL     1      42.444  -9.660   8.675  1.00  0.00    -0.358 N 
HETATM   16  H   UNL     1      42.391  -9.290   9.615  1.00  0.00     0.166 HD
HETATM   17  C   UNL     1      43.585 -10.186   8.117  1.00  0.00     0.044 A 
HETATM   18  C   UNL     1      43.262 -10.608   6.825  1.00  0.00     0.014 A 
HETATM   19  C   UNL     1      44.867 -10.320   8.664  1.00  0.00     0.030 A 
HETATM   20  C   UNL     1      44.284 -11.197   6.046  1.00  0.00     0.015 A 
HETATM   21  C   UNL     1      45.572 -11.337   6.579  1.00  0.00     0.001 A 
HETATM   22  C   UNL     1      45.857 -10.903   7.869  1.00  0.00     0.002 A 
ENDBRANCH   9  12
ENDBRANCH   8   9
ENDBRANCH   7   8
ENDBRANCH   1   7
BRANCH   3  23
HETATM   23  C   UNL     1      42.474 -14.846   2.454  1.00  0.00     0.163 C 
BRANCH  23  24
HETATM   24  C   UNL     1      42.967 -16.163   2.991  1.00  0.00    -0.038 A 
HETATM   25  C   UNL     1      43.259 -16.289   4.359  1.00  0.00     0.048 A 
HETATM   26  C   UNL     1      43.745 -17.491   4.884  1.00  0.00     0.102 A 
HETATM   27  C   UNL     1      43.948 -18.590   4.027  1.00  0.00     0.101 A 
HETATM   28  C   UNL     1      43.661 -18.463   2.663  1.00  0.00     0.040 A 
HETATM   29  C   UNL     1      43.178 -17.257   2.148  1.00  0.00     0.012 A 
BRANCH  26  30
HETATM   30  O   UNL     1      44.051 -17.691   6.208  1.00  0.00    -0.353 OA
HETATM   31  C   UNL     1      44.020 -16.561   7.068  1.00  0.00     0.210 C 
ENDBRANCH  26  30
BRANCH  27  32
HETATM   32  O   UNL     1      44.426 -19.735   4.616  1.00  0.00    -0.353 OA
HETATM   33  C   UNL     1      43.920 -20.978   4.151  1.00  0.00     0.210 C 
ENDBRANCH  27  32
ENDBRANCH  23  24
ENDBRANCH   3  23
TORSDOF 8
ENDMDL
MODEL 5
REMARK VINA RESULT:      -7.6      5.136      8.257
REMARK  8 active torsions:
REMARK  status: ('A' for Active; 'I' for Inactive)
REMARK    1  A    between atoms: C_7  and  S_8 
REMARK    2  A    between atoms: S_8  and  C_9 
REMARK    3  A    between atoms: C_9  and  C_10 
REMARK    4  A    between atoms: C_10  and  N_11 
REMARK       I    between atoms: N_11  and  C_12 
REMARK       I    between atoms: C_12  and  N_13 
REMARK    5  A    between atoms: N_13  and  C_14 
REMARK    6  A    between atoms: C_14  and  C_15 
REMARK    7  A    between atoms: C_17  and  O_18 
REMARK    8  A    between atoms: C_20  and  O_21 
ROOT
HETATM    1  N   UNL     1      43.584 -12.267   6.713  1.00  0.00    -0.342 N 
HETATM    2  C   UNL     1      44.081 -11.295   7.519  1.00  0.00     0.316 C 
HETATM    3  N   UNL     1      43.428 -10.107   7.514  1.00  0.00    -0.339 N 
HETATM    4  O   UNL     1      45.063 -11.536   8.212  1.00  0.00    -0.248 OA
HETATM    5  H   UNL     1      44.051 -13.150   6.891  1.00  0.00     0.164 HD
HETATM    6  H   UNL     1      42.722  -9.928   6.822  1.00  0.00     0.164 HD
ENDROOT
BRANCH   1   7
HETATM    7  C   UNL     1      42.337 -12.272   5.960  1.00  0.00     0.139 C 
BRANCH   7   8
HETATM    8  C   UNL     1      42.389 -13.247   4.801  1.00  0.00     0.165 C 
BRANCH   8   9
HETATM    9  S   UNL     1      41.283 -14.601   5.105  1.00  0.00     0.179 S 
HETATM   10  O   UNL     1      40.555 -14.910   3.891  1.00  0.00    -0.222 OA
HETATM   11  O   UNL     1      40.606 -14.382   6.367  1.00  0.00    -0.222 OA
BRANCH   9  12
HETATM   12  C   UNL     1      42.355 -15.938   5.366  1.00  0.00     0.093 A 
HETATM   13  C   UNL     1      43.018 -16.252   6.544  1.00  0.00     0.028 A 
HETATM   14  C   UNL     1      42.999 -15.624   7.892  1.00  0.00     0.070 C 
HETATM   15  N   UNL     1      43.781 -17.365   6.290  1.00  0.00    -0.358 N 
HETATM   16  H   UNL     1      44.363 -17.840   6.967  1.00  0.00     0.166 HD
HETATM   17  C   UNL     1      43.663 -17.746   4.973  1.00  0.00     0.044 A 
HETATM   18  C   UNL     1      42.764 -16.869   4.363  1.00  0.00     0.014 A 
HETATM   19  C   UNL     1      44.282 -18.800   4.290  1.00  0.00     0.030 A 
HETATM   20  C   UNL     1      42.473 -17.066   2.994  1.00  0.00     0.015 A 
HETATM   21  C   UNL     1      43.085 -18.115   2.296  1.00  0.00     0.001 A 
HETATM   22  C   UNL     1      43.977 -18.967   2.937  1.00  0.00     0.002 A 
ENDBRANCH   9  12
ENDBRANCH   8   9
ENDBRANCH   7   8
ENDBRANCH   1   7
BRANCH   3  23
HETATM   23  C   UNL     1      43.884  -8.978   8.292  1.00  0.00     0.163 C 
BRANCH  23  24
HETATM   24  C   UNL     1      43.213  -8.972   9.640  1.00  0.00    -0.038 A 
HETATM   25  C   UNL     1      41.822  -9.139   9.723  1.00  0.00     0.048 A 
HETATM   26  C   UNL     1      41.165  -9.111  10.958  1.00  0.00     0.102 A 
HETATM   27  C   UNL     1      41.912  -8.908  12.135  1.00  0.00     0.101 A 
HETATM   28  C   UNL     1      43.298  -8.737  12.052  1.00  0.00     0.040 A 
HETATM   29  C   UNL     1      43.944  -8.765  10.813  1.00  0.00     0.012 A 
BRANCH  26  30
HETATM   30  O   UNL     1      39.811  -9.267  11.119  1.00  0.00    -0.353 OA
HETATM   31  C   UNL     1      39.110 -10.001  10.125  1.00  0.00     0.210 C 
ENDBRANCH  26  30
BRANCH  27  32
HETATM   32  O   UNL     1      41.197  -8.893  13.308  1.00  0.00    -0.353 OA
HETATM   33  C   UNL     1      41.923  -8.767  14.522  1.00  0.00     0.210 C 
ENDBRANCH  27  32
ENDBRANCH  23  24
ENDBRANCH   3  23
TORSDOF 8
ENDMDL
MODEL 6
REMARK VINA RESULT:      -7.6      5.055      8.083
REMARK  8 active torsions:
REMARK  status: ('A' for Active; 'I' for Inactive)
REMARK    1  A    between atoms: C_7  and  S_8 
REMARK    2  A    between atoms: S_8  and  C_9 
REMARK    3  A    between atoms: C_9  and  C_10 
REMARK    4  A    between atoms: C_10  and  N_11 
REMARK       I    between atoms: N_11  and  C_12 
REMARK       I    between atoms: C_12  and  N_13 
REMARK    5  A    between atoms: N_13  and  C_14 
REMARK    6  A    between atoms: C_14  and  C_15 
REMARK    7  A    between atoms: C_17  and  O_18 
REMARK    8  A    between atoms: C_20  and  O_21 
ROOT
HETATM    1  N   UNL     1      44.854 -12.270   6.559  1.00  0.00    -0.342 N 
HETATM    2  C   UNL     1      45.058 -11.172   7.331  1.00  0.00     0.316 C 
HETATM    3  N   UNL     1      43.960 -10.454   7.670  1.00  0.00    -0.339 N 
HETATM    4  O   UNL     1      46.197 -10.899   7.693  1.00  0.00    -0.248 OA
HETATM    5  H   UNL     1      45.707 -12.812   6.477  1.00  0.00     0.164 HD
HETATM    6  H   UNL     1      43.080 -10.646   7.226  1.00  0.00     0.164 HD
ENDROOT
BRANCH   1   7
HETATM    7  C   UNL     1      43.592 -12.887   6.175  1.00  0.00     0.139 C 
BRANCH   7   8
HETATM    8  C   UNL     1      43.419 -14.250   6.816  1.00  0.00     0.165 C 
BRANCH   8   9
HETATM    9  S   UNL     1      41.797 -14.877   6.464  1.00  0.00     0.179 S 
HETATM   10  O   UNL     1      40.863 -13.774   6.378  1.00  0.00    -0.222 OA
HETATM   11  O   UNL     1      41.544 -16.029   7.306  1.00  0.00    -0.222 OA
BRANCH   9  12
HETATM   12  C   UNL     1      41.951 -15.493   4.851  1.00  0.00     0.093 A 
HETATM   13  C   UNL     1      41.272 -15.049   3.725  1.00  0.00     0.028 A 
HETATM   14  C   UNL     1      40.291 -13.949   3.527  1.00  0.00     0.070 C 
HETATM   15  N   UNL     1      41.676 -15.839   2.677  1.00  0.00    -0.358 N 
HETATM   16  H   UNL     1      41.365 -15.740   1.720  1.00  0.00     0.166 HD
HETATM   17  C   UNL     1      42.558 -16.803   3.105  1.00  0.00     0.044 A 
HETATM   18  C   UNL     1      42.759 -16.609   4.473  1.00  0.00     0.014 A 
HETATM   19  C   UNL     1      43.189 -17.821   2.380  1.00  0.00     0.030 A 
HETATM   20  C   UNL     1      43.643 -17.484   5.144  1.00  0.00     0.015 A 
HETATM   21  C   UNL     1      44.280 -18.508   4.432  1.00  0.00     0.001 A 
HETATM   22  C   UNL     1      44.054 -18.673   3.070  1.00  0.00     0.002 A 
ENDBRANCH   9  12
ENDBRANCH   8   9
ENDBRANCH   7   8
ENDBRANCH   1   7
BRANCH   3  23
HETATM   23  C   UNL     1      44.049  -9.240   8.449  1.00  0.00     0.163 C 
BRANCH  23  24
HETATM   24  C   UNL     1      43.293  -9.397   9.741  1.00  0.00    -0.038 A 
HETATM   25  C   UNL     1      41.889  -9.389   9.729  1.00  0.00     0.048 A 
HETATM   26  C   UNL     1      41.158  -9.505  10.916  1.00  0.00     0.102 A 
HETATM   27  C   UNL     1      41.841  -9.627  12.142  1.00  0.00     0.101 A 
HETATM   28  C   UNL     1      43.240  -9.630  12.155  1.00  0.00     0.040 A 
HETATM   29  C   UNL     1      43.961  -9.512  10.963  1.00  0.00     0.012 A 
BRANCH  26  30
HETATM   30  O   UNL     1      39.786  -9.507  10.984  1.00  0.00    -0.353 OA
HETATM   31  C   UNL     1      39.069  -9.792   9.792  1.00  0.00     0.210 C 
ENDBRANCH  26  30
BRANCH  27  32
HETATM   32  O   UNL     1      41.054  -9.737  13.263  1.00  0.00    -0.353 OA
HETATM   33  C   UNL     1      41.304  -8.840  14.335  1.00  0.00     0.210 C 
ENDBRANCH  27  32
ENDBRANCH  23  24
ENDBRANCH   3  23
TORSDOF 8
ENDMDL
MODEL 7
REMARK VINA RESULT:      -7.5      5.573      8.388
REMARK  8 active torsions:
REMARK  status: ('A' for Active; 'I' for Inactive)
REMARK    1  A    between atoms: C_7  and  S_8 
REMARK    2  A    between atoms: S_8  and  C_9 
REMARK    3  A    between atoms: C_9  and  C_10 
REMARK    4  A    between atoms: C_10  and  N_11 
REMARK       I    between atoms: N_11  and  C_12 
REMARK       I    between atoms: C_12  and  N_13 
REMARK    5  A    between atoms: N_13  and  C_14 
REMARK    6  A    between atoms: C_14  and  C_15 
REMARK    7  A    between atoms: C_17  and  O_18 
REMARK    8  A    between atoms: C_20  and  O_21 
ROOT
HETATM    1  N   UNL     1      45.741 -10.557   6.808  1.00  0.00    -0.342 N 
HETATM    2  C   UNL     1      45.910  -9.862   7.962  1.00  0.00     0.316 C 
HETATM    3  N   UNL     1      45.241 -10.315   9.049  1.00  0.00    -0.339 N 
HETATM    4  O   UNL     1      46.657  -8.889   7.970  1.00  0.00    -0.248 OA
HETATM    5  H   UNL     1      46.384 -10.227   6.096  1.00  0.00     0.164 HD
HETATM    6  H   UNL     1      44.538 -11.025   8.943  1.00  0.00     0.164 HD
ENDROOT
BRANCH   1   7
HETATM    7  C   UNL     1      45.068 -11.834   6.608  1.00  0.00     0.139 C 
BRANCH   7   8
HETATM    8  C   UNL     1      43.972 -11.730   5.567  1.00  0.00     0.165 C 
BRANCH   8   9
HETATM    9  S   UNL     1      42.885 -13.127   5.698  1.00  0.00     0.179 S 
HETATM   10  O   UNL     1      41.528 -12.663   5.899  1.00  0.00    -0.222 OA
HETATM   11  O   UNL     1      43.492 -14.115   6.566  1.00  0.00    -0.222 OA
BRANCH   9  12
HETATM   12  C   UNL     1      42.920 -13.808   4.104  1.00  0.00     0.093 A 
HETATM   13  C   UNL     1      42.700 -13.136   2.910  1.00  0.00     0.028 A 
HETATM   14  C   UNL     1      42.426 -11.705   2.612  1.00  0.00     0.070 C 
HETATM   15  N   UNL     1      42.791 -14.067   1.905  1.00  0.00    -0.358 N 
HETATM   16  H   UNL     1      42.695 -13.870   0.918  1.00  0.00     0.166 HD
HETATM   17  C   UNL     1      43.018 -15.322   2.421  1.00  0.00     0.044 A 
HETATM   18  C   UNL     1      43.112 -15.192   3.809  1.00  0.00     0.014 A 
HETATM   19  C   UNL     1      43.150 -16.549   1.760  1.00  0.00     0.030 A 
HETATM   20  C   UNL     1      43.352 -16.360   4.568  1.00  0.00     0.015 A 
HETATM   21  C   UNL     1      43.485 -17.595   3.921  1.00  0.00     0.001 A 
HETATM   22  C   UNL     1      43.384 -17.686   2.538  1.00  0.00     0.002 A 
ENDBRANCH   9  12
ENDBRANCH   8   9
ENDBRANCH   7   8
ENDBRANCH   1   7
BRANCH   3  23
HETATM   23  C   UNL     1      45.300  -9.637  10.323  1.00  0.00     0.163 C 
BRANCH  23  24
HETATM   24  C   UNL     1      43.912  -9.275  10.782  1.00  0.00    -0.038 A 
HETATM   25  C   UNL     1      42.812  -9.565   9.961  1.00  0.00     0.048 A 
HETATM   26  C   UNL     1      41.513  -9.217  10.347  1.00  0.00     0.102 A 
HETATM   27  C   UNL     1      41.307  -8.561  11.576  1.00  0.00     0.101 A 
HETATM   28  C   UNL     1      42.405  -8.267  12.393  1.00  0.00     0.040 A 
HETATM   29  C   UNL     1      43.698  -8.618  11.997  1.00  0.00     0.012 A 
BRANCH  26  30
HETATM   30  O   UNL     1      40.389  -9.469   9.599  1.00  0.00    -0.353 OA
HETATM   31  C   UNL     1      40.322  -8.899   8.300  1.00  0.00     0.210 C 
ENDBRANCH  26  30
BRANCH  27  32
HETATM   32  O   UNL     1      40.005  -8.253  11.885  1.00  0.00    -0.353 OA
HETATM   33  C   UNL     1      39.772  -7.449  13.033  1.00  0.00     0.210 C 
ENDBRANCH  27  32
ENDBRANCH  23  24
ENDBRANCH   3  23
TORSDOF 8
ENDMDL
MODEL 8
REMARK VINA RESULT:      -7.5      4.348      7.992
REMARK  8 active torsions:
REMARK  status: ('A' for Active; 'I' for Inactive)
REMARK    1  A    between atoms: C_7  and  S_8 
REMARK    2  A    between atoms: S_8  and  C_9 
REMARK    3  A    between atoms: C_9  and  C_10 
REMARK    4  A    between atoms: C_10  and  N_11 
REMARK       I    between atoms: N_11  and  C_12 
REMARK       I    between atoms: C_12  and  N_13 
REMARK    5  A    between atoms: N_13  and  C_14 
REMARK    6  A    between atoms: C_14  and  C_15 
REMARK    7  A    between atoms: C_17  and  O_18 
REMARK    8  A    between atoms: C_20  and  O_21 
ROOT
HETATM    1  N   UNL     1      40.794 -12.174   4.225  1.00  0.00    -0.342 N 
HETATM    2  C   UNL     1      41.145 -12.953   3.170  1.00  0.00     0.316 C 
HETATM    3  N   UNL     1      41.692 -14.159   3.459  1.00  0.00    -0.339 N 
HETATM    4  O   UNL     1      40.939 -12.548   2.032  1.00  0.00    -0.248 OA
HETATM    5  H   UNL     1      40.272 -11.363   3.911  1.00  0.00     0.164 HD
HETATM    6  H   UNL     1      41.966 -14.370   4.402  1.00  0.00     0.164 HD
ENDROOT
BRANCH   1   7
HETATM    7  C   UNL     1      40.768 -12.520   5.640  1.00  0.00     0.139 C 
BRANCH   7   8
HETATM    8  C   UNL     1      42.130 -12.353   6.281  1.00  0.00     0.165 C 
BRANCH   8   9
HETATM    9  S   UNL     1      42.737 -10.712   5.983  1.00  0.00     0.179 S 
HETATM   10  O   UNL     1      41.677  -9.756   6.227  1.00  0.00    -0.222 OA
HETATM   11  O   UNL     1      43.501 -10.708   4.753  1.00  0.00    -0.222 OA
BRANCH   9  12
HETATM   12  C   UNL     1      43.888 -10.477   7.258  1.00  0.00     0.093 A 
HETATM   13  C   UNL     1      45.226 -10.841   7.245  1.00  0.00     0.028 A 
HETATM   14  C   UNL     1      46.075 -11.466   6.196  1.00  0.00     0.070 C 
HETATM   15  N   UNL     1      45.747 -10.497   8.469  1.00  0.00    -0.358 N 
HETATM   16  H   UNL     1      46.710 -10.623   8.748  1.00  0.00     0.166 HD
HETATM   17  C   UNL     1      44.772  -9.967   9.281  1.00  0.00     0.044 A 
HETATM   18  C   UNL     1      43.586  -9.933   8.545  1.00  0.00     0.014 A 
HETATM   19  C   UNL     1      44.860  -9.515  10.604  1.00  0.00     0.030 A 
HETATM   20  C   UNL     1      42.431  -9.416   9.173  1.00  0.00     0.015 A 
HETATM   21  C   UNL     1      42.502  -8.961  10.496  1.00  0.00     0.001 A 
HETATM   22  C   UNL     1      43.701  -9.012  11.199  1.00  0.00     0.002 A 
ENDBRANCH   9  12
ENDBRANCH   8   9
ENDBRANCH   7   8
ENDBRANCH   1   7
BRANCH   3  23
HETATM   23  C   UNL     1      42.150 -15.060   2.427  1.00  0.00     0.163 C 
BRANCH  23  24
HETATM   24  C   UNL     1      42.743 -16.298   3.046  1.00  0.00    -0.038 A 
HETATM   25  C   UNL     1      42.839 -16.398   4.443  1.00  0.00     0.048 A 
HETATM   26  C   UNL     1      43.410 -17.523   5.047  1.00  0.00     0.102 A 
HETATM   27  C   UNL     1      43.900 -18.569   4.241  1.00  0.00     0.101 A 
HETATM   28  C   UNL     1      43.810 -18.467   2.848  1.00  0.00     0.040 A 
HETATM   29  C   UNL     1      43.239 -17.338   2.255  1.00  0.00     0.012 A 
BRANCH  26  30
HETATM   30  O   UNL     1      43.537 -17.694   6.404  1.00  0.00    -0.353 OA
HETATM   31  C   UNL     1      43.467 -16.534   7.221  1.00  0.00     0.210 C 
ENDBRANCH  26  30
BRANCH  27  32
HETATM   32  O   UNL     1      44.446 -19.639   4.907  1.00  0.00    -0.353 OA
HETATM   33  C   UNL     1      43.990 -20.938   4.555  1.00  0.00     0.210 C 
ENDBRANCH  27  32
ENDBRANCH  23  24
ENDBRANCH   3  23
TORSDOF 8
ENDMDL
MODEL 9
REMARK VINA RESULT:      -7.4      5.968      8.824
REMARK  8 active torsions:
REMARK  status: ('A' for Active; 'I' for Inactive)
REMARK    1  A    between atoms: C_7  and  S_8 
REMARK    2  A    between atoms: S_8  and  C_9 
REMARK    3  A    between atoms: C_9  and  C_10 
REMARK    4  A    between atoms: C_10  and  N_11 
REMARK       I    between atoms: N_11  and  C_12 
REMARK       I    between atoms: C_12  and  N_13 
REMARK    5  A    between atoms: N_13  and  C_14 
REMARK    6  A    between atoms: C_14  and  C_15 
REMARK    7  A    between atoms: C_17  and  O_18 
REMARK    8  A    between atoms: C_20  and  O_21 
ROOT
HETATM    1  N   UNL     1      45.746 -10.609   6.808  1.00  0.00    -0.342 N 
HETATM    2  C   UNL     1      45.951  -9.906   7.951  1.00  0.00     0.316 C 
HETATM    3  N   UNL     1      45.299 -10.338   9.057  1.00  0.00    -0.339 N 
HETATM    4  O   UNL     1      46.713  -8.945   7.934  1.00  0.00    -0.248 OA
HETATM    5  H   UNL     1      46.379 -10.297   6.080  1.00  0.00     0.164 HD
HETATM    6  H   UNL     1      44.583 -11.038   8.974  1.00  0.00     0.164 HD
ENDROOT
BRANCH   1   7
HETATM    7  C   UNL     1      45.049 -11.877   6.636  1.00  0.00     0.139 C 
BRANCH   7   8
HETATM    8  C   UNL     1      44.002 -11.793   5.543  1.00  0.00     0.165 C 
BRANCH   8   9
HETATM    9  S   UNL     1      42.887 -13.168   5.675  1.00  0.00     0.179 S 
HETATM   10  O   UNL     1      41.539 -12.677   5.874  1.00  0.00    -0.222 OA
HETATM   11  O   UNL     1      43.473 -14.168   6.545  1.00  0.00    -0.222 OA
BRANCH   9  12
HETATM   12  C   UNL     1      42.910 -13.851   4.082  1.00  0.00     0.093 A 
HETATM   13  C   UNL     1      42.685 -13.181   2.888  1.00  0.00     0.028 A 
HETATM   14  C   UNL     1      42.414 -11.749   2.589  1.00  0.00     0.070 C 
HETATM   15  N   UNL     1      42.767 -14.114   1.883  1.00  0.00    -0.358 N 
HETATM   16  H   UNL     1      42.666 -13.917   0.897  1.00  0.00     0.166 HD
HETATM   17  C   UNL     1      42.993 -15.368   2.400  1.00  0.00     0.044 A 
HETATM   18  C   UNL     1      43.095 -15.237   3.787  1.00  0.00     0.014 A 
HETATM   19  C   UNL     1      43.117 -16.597   1.740  1.00  0.00     0.030 A 
HETATM   20  C   UNL     1      43.336 -16.404   4.546  1.00  0.00     0.015 A 
HETATM   21  C   UNL     1      43.461 -17.641   3.901  1.00  0.00     0.001 A 
HETATM   22  C   UNL     1      43.351 -17.733   2.518  1.00  0.00     0.002 A 
ENDBRANCH   9  12
ENDBRANCH   8   9
ENDBRANCH   7   8
ENDBRANCH   1   7
BRANCH   3  23
HETATM   23  C   UNL     1      45.396  -9.648  10.323  1.00  0.00     0.163 C 
BRANCH  23  24
HETATM   24  C   UNL     1      44.083  -8.991  10.658  1.00  0.00    -0.038 A 
HETATM   25  C   UNL     1      43.365  -9.412  11.789  1.00  0.00     0.048 A 
HETATM   26  C   UNL     1      42.130  -8.840  12.112  1.00  0.00     0.102 A 
HETATM   27  C   UNL     1      41.596  -7.831  11.286  1.00  0.00     0.101 A 
HETATM   28  C   UNL     1      42.309  -7.416  10.156  1.00  0.00     0.040 A 
HETATM   29  C   UNL     1      43.542  -7.994   9.842  1.00  0.00     0.012 A 
BRANCH  26  30
HETATM   30  O   UNL     1      41.372  -9.196  13.199  1.00  0.00    -0.353 OA
HETATM   31  C   UNL     1      41.856  -8.836  14.485  1.00  0.00     0.210 C 
ENDBRANCH  26  30
BRANCH  27  32
HETATM   32  O   UNL     1      40.380  -7.319  11.668  1.00  0.00    -0.353 OA
HETATM   33  C   UNL     1      39.838  -6.259  10.893  1.00  0.00     0.210 C 
ENDBRANCH  27  32
ENDBRANCH  23  24
ENDBRANCH   3  23
TORSDOF 8
ENDMDL
MODEL 10
REMARK VINA RESULT:      -7.4      2.551      3.828
REMARK  8 active torsions:
REMARK  status: ('A' for Active; 'I' for Inactive)
REMARK    1  A    between atoms: C_7  and  S_8 
REMARK    2  A    between atoms: S_8  and  C_9 
REMARK    3  A    between atoms: C_9  and  C_10 
REMARK    4  A    between atoms: C_10  and  N_11 
REMARK       I    between atoms: N_11  and  C_12 
REMARK       I    between atoms: C_12  and  N_13 
REMARK    5  A    between atoms: N_13  and  C_14 
REMARK    6  A    between atoms: C_14  and  C_15 
REMARK    7  A    between atoms: C_17  and  O_18 
REMARK    8  A    between atoms: C_20  and  O_21 
ROOT
HETATM    1  N   UNL     1      39.454 -14.330   1.996  1.00  0.00    -0.342 N 
HETATM    2  C   UNL     1      39.612 -12.983   1.940  1.00  0.00     0.316 C 
HETATM    3  N   UNL     1      40.705 -12.526   1.282  1.00  0.00    -0.339 N 
HETATM    4  O   UNL     1      38.769 -12.259   2.458  1.00  0.00    -0.248 OA
HETATM    5  H   UNL     1      38.546 -14.566   2.381  1.00  0.00     0.164 HD
HETATM    6  H   UNL     1      41.428 -13.168   1.007  1.00  0.00     0.164 HD
ENDROOT
BRANCH   1   7
HETATM    7  C   UNL     1      40.210 -15.363   1.300  1.00  0.00     0.139 C 
BRANCH   7   8
HETATM    8  C   UNL     1      40.911 -16.291   2.271  1.00  0.00     0.165 C 
BRANCH   8   9
HETATM    9  S   UNL     1      42.513 -15.642   2.671  1.00  0.00     0.179 S 
HETATM   10  O   UNL     1      42.360 -14.431   3.451  1.00  0.00    -0.222 OA
HETATM   11  O   UNL     1      43.350 -15.690   1.490  1.00  0.00    -0.222 OA
BRANCH   9  12
HETATM   12  C   UNL     1      43.160 -16.826   3.760  1.00  0.00     0.093 A 
HETATM   13  C   UNL     1      43.626 -16.601   5.048  1.00  0.00     0.028 A 
HETATM   14  C   UNL     1      43.683 -15.372   5.883  1.00  0.00     0.070 C 
HETATM   15  N   UNL     1      44.074 -17.808   5.527  1.00  0.00    -0.358 N 
HETATM   16  H   UNL     1      44.455 -17.963   6.451  1.00  0.00     0.166 HD
HETATM   17  C   UNL     1      43.951 -18.789   4.571  1.00  0.00     0.044 A 
HETATM   18  C   UNL     1      43.370 -18.203   3.443  1.00  0.00     0.014 A 
HETATM   19  C   UNL     1      44.306 -20.142   4.628  1.00  0.00     0.030 A 
HETATM   20  C   UNL     1      43.134 -19.024   2.318  1.00  0.00     0.015 A 
HETATM   21  C   UNL     1      43.485 -20.379   2.359  1.00  0.00     0.001 A 
HETATM   22  C   UNL     1      44.064 -20.927   3.498  1.00  0.00     0.002 A 
ENDBRANCH   9  12
ENDBRANCH   8   9
ENDBRANCH   7   8
ENDBRANCH   1   7
BRANCH   3  23
HETATM   23  C   UNL     1      41.012 -11.117   1.193  1.00  0.00     0.163 C 
BRANCH  23  24
HETATM   24  C   UNL     1      40.994 -10.673  -0.246  1.00  0.00    -0.038 A 
HETATM   25  C   UNL     1      41.766  -9.569  -0.641  1.00  0.00     0.048 A 
HETATM   26  C   UNL     1      41.750  -9.115  -1.965  1.00  0.00     0.102 A 
HETATM   27  C   UNL     1      40.942  -9.773  -2.913  1.00  0.00     0.101 A 
HETATM   28  C   UNL     1      40.168 -10.870  -2.518  1.00  0.00     0.040 A 
HETATM   29  C   UNL     1      40.191 -11.315  -1.193  1.00  0.00     0.012 A 
BRANCH  26  30
HETATM   30  O   UNL     1      42.477  -8.046  -2.426  1.00  0.00    -0.353 OA
HETATM   31  C   UNL     1      43.228  -7.303  -1.477  1.00  0.00     0.210 C 
ENDBRANCH  26  30
BRANCH  27  32
HETATM   32  O   UNL     1      40.979  -9.270  -4.191  1.00  0.00    -0.353 OA
HETATM   33  C   UNL     1      39.819  -8.607  -4.673  1.00  0.00     0.210 C 
ENDBRANCH  27  32
ENDBRANCH  23  24
ENDBRANCH   3  23
TORSDOF 8
ENDMDL
