MODEL 1
REMARK VINA RESULT:      -8.0      0.000      0.000
REMARK  7 active torsions:
REMARK  status: ('A' for Active; 'I' for Inactive)
REMARK    1  A    between atoms: C_2  and  S_3 
REMARK    2  A    between atoms: C_2  and  C_20 
REMARK    3  A    between atoms: S_3  and  C_4 
REMARK    4  A    between atoms: C_4  and  C_5 
REMARK       I    between atoms: C_5  and  N_6 
REMARK    5  A    between atoms: N_6  and  C_7 
REMARK    6  A    between atoms: C_10  and  C_11 
REMARK       I    between atoms: C_11  and  N_12 
REMARK    7  A    between atoms: N_12  and  C_13 
ROOT
HETATM    1  C   UNL     1      41.975 -12.029   2.682  1.00  0.00     0.231 C 
HETATM    2  N   UNL     1      41.737 -12.551   3.945  1.00  0.00    -0.327 N 
HETATM    3  O   UNL     1      42.831 -11.197   2.392  1.00  0.00    -0.272 OA
HETATM    4  H   UNL     1      40.989 -13.229   4.025  1.00  0.00     0.169 HD
ENDROOT
BRANCH   1   5
HETATM    5  C   UNL     1      41.036 -12.580   1.616  1.00  0.00     0.177 C 
BRANCH   5   6
HETATM    6  S   UNL     1      39.591 -13.352   2.416  1.00  0.00    -0.147 SA
BRANCH   6   7
HETATM    7  C   UNL     1      39.830 -15.061   1.801  1.00  0.00     0.113 C 
HETATM    8  C   UNL     1      40.125 -15.029   0.303  1.00  0.00     0.029 C 
BRANCH   7   9
HETATM    9  C   UNL     1      40.913 -15.749   2.572  1.00  0.00     0.118 A 
HETATM   10  N   UNL     1      41.251 -15.513   3.825  1.00  0.00    -0.232 NA
HETATM   11  C   UNL     1      42.263 -16.396   4.111  1.00  0.00     0.085 A 
HETATM   12  C   UNL     1      42.573 -17.172   3.001  1.00  0.00     0.062 A 
HETATM   13  C   UNL     1      42.970 -16.598   5.306  1.00  0.00     0.034 A 
HETATM   14  N   UNL     1      41.710 -16.731   2.031  1.00  0.00    -0.342 N 
HETATM   15  C   UNL     1      43.564 -18.155   3.003  1.00  0.00     0.032 A 
HETATM   16  H   UNL     1      41.662 -17.070   1.080  1.00  0.00     0.167 HD
HETATM   17  C   UNL     1      44.257 -18.344   4.205  1.00  0.00     0.002 A 
HETATM   18  C   UNL     1      43.967 -17.581   5.338  1.00  0.00     0.002 A 
ENDBRANCH   7   9
ENDBRANCH   6   7
ENDBRANCH   5   6
ENDBRANCH   1   5
BRANCH   2  19
HETATM   19  C   UNL     1      42.399 -12.218   5.146  1.00  0.00     0.034 A 
HETATM   20  C   UNL     1      43.469 -12.942   5.675  1.00  0.00     0.030 A 
HETATM   21  C   UNL     1      44.098 -12.533   6.858  1.00  0.00     0.019 A 
HETATM   22  C   UNL     1      43.672 -11.379   7.522  1.00  0.00     0.032 A 
HETATM   23  C   UNL     1      42.579 -10.668   7.013  1.00  0.00     0.019 A 
HETATM   24  C   UNL     1      41.947 -11.087   5.836  1.00  0.00     0.030 A 
BRANCH  22  25
HETATM   25  C   UNL     1      44.330 -10.873   8.764  1.00  0.00     0.251 C 
HETATM   26  N   UNL     1      43.489 -10.442   9.772  1.00  0.00    -0.353 N 
HETATM   27  H   UNL     1      42.504 -10.648   9.691  1.00  0.00     0.163 HD
HETATM   28  O   UNL     1      45.552 -10.897   8.853  1.00  0.00    -0.268 OA
BRANCH  26  29
HETATM   29  C   UNL     1      43.948 -10.025  11.093  1.00  0.00     0.076 C 
HETATM   30  C   UNL     1      43.601  -8.567  11.379  1.00  0.00     0.032 C 
HETATM   31  C   UNL     1      43.471 -10.949  12.210  1.00  0.00     0.032 C 
ENDBRANCH  26  29
ENDBRANCH  22  25
ENDBRANCH   2  19
TORSDOF 7
ENDMDL
MODEL 2
REMARK VINA RESULT:      -7.6      1.940      2.553
REMARK  7 active torsions:
REMARK  status: ('A' for Active; 'I' for Inactive)
REMARK    1  A    between atoms: C_2  and  S_3 
REMARK    2  A    between atoms: C_2  and  C_20 
REMARK    3  A    between atoms: S_3  and  C_4 
REMARK    4  A    between atoms: C_4  and  C_5 
REMARK       I    between atoms: C_5  and  N_6 
REMARK    5  A    between atoms: N_6  and  C_7 
REMARK    6  A    between atoms: C_10  and  C_11 
REMARK       I    between atoms: C_11  and  N_12 
REMARK    7  A    between atoms: N_12  and  C_13 
ROOT
HETATM    1  C   UNL     1      41.118 -10.766   0.889  1.00  0.00     0.231 C 
HETATM    2  N   UNL     1      41.011 -11.449   2.092  1.00  0.00    -0.327 N 
HETATM    3  O   UNL     1      42.058 -10.056   0.541  1.00  0.00    -0.272 OA
HETATM    4  H   UNL     1      40.168 -11.992   2.235  1.00  0.00     0.169 HD
ENDROOT
BRANCH   1   5
HETATM    5  C   UNL     1      39.910 -10.956  -0.020  1.00  0.00     0.177 C 
BRANCH   5   6
HETATM    6  S   UNL     1      40.313 -12.161  -1.327  1.00  0.00    -0.147 SA
BRANCH   6   7
HETATM    7  C   UNL     1      39.435 -13.610  -0.631  1.00  0.00     0.113 C 
HETATM    8  C   UNL     1      39.132 -14.609  -1.745  1.00  0.00     0.029 C 
BRANCH   7   9
HETATM    9  C   UNL     1      40.234 -14.226   0.475  1.00  0.00     0.118 A 
HETATM   10  N   UNL     1      39.828 -14.427   1.714  1.00  0.00    -0.232 NA
HETATM   11  C   UNL     1      40.877 -15.040   2.355  1.00  0.00     0.085 A 
HETATM   12  C   UNL     1      41.961 -15.192   1.499  1.00  0.00     0.062 A 
HETATM   13  C   UNL     1      40.978 -15.500   3.676  1.00  0.00     0.034 A 
HETATM   14  N   UNL     1      41.532 -14.653   0.314  1.00  0.00    -0.342 N 
HETATM   15  C   UNL     1      43.165 -15.785   1.882  1.00  0.00     0.032 A 
HETATM   16  H   UNL     1      42.072 -14.584  -0.537  1.00  0.00     0.167 HD
HETATM   17  C   UNL     1      43.247 -16.241   3.204  1.00  0.00     0.002 A 
HETATM   18  C   UNL     1      42.173 -16.103   4.087  1.00  0.00     0.002 A 
ENDBRANCH   7   9
ENDBRANCH   6   7
ENDBRANCH   5   6
ENDBRANCH   1   5
BRANCH   2  19
HETATM   19  C   UNL     1      41.932 -11.447   3.161  1.00  0.00     0.034 A 
HETATM   20  C   UNL     1      43.163 -12.105   3.133  1.00  0.00     0.030 A 
HETATM   21  C   UNL     1      44.041 -12.032   4.223  1.00  0.00     0.019 A 
HETATM   22  C   UNL     1      43.703 -11.282   5.354  1.00  0.00     0.032 A 
HETATM   23  C   UNL     1      42.456 -10.648   5.398  1.00  0.00     0.019 A 
HETATM   24  C   UNL     1      41.578 -10.733   4.312  1.00  0.00     0.030 A 
BRANCH  22  25
HETATM   25  C   UNL     1      44.615 -11.136   6.527  1.00  0.00     0.251 C 
HETATM   26  N   UNL     1      44.113 -10.448   7.613  1.00  0.00    -0.353 N 
HETATM   27  H   UNL     1      43.125 -10.236   7.628  1.00  0.00     0.163 HD
HETATM   28  O   UNL     1      45.726 -11.653   6.497  1.00  0.00    -0.268 OA
BRANCH  26  29
HETATM   29  C   UNL     1      44.815 -10.306   8.885  1.00  0.00     0.076 C 
HETATM   30  C   UNL     1      45.650  -9.030   8.932  1.00  0.00     0.032 C 
HETATM   31  C   UNL     1      43.890 -10.421  10.094  1.00  0.00     0.032 C 
ENDBRANCH  26  29
ENDBRANCH  22  25
ENDBRANCH   2  19
TORSDOF 7
ENDMDL
MODEL 3
REMARK VINA RESULT:      -7.6      4.082      8.121
REMARK  7 active torsions:
REMARK  status: ('A' for Active; 'I' for Inactive)
REMARK    1  A    between atoms: C_2  and  S_3 
REMARK    2  A    between atoms: C_2  and  C_20 
REMARK    3  A    between atoms: S_3  and  C_4 
REMARK    4  A    between atoms: C_4  and  C_5 
REMARK       I    between atoms: C_5  and  N_6 
REMARK    5  A    between atoms: N_6  and  C_7 
REMARK    6  A    between atoms: C_10  and  C_11 
REMARK       I    between atoms: C_11  and  N_12 
REMARK    7  A    between atoms: N_12  and  C_13 
ROOT
HETATM    1  C   UNL     1      40.733 -14.326   3.984  1.00  0.00     0.231 C 
HETATM    2  N   UNL     1      41.221 -14.782   2.768  1.00  0.00    -0.327 N 
HETATM    3  O   UNL     1      39.871 -13.465   4.141  1.00  0.00    -0.272 OA
HETATM    4  H   UNL     1      41.939 -15.496   2.803  1.00  0.00     0.169 HD
ENDROOT
BRANCH   1   5
HETATM    5  C   UNL     1      41.390 -14.995   5.185  1.00  0.00     0.177 C 
BRANCH   5   6
HETATM    6  S   UNL     1      43.022 -14.243   5.486  1.00  0.00    -0.147 SA
BRANCH   6   7
HETATM    7  C   UNL     1      43.756 -15.593   6.483  1.00  0.00     0.113 C 
HETATM    8  C   UNL     1      42.969 -15.756   7.782  1.00  0.00     0.029 C 
BRANCH   7   9
HETATM    9  C   UNL     1      43.802 -16.863   5.692  1.00  0.00     0.118 A 
HETATM   10  N   UNL     1      43.880 -18.086   6.180  1.00  0.00    -0.232 NA
HETATM   11  C   UNL     1      43.864 -18.924   5.092  1.00  0.00     0.085 A 
HETATM   12  C   UNL     1      43.804 -18.199   3.908  1.00  0.00     0.062 A 
HETATM   13  C   UNL     1      43.895 -20.325   5.035  1.00  0.00     0.034 A 
HETATM   14  N   UNL     1      43.781 -16.891   4.316  1.00  0.00    -0.342 N 
HETATM   15  C   UNL     1      43.775 -18.792   2.645  1.00  0.00     0.032 A 
HETATM   16  H   UNL     1      43.749 -16.081   3.712  1.00  0.00     0.167 HD
HETATM   17  C   UNL     1      43.805 -20.191   2.608  1.00  0.00     0.002 A 
HETATM   18  C   UNL     1      43.863 -20.948   3.781  1.00  0.00     0.002 A 
ENDBRANCH   7   9
ENDBRANCH   6   7
ENDBRANCH   5   6
ENDBRANCH   1   5
BRANCH   2  19
HETATM   19  C   UNL     1      40.856 -14.338   1.479  1.00  0.00     0.034 A 
HETATM   20  C   UNL     1      40.077 -15.079   0.589  1.00  0.00     0.030 A 
HETATM   21  C   UNL     1      39.727 -14.559  -0.665  1.00  0.00     0.019 A 
HETATM   22  C   UNL     1      40.142 -13.277  -1.038  1.00  0.00     0.032 A 
HETATM   23  C   UNL     1      40.951 -12.544  -0.162  1.00  0.00     0.019 A 
HETATM   24  C   UNL     1      41.306 -13.072   1.085  1.00  0.00     0.030 A 
BRANCH  22  25
HETATM   25  C   UNL     1      39.767 -12.656  -2.343  1.00  0.00     0.251 C 
HETATM   26  N   UNL     1      39.599 -11.286  -2.345  1.00  0.00    -0.353 N 
HETATM   27  H   UNL     1      39.900 -10.767  -1.532  1.00  0.00     0.163 HD
HETATM   28  O   UNL     1      39.665 -13.361  -3.341  1.00  0.00    -0.268 OA
BRANCH  26  29
HETATM   29  C   UNL     1      39.346 -10.497  -3.547  1.00  0.00     0.076 C 
HETATM   30  C   UNL     1      37.987  -9.805  -3.495  1.00  0.00     0.032 C 
HETATM   31  C   UNL     1      40.469  -9.513  -3.864  1.00  0.00     0.032 C 
ENDBRANCH  26  29
ENDBRANCH  22  25
ENDBRANCH   2  19
TORSDOF 7
ENDMDL
MODEL 4
REMARK VINA RESULT:      -7.4      2.670      9.513
REMARK  7 active torsions:
REMARK  status: ('A' for Active; 'I' for Inactive)
REMARK    1  A    between atoms: C_2  and  S_3 
REMARK    2  A    between atoms: C_2  and  C_20 
REMARK    3  A    between atoms: S_3  and  C_4 
REMARK    4  A    between atoms: C_4  and  C_5 
REMARK       I    between atoms: C_5  and  N_6 
REMARK    5  A    between atoms: N_6  and  C_7 
REMARK    6  A    between atoms: C_10  and  C_11 
REMARK       I    between atoms: C_11  and  N_12 
REMARK    7  A    between atoms: N_12  and  C_13 
ROOT
HETATM    1  C   UNL     1      42.386 -11.128   6.159  1.00  0.00     0.231 C 
HETATM    2  N   UNL     1      41.780 -12.375   6.172  1.00  0.00    -0.327 N 
HETATM    3  O   UNL     1      43.320 -10.785   5.438  1.00  0.00    -0.272 OA
HETATM    4  H   UNL     1      41.021 -12.507   6.831  1.00  0.00     0.169 HD
ENDROOT
BRANCH   1   5
HETATM    5  C   UNL     1      41.789 -10.158   7.170  1.00  0.00     0.177 C 
BRANCH   5   6
HETATM    6  S   UNL     1      43.102  -9.079   7.829  1.00  0.00    -0.147 SA
BRANCH   6   7
HETATM    7  C   UNL     1      43.732 -10.197   9.137  1.00  0.00     0.113 C 
HETATM    8  C   UNL     1      45.250 -10.316   9.021  1.00  0.00     0.029 C 
BRANCH   7   9
HETATM    9  C   UNL     1      43.308  -9.713  10.489  1.00  0.00     0.118 A 
HETATM   10  N   UNL     1      43.866  -8.738  11.180  1.00  0.00    -0.232 NA
HETATM   11  C   UNL     1      43.128  -8.629  12.334  1.00  0.00     0.085 A 
HETATM   12  C   UNL     1      42.113  -9.578  12.365  1.00  0.00     0.062 A 
HETATM   13  C   UNL     1      43.264  -7.738  13.408  1.00  0.00     0.034 A 
HETATM   14  N   UNL     1      42.258 -10.264  11.187  1.00  0.00    -0.342 N 
HETATM   15  C   UNL     1      41.208  -9.700  13.420  1.00  0.00     0.032 A 
HETATM   16  H   UNL     1      41.690 -11.041  10.878  1.00  0.00     0.167 HD
HETATM   17  C   UNL     1      41.357  -8.800  14.482  1.00  0.00     0.002 A 
HETATM   18  C   UNL     1      42.366  -7.834  14.479  1.00  0.00     0.002 A 
ENDBRANCH   7   9
ENDBRANCH   6   7
ENDBRANCH   5   6
ENDBRANCH   1   5
BRANCH   2  19
HETATM   19  C   UNL     1      42.123 -13.502   5.394  1.00  0.00     0.034 A 
HETATM   20  C   UNL     1      41.867 -13.613   4.026  1.00  0.00     0.030 A 
HETATM   21  C   UNL     1      42.266 -14.751   3.312  1.00  0.00     0.019 A 
HETATM   22  C   UNL     1      42.943 -15.789   3.958  1.00  0.00     0.032 A 
HETATM   23  C   UNL     1      43.172 -15.696   5.336  1.00  0.00     0.019 A 
HETATM   24  C   UNL     1      42.763 -14.562   6.047  1.00  0.00     0.030 A 
BRANCH  22  25
HETATM   25  C   UNL     1      43.427 -17.007   3.240  1.00  0.00     0.251 C 
HETATM   26  N   UNL     1      43.649 -18.128   4.015  1.00  0.00    -0.353 N 
HETATM   27  H   UNL     1      43.316 -18.122   4.969  1.00  0.00     0.163 HD
HETATM   28  O   UNL     1      43.565 -16.976   2.023  1.00  0.00    -0.268 OA
BRANCH  26  29
HETATM   29  C   UNL     1      44.010 -19.434   3.473  1.00  0.00     0.076 C 
HETATM   30  C   UNL     1      44.118 -20.492   4.568  1.00  0.00     0.032 C 
HETATM   31  C   UNL     1      43.093 -19.886   2.340  1.00  0.00     0.032 C 
ENDBRANCH  26  29
ENDBRANCH  22  25
ENDBRANCH   2  19
TORSDOF 7
ENDMDL
MODEL 5
REMARK VINA RESULT:      -7.3      3.189      7.823
REMARK  7 active torsions:
REMARK  status: ('A' for Active; 'I' for Inactive)
REMARK    1  A    between atoms: C_2  and  S_3 
REMARK    2  A    between atoms: C_2  and  C_20 
REMARK    3  A    between atoms: S_3  and  C_4 
REMARK    4  A    between atoms: C_4  and  C_5 
REMARK       I    between atoms: C_5  and  N_6 
REMARK    5  A    between atoms: N_6  and  C_7 
REMARK    6  A    between atoms: C_10  and  C_11 
REMARK       I    between atoms: C_11  and  N_12 
REMARK    7  A    between atoms: N_12  and  C_13 
ROOT
HETATM    1  C   UNL     1      43.259 -12.158   4.168  1.00  0.00     0.231 C 
HETATM    2  N   UNL     1      42.102 -12.837   3.816  1.00  0.00    -0.327 N 
HETATM    3  O   UNL     1      43.881 -11.370   3.459  1.00  0.00    -0.272 OA
HETATM    4  H   UNL     1      41.708 -13.459   4.511  1.00  0.00     0.169 HD
ENDROOT
BRANCH   1   5
HETATM    5  C   UNL     1      43.745 -12.486   5.575  1.00  0.00     0.177 C 
BRANCH   5   6
HETATM    6  S   UNL     1      42.497 -13.504   6.429  1.00  0.00    -0.147 SA
BRANCH   6   7
HETATM    7  C   UNL     1      43.557 -14.946   6.821  1.00  0.00     0.113 C 
HETATM    8  C   UNL     1      43.139 -15.538   8.165  1.00  0.00     0.029 C 
BRANCH   7   9
HETATM    9  C   UNL     1      43.494 -15.957   5.718  1.00  0.00     0.118 A 
HETATM   10  N   UNL     1      42.823 -15.841   4.588  1.00  0.00    -0.232 NA
HETATM   11  C   UNL     1      43.085 -16.987   3.879  1.00  0.00     0.085 A 
HETATM   12  C   UNL     1      43.912 -17.839   4.601  1.00  0.00     0.062 A 
HETATM   13  C   UNL     1      42.651 -17.374   2.602  1.00  0.00     0.034 A 
HETATM   14  N   UNL     1      44.146 -17.168   5.772  1.00  0.00    -0.342 N 
HETATM   15  C   UNL     1      44.342 -19.079   4.124  1.00  0.00     0.032 A 
HETATM   16  H   UNL     1      44.705 -17.500   6.546  1.00  0.00     0.167 HD
HETATM   17  C   UNL     1      43.901 -19.446   2.847  1.00  0.00     0.002 A 
HETATM   18  C   UNL     1      43.071 -18.610   2.096  1.00  0.00     0.002 A 
ENDBRANCH   7   9
ENDBRANCH   6   7
ENDBRANCH   5   6
ENDBRANCH   1   5
BRANCH   2  19
HETATM   19  C   UNL     1      41.425 -12.788   2.578  1.00  0.00     0.034 A 
HETATM   20  C   UNL     1      41.088 -11.604   1.919  1.00  0.00     0.030 A 
HETATM   21  C   UNL     1      40.443 -11.635   0.675  1.00  0.00     0.019 A 
HETATM   22  C   UNL     1      40.140 -12.856   0.066  1.00  0.00     0.032 A 
HETATM   23  C   UNL     1      40.446 -14.044   0.740  1.00  0.00     0.019 A 
HETATM   24  C   UNL     1      41.081 -14.009   1.987  1.00  0.00     0.030 A 
BRANCH  22  25
HETATM   25  C   UNL     1      39.489 -12.949  -1.275  1.00  0.00     0.251 C 
HETATM   26  N   UNL     1      38.336 -13.705  -1.347  1.00  0.00    -0.353 N 
HETATM   27  H   UNL     1      37.907 -14.003  -0.482  1.00  0.00     0.163 HD
HETATM   28  O   UNL     1      39.967 -12.336  -2.223  1.00  0.00    -0.268 OA
BRANCH  26  29
HETATM   29  C   UNL     1      37.506 -13.815  -2.542  1.00  0.00     0.076 C 
HETATM   30  C   UNL     1      36.981 -12.455  -2.994  1.00  0.00     0.032 C 
HETATM   31  C   UNL     1      38.196 -14.561  -3.682  1.00  0.00     0.032 C 
ENDBRANCH  26  29
ENDBRANCH  22  25
ENDBRANCH   2  19
TORSDOF 7
ENDMDL
MODEL 6
REMARK VINA RESULT:      -7.3      2.943      9.848
REMARK  7 active torsions:
REMARK  status: ('A' for Active; 'I' for Inactive)
REMARK    1  A    between atoms: C_2  and  S_3 
REMARK    2  A    between atoms: C_2  and  C_20 
REMARK    3  A    between atoms: S_3  and  C_4 
REMARK    4  A    between atoms: C_4  and  C_5 
REMARK       I    between atoms: C_5  and  N_6 
REMARK    5  A    between atoms: N_6  and  C_7 
REMARK    6  A    between atoms: C_10  and  C_11 
REMARK       I    between atoms: C_11  and  N_12 
REMARK    7  A    between atoms: N_12  and  C_13 
ROOT
HETATM    1  C   UNL     1      44.717 -11.043   6.842  1.00  0.00     0.231 C 
HETATM    2  N   UNL     1      43.586 -11.843   6.771  1.00  0.00    -0.327 N 
HETATM    3  O   UNL     1      45.826 -11.316   6.392  1.00  0.00    -0.272 OA
HETATM    4  H   UNL     1      42.742 -11.480   7.197  1.00  0.00     0.169 HD
ENDROOT
BRANCH   1   5
HETATM    5  C   UNL     1      44.478  -9.728   7.574  1.00  0.00     0.177 C 
BRANCH   5   6
HETATM    6  S   UNL     1      43.031  -9.894   8.671  1.00  0.00    -0.147 SA
BRANCH   6   7
HETATM    7  C   UNL     1      43.915 -10.360  10.206  1.00  0.00     0.113 C 
HETATM    8  C   UNL     1      45.395 -10.005  10.073  1.00  0.00     0.029 C 
BRANCH   7   9
HETATM    9  C   UNL     1      43.285  -9.702  11.394  1.00  0.00     0.118 A 
HETATM   10  N   UNL     1      42.146 -10.046  11.965  1.00  0.00    -0.232 NA
HETATM   11  C   UNL     1      41.988  -9.189  13.027  1.00  0.00     0.085 A 
HETATM   12  C   UNL     1      43.037  -8.281  13.092  1.00  0.00     0.062 A 
HETATM   13  C   UNL     1      40.968  -9.127  13.987  1.00  0.00     0.034 A 
HETATM   14  N   UNL     1      43.841  -8.618  12.035  1.00  0.00    -0.342 N 
HETATM   15  C   UNL     1      43.137  -7.292  14.072  1.00  0.00     0.032 A 
HETATM   16  H   UNL     1      44.699  -8.155  11.769  1.00  0.00     0.167 HD
HETATM   17  C   UNL     1      42.111  -7.246  15.024  1.00  0.00     0.002 A 
HETATM   18  C   UNL     1      41.044  -8.147  14.986  1.00  0.00     0.002 A 
ENDBRANCH   7   9
ENDBRANCH   6   7
ENDBRANCH   5   6
ENDBRANCH   1   5
BRANCH   2  19
HETATM   19  C   UNL     1      43.484 -13.131   6.202  1.00  0.00     0.034 A 
HETATM   20  C   UNL     1      43.810 -14.310   6.875  1.00  0.00     0.030 A 
HETATM   21  C   UNL     1      43.653 -15.557   6.254  1.00  0.00     0.019 A 
HETATM   22  C   UNL     1      43.150 -15.640   4.953  1.00  0.00     0.032 A 
HETATM   23  C   UNL     1      42.853 -14.458   4.264  1.00  0.00     0.019 A 
HETATM   24  C   UNL     1      43.022 -13.215   4.884  1.00  0.00     0.030 A 
BRANCH  22  25
HETATM   25  C   UNL     1      42.924 -16.942   4.257  1.00  0.00     0.251 C 
HETATM   26  N   UNL     1      43.810 -17.959   4.554  1.00  0.00    -0.353 N 
HETATM   27  H   UNL     1      44.439 -17.830   5.334  1.00  0.00     0.163 HD
HETATM   28  O   UNL     1      41.966 -17.066   3.503  1.00  0.00    -0.268 OA
BRANCH  26  29
HETATM   29  C   UNL     1      43.677 -19.326   4.060  1.00  0.00     0.076 C 
HETATM   30  C   UNL     1      44.267 -19.482   2.661  1.00  0.00     0.032 C 
HETATM   31  C   UNL     1      44.234 -20.367   5.027  1.00  0.00     0.032 C 
ENDBRANCH  26  29
ENDBRANCH  22  25
ENDBRANCH   2  19
TORSDOF 7
ENDMDL
MODEL 7
REMARK VINA RESULT:      -7.2      2.796      4.664
REMARK  7 active torsions:
REMARK  status: ('A' for Active; 'I' for Inactive)
REMARK    1  A    between atoms: C_2  and  S_3 
REMARK    2  A    between atoms: C_2  and  C_20 
REMARK    3  A    between atoms: S_3  and  C_4 
REMARK    4  A    between atoms: C_4  and  C_5 
REMARK       I    between atoms: C_5  and  N_6 
REMARK    5  A    between atoms: N_6  and  C_7 
REMARK    6  A    between atoms: C_10  and  C_11 
REMARK       I    between atoms: C_11  and  N_12 
REMARK    7  A    between atoms: N_12  and  C_13 
ROOT
HETATM    1  C   UNL     1      44.855 -11.100   7.529  1.00  0.00     0.231 C 
HETATM    2  N   UNL     1      43.685 -11.017   8.268  1.00  0.00    -0.327 N 
HETATM    3  O   UNL     1      45.842 -10.377   7.651  1.00  0.00    -0.272 OA
HETATM    4  H   UNL     1      42.956 -11.684   8.046  1.00  0.00     0.169 HD
ENDROOT
BRANCH   1   5
HETATM    5  C   UNL     1      44.829 -12.208   6.483  1.00  0.00     0.177 C 
BRANCH   5   6
HETATM    6  S   UNL     1      43.559 -13.438   6.928  1.00  0.00    -0.147 SA
BRANCH   6   7
HETATM    7  C   UNL     1      42.720 -13.551   5.304  1.00  0.00     0.113 C 
HETATM    8  C   UNL     1      43.221 -12.434   4.390  1.00  0.00     0.029 C 
BRANCH   7   9
HETATM    9  C   UNL     1      42.925 -14.905   4.701  1.00  0.00     0.118 A 
HETATM   10  N   UNL     1      42.484 -15.313   3.526  1.00  0.00    -0.232 NA
HETATM   11  C   UNL     1      42.937 -16.602   3.385  1.00  0.00     0.085 A 
HETATM   12  C   UNL     1      43.647 -17.005   4.510  1.00  0.00     0.062 A 
HETATM   13  C   UNL     1      42.782 -17.497   2.316  1.00  0.00     0.034 A 
HETATM   14  N   UNL     1      43.612 -15.913   5.338  1.00  0.00    -0.342 N 
HETATM   15  C   UNL     1      44.223 -18.270   4.642  1.00  0.00     0.032 A 
HETATM   16  H   UNL     1      44.024 -15.853   6.258  1.00  0.00     0.167 HD
HETATM   17  C   UNL     1      44.060 -19.149   3.565  1.00  0.00     0.002 A 
HETATM   18  C   UNL     1      43.353 -18.772   2.420  1.00  0.00     0.002 A 
ENDBRANCH   7   9
ENDBRANCH   6   7
ENDBRANCH   5   6
ENDBRANCH   1   5
BRANCH   2  19
HETATM   19  C   UNL     1      43.376 -10.080   9.277  1.00  0.00     0.034 A 
HETATM   20  C   UNL     1      43.884 -10.135  10.577  1.00  0.00     0.030 A 
HETATM   21  C   UNL     1      43.556  -9.149  11.518  1.00  0.00     0.019 A 
HETATM   22  C   UNL     1      42.725  -8.082  11.164  1.00  0.00     0.032 A 
HETATM   23  C   UNL     1      42.187  -8.042   9.872  1.00  0.00     0.019 A 
HETATM   24  C   UNL     1      42.509  -9.034   8.938  1.00  0.00     0.030 A 
BRANCH  22  25
HETATM   25  C   UNL     1      42.375  -6.983  12.112  1.00  0.00     0.251 C 
HETATM   26  N   UNL     1      41.986  -7.367  13.380  1.00  0.00    -0.353 N 
HETATM   27  H   UNL     1      42.123  -8.331  13.649  1.00  0.00     0.163 HD
HETATM   28  O   UNL     1      42.482  -5.817  11.751  1.00  0.00    -0.268 OA
BRANCH  26  29
HETATM   29  C   UNL     1      41.719  -6.433  14.469  1.00  0.00     0.076 C 
HETATM   30  C   UNL     1      40.224  -6.186  14.650  1.00  0.00     0.032 C 
HETATM   31  C   UNL     1      42.388  -6.836  15.780  1.00  0.00     0.032 C 
ENDBRANCH  26  29
ENDBRANCH  22  25
ENDBRANCH   2  19
TORSDOF 7
ENDMDL
MODEL 8
REMARK VINA RESULT:      -7.1      2.865      8.046
REMARK  7 active torsions:
REMARK  status: ('A' for Active; 'I' for Inactive)
REMARK    1  A    between atoms: C_2  and  S_3 
REMARK    2  A    between atoms: C_2  and  C_20 
REMARK    3  A    between atoms: S_3  and  C_4 
REMARK    4  A    between atoms: C_4  and  C_5 
REMARK       I    between atoms: C_5  and  N_6 
REMARK    5  A    between atoms: N_6  and  C_7 
REMARK    6  A    between atoms: C_10  and  C_11 
REMARK       I    between atoms: C_11  and  N_12 
REMARK    7  A    between atoms: N_12  and  C_13 
ROOT
HETATM    1  C   UNL     1      40.013 -12.087   5.121  1.00  0.00     0.231 C 
HETATM    2  N   UNL     1      39.971 -13.409   5.537  1.00  0.00    -0.327 N 
HETATM    3  O   UNL     1      40.901 -11.567   4.450  1.00  0.00    -0.272 OA
HETATM    4  H   UNL     1      39.170 -13.688   6.092  1.00  0.00     0.169 HD
ENDROOT
BRANCH   1   5
HETATM    5  C   UNL     1      38.817 -11.269   5.594  1.00  0.00     0.177 C 
BRANCH   5   6
HETATM    6  S   UNL     1      39.107 -10.695   7.300  1.00  0.00    -0.147 SA
BRANCH   6   7
HETATM    7  C   UNL     1      40.035  -9.164   6.910  1.00  0.00     0.113 C 
HETATM    8  C   UNL     1      39.370  -7.973   7.596  1.00  0.00     0.029 C 
BRANCH   7   9
HETATM    9  C   UNL     1      41.472  -9.309   7.303  1.00  0.00     0.118 A 
HETATM   10  N   UNL     1      42.256  -8.353   7.766  1.00  0.00    -0.232 NA
HETATM   11  C   UNL     1      43.466  -8.952   8.016  1.00  0.00     0.085 A 
HETATM   12  C   UNL     1      43.434 -10.298   7.672  1.00  0.00     0.062 A 
HETATM   13  C   UNL     1      44.647  -8.408   8.543  1.00  0.00     0.034 A 
HETATM   14  N   UNL     1      42.160 -10.496   7.207  1.00  0.00    -0.342 N 
HETATM   15  C   UNL     1      44.527 -11.155   7.820  1.00  0.00     0.032 A 
HETATM   16  H   UNL     1      41.785 -11.367   6.857  1.00  0.00     0.167 HD
HETATM   17  C   UNL     1      45.696 -10.595   8.350  1.00  0.00     0.002 A 
HETATM   18  C   UNL     1      45.758  -9.245   8.707  1.00  0.00     0.002 A 
ENDBRANCH   7   9
ENDBRANCH   6   7
ENDBRANCH   5   6
ENDBRANCH   1   5
BRANCH   2  19
HETATM   19  C   UNL     1      40.939 -14.409   5.305  1.00  0.00     0.034 A 
HETATM   20  C   UNL     1      42.113 -14.547   6.048  1.00  0.00     0.030 A 
HETATM   21  C   UNL     1      43.014 -15.587   5.780  1.00  0.00     0.019 A 
HETATM   22  C   UNL     1      42.742 -16.515   4.771  1.00  0.00     0.032 A 
HETATM   23  C   UNL     1      41.582 -16.361   4.002  1.00  0.00     0.019 A 
HETATM   24  C   UNL     1      40.690 -15.314   4.267  1.00  0.00     0.030 A 
BRANCH  22  25
HETATM   25  C   UNL     1      43.645 -17.665   4.467  1.00  0.00     0.251 C 
HETATM   26  N   UNL     1      43.149 -18.625   3.607  1.00  0.00    -0.353 N 
HETATM   27  H   UNL     1      42.297 -18.420   3.105  1.00  0.00     0.163 HD
HETATM   28  O   UNL     1      44.773 -17.691   4.946  1.00  0.00    -0.268 OA
BRANCH  26  29
HETATM   29  C   UNL     1      43.928 -19.754   3.109  1.00  0.00     0.076 C 
HETATM   30  C   UNL     1      43.976 -20.898   4.119  1.00  0.00     0.032 C 
HETATM   31  C   UNL     1      43.472 -20.234   1.734  1.00  0.00     0.032 C 
ENDBRANCH  26  29
ENDBRANCH  22  25
ENDBRANCH   2  19
TORSDOF 7
ENDMDL
MODEL 9
REMARK VINA RESULT:      -7.1      4.416      6.836
REMARK  7 active torsions:
REMARK  status: ('A' for Active; 'I' for Inactive)
REMARK    1  A    between atoms: C_2  and  S_3 
REMARK    2  A    between atoms: C_2  and  C_20 
REMARK    3  A    between atoms: S_3  and  C_4 
REMARK    4  A    between atoms: C_4  and  C_5 
REMARK       I    between atoms: C_5  and  N_6 
REMARK    5  A    between atoms: N_6  and  C_7 
REMARK    6  A    between atoms: C_10  and  C_11 
REMARK       I    between atoms: C_11  and  N_12 
REMARK    7  A    between atoms: N_12  and  C_13 
ROOT
HETATM    1  C   UNL     1      39.302 -13.718  -1.187  1.00  0.00     0.231 C 
HETATM    2  N   UNL     1      39.422 -13.881   0.185  1.00  0.00    -0.327 N 
HETATM    3  O   UNL     1      40.040 -14.203  -2.041  1.00  0.00    -0.272 OA
HETATM    4  H   UNL     1      38.735 -13.411   0.763  1.00  0.00     0.169 HD
ENDROOT
BRANCH   1   5
HETATM    5  C   UNL     1      38.130 -12.831  -1.587  1.00  0.00     0.177 C 
BRANCH   5   6
HETATM    6  S   UNL     1      38.754 -11.216  -2.160  1.00  0.00    -0.147 SA
BRANCH   6   7
HETATM    7  C   UNL     1      38.237 -10.208  -0.720  1.00  0.00     0.113 C 
HETATM    8  C   UNL     1      36.743 -10.401  -0.470  1.00  0.00     0.029 C 
BRANCH   7   9
HETATM    9  C   UNL     1      39.058 -10.553   0.483  1.00  0.00     0.118 A 
HETATM   10  N   UNL     1      38.622 -11.131   1.587  1.00  0.00    -0.232 NA
HETATM   11  C   UNL     1      39.726 -11.277   2.392  1.00  0.00     0.085 A 
HETATM   12  C   UNL     1      40.858 -10.750   1.782  1.00  0.00     0.062 A 
HETATM   13  C   UNL     1      39.840 -11.854   3.665  1.00  0.00     0.034 A 
HETATM   14  N   UNL     1      40.404 -10.284   0.576  1.00  0.00    -0.342 N 
HETATM   15  C   UNL     1      42.123 -10.760   2.372  1.00  0.00     0.032 A 
HETATM   16  H   UNL     1      40.961  -9.823  -0.130  1.00  0.00     0.167 HD
HETATM   17  C   UNL     1      42.218 -11.343   3.642  1.00  0.00     0.002 A 
HETATM   18  C   UNL     1      41.098 -11.882   4.279  1.00  0.00     0.002 A 
ENDBRANCH   7   9
ENDBRANCH   6   7
ENDBRANCH   5   6
ENDBRANCH   1   5
BRANCH   2  19
HETATM   19  C   UNL     1      40.419 -14.601   0.877  1.00  0.00     0.034 A 
HETATM   20  C   UNL     1      41.733 -14.157   1.040  1.00  0.00     0.030 A 
HETATM   21  C   UNL     1      42.661 -14.914   1.768  1.00  0.00     0.019 A 
HETATM   22  C   UNL     1      42.280 -16.122   2.358  1.00  0.00     0.032 A 
HETATM   23  C   UNL     1      40.973 -16.587   2.169  1.00  0.00     0.019 A 
HETATM   24  C   UNL     1      40.052 -15.833   1.432  1.00  0.00     0.030 A 
BRANCH  22  25
HETATM   25  C   UNL     1      43.215 -16.950   3.177  1.00  0.00     0.251 C 
HETATM   26  N   UNL     1      43.420 -16.537   4.479  1.00  0.00    -0.353 N 
HETATM   27  H   UNL     1      42.813 -15.822   4.854  1.00  0.00     0.163 HD
HETATM   28  O   UNL     1      43.716 -17.957   2.690  1.00  0.00    -0.268 OA
BRANCH  26  29
HETATM   29  C   UNL     1      44.206 -17.283   5.456  1.00  0.00     0.076 C 
HETATM   30  C   UNL     1      44.829 -16.364   6.504  1.00  0.00     0.032 C 
HETATM   31  C   UNL     1      43.429 -18.428   6.100  1.00  0.00     0.032 C 
ENDBRANCH  26  29
ENDBRANCH  22  25
ENDBRANCH   2  19
TORSDOF 7
ENDMDL
MODEL 10
REMARK VINA RESULT:      -6.9      4.089      7.549
REMARK  7 active torsions:
REMARK  status: ('A' for Active; 'I' for Inactive)
REMARK    1  A    between atoms: C_2  and  S_3 
REMARK    2  A    between atoms: C_2  and  C_20 
REMARK    3  A    between atoms: S_3  and  C_4 
REMARK    4  A    between atoms: C_4  and  C_5 
REMARK       I    between atoms: C_5  and  N_6 
REMARK    5  A    between atoms: N_6  and  C_7 
REMARK    6  A    between atoms: C_10  and  C_11 
REMARK       I    between atoms: C_11  and  N_12 
REMARK    7  A    between atoms: N_12  and  C_13 
ROOT
HETATM    1  C   UNL     1      39.927 -12.011   3.280  1.00  0.00     0.231 C 
HETATM    2  N   UNL     1      39.993 -13.075   4.166  1.00  0.00    -0.327 N 
HETATM    3  O   UNL     1      40.680 -11.814   2.328  1.00  0.00    -0.272 OA
HETATM    4  H   UNL     1      39.301 -13.097   4.906  1.00  0.00     0.169 HD
ENDROOT
BRANCH   1   5
HETATM    5  C   UNL     1      38.800 -11.035   3.592  1.00  0.00     0.177 C 
BRANCH   5   6
HETATM    6  S   UNL     1      38.930  -9.582   2.499  1.00  0.00    -0.147 SA
BRANCH   6   7
HETATM    7  C   UNL     1      37.726 -10.104   1.221  1.00  0.00     0.113 C 
HETATM    8  C   UNL     1      37.050  -8.873   0.621  1.00  0.00     0.029 C 
BRANCH   7   9
HETATM    9  C   UNL     1      38.399 -10.940   0.178  1.00  0.00     0.118 A 
HETATM   10  N   UNL     1      39.207 -10.505  -0.770  1.00  0.00    -0.232 NA
HETATM   11  C   UNL     1      39.603 -11.623  -1.464  1.00  0.00     0.085 A 
HETATM   12  C   UNL     1      39.003 -12.765  -0.949  1.00  0.00     0.062 A 
HETATM   13  C   UNL     1      40.481 -11.742  -2.551  1.00  0.00     0.034 A 
HETATM   14  N   UNL     1      38.230 -12.303   0.084  1.00  0.00    -0.342 N 
HETATM   15  C   UNL     1      39.223 -14.046  -1.460  1.00  0.00     0.032 A 
HETATM   16  H   UNL     1      37.639 -12.864   0.681  1.00  0.00     0.167 HD
HETATM   17  C   UNL     1      40.104 -14.146  -2.543  1.00  0.00     0.002 A 
HETATM   18  C   UNL     1      40.725 -13.016  -3.081  1.00  0.00     0.002 A 
ENDBRANCH   7   9
ENDBRANCH   6   7
ENDBRANCH   5   6
ENDBRANCH   1   5
BRANCH   2  19
HETATM   19  C   UNL     1      40.940 -14.122   4.178  1.00  0.00     0.034 A 
HETATM   20  C   UNL     1      42.202 -14.025   4.768  1.00  0.00     0.030 A 
HETATM   21  C   UNL     1      43.079 -15.119   4.769  1.00  0.00     0.019 A 
HETATM   22  C   UNL     1      42.696 -16.333   4.191  1.00  0.00     0.032 A 
HETATM   23  C   UNL     1      41.444 -16.422   3.570  1.00  0.00     0.019 A 
HETATM   24  C   UNL     1      40.576 -15.324   3.562  1.00  0.00     0.030 A 
BRANCH  22  25
HETATM   25  C   UNL     1      43.572 -17.542   4.197  1.00  0.00     0.251 C 
HETATM   26  N   UNL     1      43.223 -18.558   3.329  1.00  0.00    -0.353 N 
HETATM   27  H   UNL     1      42.518 -18.367   2.631  1.00  0.00     0.163 HD
HETATM   28  O   UNL     1      44.561 -17.568   4.920  1.00  0.00    -0.268 OA
BRANCH  26  29
HETATM   29  C   UNL     1      44.023 -19.759   3.117  1.00  0.00     0.076 C 
HETATM   30  C   UNL     1      43.902 -20.734   4.285  1.00  0.00     0.032 C 
HETATM   31  C   UNL     1      43.736 -20.440   1.781  1.00  0.00     0.032 C 
ENDBRANCH  26  29
ENDBRANCH  22  25
ENDBRANCH   2  19
TORSDOF 7
ENDMDL
