MODEL 1
REMARK VINA RESULT:      -9.5      0.000      0.000
REMARK  7 active torsions:
REMARK  status: ('A' for Active; 'I' for Inactive)
REMARK       I    between atoms: C_2  and  N_3 
REMARK    1  A    between atoms: N_3  and  C_4 
REMARK    2  A    between atoms: C_7  and  N_8 
REMARK       I    between atoms: N_8  and  C_9 
REMARK    3  A    between atoms: C_9  and  C_10 
REMARK    4  A    between atoms: C_10  and  S_11 
REMARK    5  A    between atoms: S_11  and  C_12 
REMARK    6  A    between atoms: N_13  and  N_14 
REMARK    7  A    between atoms: C_20  and  C_21 
ROOT
HETATM    1  C   UNL     1      43.280 -11.137   5.533  1.00  0.00     0.206 A 
HETATM    2  N   UNL     1      42.888 -10.464   6.664  1.00  0.00    -0.234 N 
HETATM    3  C   UNL     1      43.846 -10.767   7.609  1.00  0.00     0.197 A 
HETATM    4  C   UNL     1      43.915 -10.297   8.950  1.00  0.00     0.101 A 
HETATM    5  N   UNL     1      45.069 -10.357   9.674  1.00  0.00    -0.274 N 
HETATM    6  H   UNL     1      45.968 -10.719   9.372  1.00  0.00     0.189 HD
HETATM    7  N   UNL     1      44.961  -9.857  10.916  1.00  0.00    -0.174 NA
HETATM    8  C   UNL     1      43.669  -9.506  11.027  1.00  0.00     0.089 A 
HETATM    9  C   UNL     1      42.983  -9.750   9.803  1.00  0.00     0.069 A 
HETATM   10  N   UNL     1      44.749 -11.568   7.068  1.00  0.00    -0.125 NA
HETATM   11  N   UNL     1      44.374 -11.826   5.770  1.00  0.00    -0.121 NA
ENDROOT
BRANCH   1  12
HETATM   12  S   UNL     1      42.455 -11.003   4.018  1.00  0.00    -0.080 SA
BRANCH  12  13
HETATM   13  C   UNL     1      40.922 -11.912   4.376  1.00  0.00     0.185 C 
BRANCH  13  14
HETATM   14  C   UNL     1      41.038 -13.362   3.921  1.00  0.00     0.231 C 
HETATM   15  N   UNL     1      42.220 -13.960   4.323  1.00  0.00    -0.327 N 
HETATM   16  H   UNL     1      42.916 -13.343   4.739  1.00  0.00     0.169 HD
HETATM   17  O   UNL     1      40.152 -13.884   3.250  1.00  0.00    -0.272 OA
BRANCH  15  18
HETATM   18  C   UNL     1      42.671 -15.264   4.044  1.00  0.00     0.034 A 
HETATM   19  C   UNL     1      43.021 -15.720   2.776  1.00  0.00     0.032 A 
HETATM   20  C   UNL     1      43.501 -17.027   2.593  1.00  0.00     0.032 A 
HETATM   21  C   UNL     1      43.636 -17.895   3.674  1.00  0.00     0.034 A 
HETATM   22  C   UNL     1      43.235 -17.450   4.938  1.00  0.00     0.032 A 
HETATM   23  C   UNL     1      42.771 -16.145   5.124  1.00  0.00     0.032 A 
BRANCH  21  24
HETATM   24  N   UNL     1      44.109 -19.215   3.595  1.00  0.00    -0.328 N 
HETATM   25  C   UNL     1      43.714 -20.305   2.878  1.00  0.00     0.218 C 
HETATM   26  C   UNL     1      42.689 -20.194   1.786  1.00  0.00     0.117 C 
HETATM   27  O   UNL     1      44.258 -21.388   3.113  1.00  0.00    -0.274 OA
HETATM   28  H   UNL     1      44.922 -19.436   4.159  1.00  0.00     0.169 HD
ENDBRANCH  21  24
ENDBRANCH  15  18
ENDBRANCH  13  14
ENDBRANCH  12  13
ENDBRANCH   1  12
BRANCH   2  29
HETATM   29  N   UNL     1      41.769  -9.564   6.800  1.00  0.00    -0.239 NA
HETATM   30  H   UNL     1      40.928 -10.084   7.052  1.00  0.00     0.143 HD
HETATM   31  H   UNL     1      41.554  -9.134   5.900  1.00  0.00     0.143 HD
ENDBRANCH   2  29
BRANCH   8  32
HETATM   32  C   UNL     1      43.125  -8.964  12.277  1.00  0.00    -0.006 A 
HETATM   33  C   UNL     1      43.623  -7.763  12.806  1.00  0.00     0.015 A 
HETATM   34  C   UNL     1      43.118  -7.244  14.002  1.00  0.00     0.024 A 
HETATM   35  C   UNL     1      42.114  -7.927  14.683  1.00  0.00     0.034 A 
HETATM   36 CL   UNL     1      41.496  -7.298  16.159  1.00  0.00    -0.084 Cl
HETATM   37  C   UNL     1      41.609  -9.122  14.174  1.00  0.00     0.024 A 
HETATM   38  C   UNL     1      42.112  -9.638  12.976  1.00  0.00     0.015 A 
ENDBRANCH   8  32
TORSDOF 7
ENDMDL
MODEL 2
REMARK VINA RESULT:      -9.5      4.938     11.717
REMARK  7 active torsions:
REMARK  status: ('A' for Active; 'I' for Inactive)
REMARK       I    between atoms: C_2  and  N_3 
REMARK    1  A    between atoms: N_3  and  C_4 
REMARK    2  A    between atoms: C_7  and  N_8 
REMARK       I    between atoms: N_8  and  C_9 
REMARK    3  A    between atoms: C_9  and  C_10 
REMARK    4  A    between atoms: C_10  and  S_11 
REMARK    5  A    between atoms: S_11  and  C_12 
REMARK    6  A    between atoms: N_13  and  N_14 
REMARK    7  A    between atoms: C_20  and  C_21 
ROOT
HETATM    1  C   UNL     1      42.072 -10.248   5.980  1.00  0.00     0.206 A 
HETATM    2  N   UNL     1      42.429 -11.573   5.929  1.00  0.00    -0.234 N 
HETATM    3  C   UNL     1      42.440 -11.887   4.586  1.00  0.00     0.197 A 
HETATM    4  C   UNL     1      42.772 -13.139   3.994  1.00  0.00     0.101 A 
HETATM    5  N   UNL     1      43.104 -13.244   2.675  1.00  0.00    -0.274 N 
HETATM    6  H   UNL     1      43.154 -12.496   1.991  1.00  0.00     0.189 HD
HETATM    7  N   UNL     1      43.403 -14.494   2.286  1.00  0.00    -0.174 NA
HETATM    8  C   UNL     1      43.206 -15.245   3.383  1.00  0.00     0.089 A 
HETATM    9  C   UNL     1      42.828 -14.424   4.483  1.00  0.00     0.069 A 
HETATM   10  N   UNL     1      42.112 -10.813   3.887  1.00  0.00    -0.125 NA
HETATM   11  N   UNL     1      41.850  -9.790   4.769  1.00  0.00    -0.121 NA
ENDROOT
BRANCH   1  12
HETATM   12  S   UNL     1      42.012  -9.341   7.452  1.00  0.00    -0.080 SA
BRANCH  12  13
HETATM   13  C   UNL     1      43.655  -9.693   8.145  1.00  0.00     0.185 C 
BRANCH  13  14
HETATM   14  C   UNL     1      43.571  -9.898   9.653  1.00  0.00     0.231 C 
HETATM   15  N   UNL     1      42.794  -8.940  10.284  1.00  0.00    -0.327 N 
HETATM   16  H   UNL     1      42.497  -8.154   9.708  1.00  0.00     0.169 HD
HETATM   17  O   UNL     1      44.169 -10.822  10.198  1.00  0.00    -0.272 OA
BRANCH  15  18
HETATM   18  C   UNL     1      42.538  -8.801  11.661  1.00  0.00     0.034 A 
HETATM   19  C   UNL     1      43.258  -7.969  12.514  1.00  0.00     0.032 A 
HETATM   20  C   UNL     1      42.908  -7.860  13.869  1.00  0.00     0.032 A 
HETATM   21  C   UNL     1      41.836  -8.582  14.391  1.00  0.00     0.034 A 
HETATM   22  C   UNL     1      41.149  -9.455  13.542  1.00  0.00     0.032 A 
HETATM   23  C   UNL     1      41.486  -9.554  12.189  1.00  0.00     0.032 A 
BRANCH  21  24
HETATM   24  N   UNL     1      41.407  -8.537  15.727  1.00  0.00    -0.328 N 
HETATM   25  C   UNL     1      40.779  -7.584  16.472  1.00  0.00     0.218 C 
HETATM   26  C   UNL     1      40.217  -6.342  15.843  1.00  0.00     0.117 C 
HETATM   27  O   UNL     1      40.636  -7.789  17.681  1.00  0.00    -0.274 OA
HETATM   28  H   UNL     1      41.562  -9.374  16.278  1.00  0.00     0.169 HD
ENDBRANCH  21  24
ENDBRANCH  15  18
ENDBRANCH  13  14
ENDBRANCH  12  13
ENDBRANCH   1  12
BRANCH   2  29
HETATM   29  N   UNL     1      42.800 -12.421   7.036  1.00  0.00    -0.239 NA
HETATM   30  H   UNL     1      43.675 -12.096   7.449  1.00  0.00     0.143 HD
HETATM   31  H   UNL     1      42.999 -13.364   6.702  1.00  0.00     0.143 HD
ENDBRANCH   2  29
BRANCH   8  32
HETATM   32  C   UNL     1      43.372 -16.702   3.356  1.00  0.00    -0.006 A 
HETATM   33  C   UNL     1      43.925 -17.375   4.457  1.00  0.00     0.015 A 
HETATM   34  C   UNL     1      44.097 -18.762   4.437  1.00  0.00     0.024 A 
HETATM   35  C   UNL     1      43.723 -19.488   3.309  1.00  0.00     0.034 A 
HETATM   36 CL   UNL     1      43.941 -21.194   3.275  1.00  0.00    -0.084 Cl
HETATM   37  C   UNL     1      43.174 -18.838   2.206  1.00  0.00     0.024 A 
HETATM   38  C   UNL     1      42.999 -17.451   2.229  1.00  0.00     0.015 A 
ENDBRANCH   8  32
TORSDOF 7
ENDMDL
MODEL 3
REMARK VINA RESULT:      -9.5      4.997     11.818
REMARK  7 active torsions:
REMARK  status: ('A' for Active; 'I' for Inactive)
REMARK       I    between atoms: C_2  and  N_3 
REMARK    1  A    between atoms: N_3  and  C_4 
REMARK    2  A    between atoms: C_7  and  N_8 
REMARK       I    between atoms: N_8  and  C_9 
REMARK    3  A    between atoms: C_9  and  C_10 
REMARK    4  A    between atoms: C_10  and  S_11 
REMARK    5  A    between atoms: S_11  and  C_12 
REMARK    6  A    between atoms: N_13  and  N_14 
REMARK    7  A    between atoms: C_20  and  C_21 
ROOT
HETATM    1  C   UNL     1      43.499 -10.106   7.583  1.00  0.00     0.206 A 
HETATM    2  N   UNL     1      43.860 -11.247   6.910  1.00  0.00    -0.234 N 
HETATM    3  C   UNL     1      42.688 -11.722   6.359  1.00  0.00     0.197 A 
HETATM    4  C   UNL     1      42.523 -12.874   5.540  1.00  0.00     0.101 A 
HETATM    5  N   UNL     1      41.418 -13.049   4.760  1.00  0.00    -0.274 N 
HETATM    6  H   UNL     1      40.624 -12.423   4.668  1.00  0.00     0.189 HD
HETATM    7  N   UNL     1      41.431 -14.183   4.041  1.00  0.00    -0.174 NA
HETATM    8  C   UNL     1      42.567 -14.802   4.408  1.00  0.00     0.089 A 
HETATM    9  C   UNL     1      43.290 -13.998   5.335  1.00  0.00     0.069 A 
HETATM   10  N   UNL     1      41.696 -10.909   6.685  1.00  0.00    -0.125 NA
HETATM   11  N   UNL     1      42.204  -9.910   7.483  1.00  0.00    -0.121 NA
ENDROOT
BRANCH   1  12
HETATM   12  S   UNL     1      44.640  -9.072   8.372  1.00  0.00    -0.080 SA
BRANCH  12  13
HETATM   13  C   UNL     1      45.283 -10.183   9.660  1.00  0.00     0.185 C 
BRANCH  13  14
HETATM   14  C   UNL     1      44.314 -10.265  10.833  1.00  0.00     0.231 C 
HETATM   15  N   UNL     1      43.965  -9.020  11.331  1.00  0.00    -0.327 N 
HETATM   16  H   UNL     1      44.488  -8.228  10.963  1.00  0.00     0.169 HD
HETATM   17  O   UNL     1      43.934 -11.351  11.262  1.00  0.00    -0.272 OA
BRANCH  15  18
HETATM   18  C   UNL     1      43.133  -8.728  12.428  1.00  0.00     0.034 A 
HETATM   19  C   UNL     1      41.955  -9.410  12.725  1.00  0.00     0.032 A 
HETATM   20  C   UNL     1      41.205  -9.079  13.864  1.00  0.00     0.032 A 
HETATM   21  C   UNL     1      41.620  -8.061  14.721  1.00  0.00     0.034 A 
HETATM   22  C   UNL     1      42.775  -7.344  14.391  1.00  0.00     0.032 A 
HETATM   23  C   UNL     1      43.531  -7.683  13.265  1.00  0.00     0.032 A 
BRANCH  21  24
HETATM   24  N   UNL     1      40.943  -7.659  15.884  1.00  0.00    -0.328 N 
HETATM   25  C   UNL     1      39.987  -6.718  16.127  1.00  0.00     0.218 C 
HETATM   26  C   UNL     1      39.294  -5.998  15.008  1.00  0.00     0.117 C 
HETATM   27  O   UNL     1      39.664  -6.504  17.300  1.00  0.00    -0.274 OA
HETATM   28  H   UNL     1      41.172  -8.162  16.734  1.00  0.00     0.169 HD
ENDBRANCH  21  24
ENDBRANCH  15  18
ENDBRANCH  13  14
ENDBRANCH  12  13
ENDBRANCH   1  12
BRANCH   2  29
HETATM   29  N   UNL     1      45.192 -11.777   6.741  1.00  0.00    -0.239 NA
HETATM   30  H   UNL     1      45.319 -12.601   7.331  1.00  0.00     0.143 HD
HETATM   31  H   UNL     1      45.881 -11.104   7.075  1.00  0.00     0.143 HD
ENDBRANCH   2  29
BRANCH   8  32
HETATM   32  C   UNL     1      42.926 -16.123   3.882  1.00  0.00    -0.006 A 
HETATM   33  C   UNL     1      42.451 -16.542   2.630  1.00  0.00     0.015 A 
HETATM   34  C   UNL     1      42.779 -17.804   2.125  1.00  0.00     0.024 A 
HETATM   35  C   UNL     1      43.581 -18.660   2.874  1.00  0.00     0.034 A 
HETATM   36 CL   UNL     1      43.980 -20.217   2.261  1.00  0.00    -0.084 Cl
HETATM   37  C   UNL     1      44.060 -18.263   4.120  1.00  0.00     0.024 A 
HETATM   38  C   UNL     1      43.734 -16.999   4.622  1.00  0.00     0.015 A 
ENDBRANCH   8  32
TORSDOF 7
ENDMDL
MODEL 4
REMARK VINA RESULT:      -9.5      5.076     11.240
REMARK  7 active torsions:
REMARK  status: ('A' for Active; 'I' for Inactive)
REMARK       I    between atoms: C_2  and  N_3 
REMARK    1  A    between atoms: N_3  and  C_4 
REMARK    2  A    between atoms: C_7  and  N_8 
REMARK       I    between atoms: N_8  and  C_9 
REMARK    3  A    between atoms: C_9  and  C_10 
REMARK    4  A    between atoms: C_10  and  S_11 
REMARK    5  A    between atoms: S_11  and  C_12 
REMARK    6  A    between atoms: N_13  and  N_14 
REMARK    7  A    between atoms: C_20  and  C_21 
ROOT
HETATM    1  C   UNL     1      41.971 -10.406   6.577  1.00  0.00     0.206 A 
HETATM    2  N   UNL     1      41.857 -11.597   5.905  1.00  0.00    -0.234 N 
HETATM    3  C   UNL     1      42.890 -12.376   6.383  1.00  0.00     0.197 A 
HETATM    4  C   UNL     1      43.198 -13.718   6.022  1.00  0.00     0.101 A 
HETATM    5  N   UNL     1      43.993 -14.507   6.801  1.00  0.00    -0.274 N 
HETATM    6  H   UNL     1      44.438 -14.257   7.678  1.00  0.00     0.189 HD
HETATM    7  N   UNL     1      44.168 -15.748   6.320  1.00  0.00    -0.174 NA
HETATM    8  C   UNL     1      43.505 -15.754   5.151  1.00  0.00     0.089 A 
HETATM    9  C   UNL     1      42.865 -14.500   4.940  1.00  0.00     0.069 A 
HETATM   10  N   UNL     1      43.570 -11.688   7.284  1.00  0.00    -0.125 NA
HETATM   11  N   UNL     1      43.009 -10.435   7.382  1.00  0.00    -0.121 NA
ENDROOT
BRANCH   1  12
HETATM   12  S   UNL     1      40.837  -9.110   6.405  1.00  0.00    -0.080 SA
BRANCH  12  13
HETATM   13  C   UNL     1      39.449  -9.728   7.405  1.00  0.00     0.185 C 
BRANCH  13  14
HETATM   14  C   UNL     1      39.519  -9.173   8.823  1.00  0.00     0.231 C 
HETATM   15  N   UNL     1      40.559  -9.711   9.562  1.00  0.00    -0.327 N 
HETATM   16  H   UNL     1      41.054 -10.493   9.136  1.00  0.00     0.169 HD
HETATM   17  O   UNL     1      38.695  -8.352   9.218  1.00  0.00    -0.272 OA
BRANCH  15  18
HETATM   18  C   UNL     1      40.887  -9.458  10.907  1.00  0.00     0.034 A 
HETATM   19  C   UNL     1      41.989  -8.714  11.321  1.00  0.00     0.032 A 
HETATM   20  C   UNL     1      42.219  -8.476  12.685  1.00  0.00     0.032 A 
HETATM   21  C   UNL     1      41.354  -8.980  13.654  1.00  0.00     0.034 A 
HETATM   22  C   UNL     1      40.278  -9.770  13.237  1.00  0.00     0.032 A 
HETATM   23  C   UNL     1      40.039  -9.995  11.878  1.00  0.00     0.032 A 
BRANCH  21  24
HETATM   24  N   UNL     1      41.496  -8.793  15.038  1.00  0.00    -0.328 N 
HETATM   25  C   UNL     1      41.120  -7.795  15.887  1.00  0.00     0.218 C 
HETATM   26  C   UNL     1      40.219  -6.682  15.437  1.00  0.00     0.117 C 
HETATM   27  O   UNL     1      41.499  -7.853  17.061  1.00  0.00    -0.274 OA
HETATM   28  H   UNL     1      41.951  -9.542  15.549  1.00  0.00     0.169 HD
ENDBRANCH  21  24
ENDBRANCH  15  18
ENDBRANCH  13  14
ENDBRANCH  12  13
ENDBRANCH   1  12
BRANCH   2  29
HETATM   29  N   UNL     1      40.824 -11.978   4.972  1.00  0.00    -0.239 NA
HETATM   30  H   UNL     1      40.072 -11.287   4.979  1.00  0.00     0.143 HD
HETATM   31  H   UNL     1      40.385 -12.849   5.272  1.00  0.00     0.143 HD
ENDBRANCH   2  29
BRANCH   8  32
HETATM   32  C   UNL     1      43.503 -16.931   4.275  1.00  0.00    -0.006 A 
HETATM   33  C   UNL     1      44.233 -18.078   4.624  1.00  0.00     0.015 A 
HETATM   34  C   UNL     1      44.246 -19.200   3.791  1.00  0.00     0.024 A 
HETATM   35  C   UNL     1      43.533 -19.181   2.595  1.00  0.00     0.034 A 
HETATM   36 CL   UNL     1      43.553 -20.555   1.562  1.00  0.00    -0.084 Cl
HETATM   37  C   UNL     1      42.804 -18.051   2.231  1.00  0.00     0.024 A 
HETATM   38  C   UNL     1      42.789 -16.930   3.067  1.00  0.00     0.015 A 
ENDBRANCH   8  32
TORSDOF 7
ENDMDL
MODEL 5
REMARK VINA RESULT:      -9.4      5.192     11.958
REMARK  7 active torsions:
REMARK  status: ('A' for Active; 'I' for Inactive)
REMARK       I    between atoms: C_2  and  N_3 
REMARK    1  A    between atoms: N_3  and  C_4 
REMARK    2  A    between atoms: C_7  and  N_8 
REMARK       I    between atoms: N_8  and  C_9 
REMARK    3  A    between atoms: C_9  and  C_10 
REMARK    4  A    between atoms: C_10  and  S_11 
REMARK    5  A    between atoms: S_11  and  C_12 
REMARK    6  A    between atoms: N_13  and  N_14 
REMARK    7  A    between atoms: C_20  and  C_21 
ROOT
HETATM    1  C   UNL     1      43.319  -9.997   7.848  1.00  0.00     0.206 A 
HETATM    2  N   UNL     1      43.690 -11.177   7.252  1.00  0.00    -0.234 N 
HETATM    3  C   UNL     1      42.674 -11.460   6.362  1.00  0.00     0.197 A 
HETATM    4  C   UNL     1      42.590 -12.569   5.473  1.00  0.00     0.101 A 
HETATM    5  N   UNL     1      41.749 -12.566   4.399  1.00  0.00    -0.274 N 
HETATM    6  H   UNL     1      41.119 -11.824   4.112  1.00  0.00     0.189 HD
HETATM    7  N   UNL     1      41.806 -13.685   3.658  1.00  0.00    -0.174 NA
HETATM    8  C   UNL     1      42.680 -14.474   4.306  1.00  0.00     0.089 A 
HETATM    9  C   UNL     1      43.209 -13.797   5.442  1.00  0.00     0.069 A 
HETATM   10  N   UNL     1      41.762 -10.505   6.427  1.00  0.00    -0.125 NA
HETATM   11  N   UNL     1      42.154  -9.601   7.387  1.00  0.00    -0.121 NA
ENDROOT
BRANCH   1  12
HETATM   12  S   UNL     1      44.317  -9.157   8.985  1.00  0.00    -0.080 SA
BRANCH  12  13
HETATM   13  C   UNL     1      43.587  -7.493   8.924  1.00  0.00     0.185 C 
BRANCH  13  14
HETATM   14  C   UNL     1      42.863  -7.175  10.227  1.00  0.00     0.231 C 
HETATM   15  N   UNL     1      43.097  -8.115  11.217  1.00  0.00    -0.327 N 
HETATM   16  H   UNL     1      43.593  -8.956  10.927  1.00  0.00     0.169 HD
HETATM   17  O   UNL     1      42.142  -6.185  10.322  1.00  0.00    -0.272 OA
BRANCH  15  18
HETATM   18  C   UNL     1      42.560  -8.157  12.517  1.00  0.00     0.034 A 
HETATM   19  C   UNL     1      41.484  -8.956  12.897  1.00  0.00     0.032 A 
HETATM   20  C   UNL     1      41.038  -8.967  14.228  1.00  0.00     0.032 A 
HETATM   21  C   UNL     1      41.658  -8.180  15.196  1.00  0.00     0.034 A 
HETATM   22  C   UNL     1      42.704  -7.341  14.799  1.00  0.00     0.032 A 
HETATM   23  C   UNL     1      43.160  -7.340  13.477  1.00  0.00     0.032 A 
BRANCH  21  24
HETATM   24  N   UNL     1      41.289  -8.125  16.550  1.00  0.00    -0.328 N 
HETATM   25  C   UNL     1      40.453  -7.311  17.255  1.00  0.00     0.218 C 
HETATM   26  C   UNL     1      39.544  -6.336  16.566  1.00  0.00     0.117 C 
HETATM   27  O   UNL     1      40.423  -7.430  18.484  1.00  0.00    -0.274 OA
HETATM   28  H   UNL     1      41.692  -8.831  17.155  1.00  0.00     0.169 HD
ENDBRANCH  21  24
ENDBRANCH  15  18
ENDBRANCH  13  14
ENDBRANCH  12  13
ENDBRANCH   1  12
BRANCH   2  29
HETATM   29  N   UNL     1      44.918 -11.906   7.449  1.00  0.00    -0.239 NA
HETATM   30  H   UNL     1      44.844 -12.503   8.275  1.00  0.00     0.143 HD
HETATM   31  H   UNL     1      45.680 -11.260   7.657  1.00  0.00     0.143 HD
ENDBRANCH   2  29
BRANCH   8  32
HETATM   32  C   UNL     1      42.979 -15.832   3.841  1.00  0.00    -0.006 A 
HETATM   33  C   UNL     1      42.505 -16.277   2.597  1.00  0.00     0.015 A 
HETATM   34  C   UNL     1      42.776 -17.574   2.149  1.00  0.00     0.024 A 
HETATM   35  C   UNL     1      43.519 -18.439   2.948  1.00  0.00     0.034 A 
HETATM   36 CL   UNL     1      43.847 -20.038   2.406  1.00  0.00    -0.084 Cl
HETATM   37  C   UNL     1      43.995 -18.016   4.187  1.00  0.00     0.024 A 
HETATM   38  C   UNL     1      43.727 -16.718   4.631  1.00  0.00     0.015 A 
ENDBRANCH   8  32
TORSDOF 7
ENDMDL
MODEL 6
REMARK VINA RESULT:      -9.2      5.540      8.821
REMARK  7 active torsions:
REMARK  status: ('A' for Active; 'I' for Inactive)
REMARK       I    between atoms: C_2  and  N_3 
REMARK    1  A    between atoms: N_3  and  C_4 
REMARK    2  A    between atoms: C_7  and  N_8 
REMARK       I    between atoms: N_8  and  C_9 
REMARK    3  A    between atoms: C_9  and  C_10 
REMARK    4  A    between atoms: C_10  and  S_11 
REMARK    5  A    between atoms: S_11  and  C_12 
REMARK    6  A    between atoms: N_13  and  N_14 
REMARK    7  A    between atoms: C_20  and  C_21 
ROOT
HETATM    1  C   UNL     1      41.909 -10.308   6.392  1.00  0.00     0.206 A 
HETATM    2  N   UNL     1      41.811 -11.516   5.747  1.00  0.00    -0.234 N 
HETATM    3  C   UNL     1      42.831 -12.283   6.270  1.00  0.00     0.197 A 
HETATM    4  C   UNL     1      43.147 -13.634   5.951  1.00  0.00     0.101 A 
HETATM    5  N   UNL     1      43.922 -14.403   6.769  1.00  0.00    -0.274 N 
HETATM    6  H   UNL     1      44.345 -14.132   7.650  1.00  0.00     0.189 HD
HETATM    7  N   UNL     1      44.108 -15.657   6.324  1.00  0.00    -0.174 NA
HETATM    8  C   UNL     1      43.474 -15.692   5.139  1.00  0.00     0.089 A 
HETATM    9  C   UNL     1      42.840 -14.443   4.881  1.00  0.00     0.069 A 
HETATM   10  N   UNL     1      43.490 -11.572   7.170  1.00  0.00    -0.125 NA
HETATM   11  N   UNL     1      42.928 -10.318   7.222  1.00  0.00    -0.121 NA
ENDROOT
BRANCH   1  12
HETATM   12  S   UNL     1      40.781  -9.017   6.160  1.00  0.00    -0.080 SA
BRANCH  12  13
HETATM   13  C   UNL     1      41.318  -8.373   4.546  1.00  0.00     0.185 C 
BRANCH  13  14
HETATM   14  C   UNL     1      40.676  -9.163   3.411  1.00  0.00     0.231 C 
HETATM   15  N   UNL     1      41.605  -9.700   2.536  1.00  0.00    -0.327 N 
HETATM   16  H   UNL     1      42.569  -9.397   2.664  1.00  0.00     0.169 HD
HETATM   17  O   UNL     1      39.455  -9.260   3.324  1.00  0.00    -0.272 OA
BRANCH  15  18
HETATM   18  C   UNL     1      41.364 -10.442   1.365  1.00  0.00     0.034 A 
HETATM   19  C   UNL     1      41.312  -9.897   0.085  1.00  0.00     0.032 A 
HETATM   20  C   UNL     1      41.107 -10.718  -1.035  1.00  0.00     0.032 A 
HETATM   21  C   UNL     1      40.949 -12.095  -0.891  1.00  0.00     0.034 A 
HETATM   22  C   UNL     1      40.951 -12.633   0.400  1.00  0.00     0.032 A 
HETATM   23  C   UNL     1      41.170 -11.818   1.515  1.00  0.00     0.032 A 
BRANCH  21  24
HETATM   24  N   UNL     1      40.744 -12.999  -1.946  1.00  0.00    -0.328 N 
HETATM   25  C   UNL     1      39.625 -13.552  -2.495  1.00  0.00     0.218 C 
HETATM   26  C   UNL     1      38.252 -13.076  -2.119  1.00  0.00     0.117 C 
HETATM   27  O   UNL     1      39.768 -14.428  -3.353  1.00  0.00    -0.274 OA
HETATM   28  H   UNL     1      41.573 -13.313  -2.437  1.00  0.00     0.169 HD
ENDBRANCH  21  24
ENDBRANCH  15  18
ENDBRANCH  13  14
ENDBRANCH  12  13
ENDBRANCH   1  12
BRANCH   2  29
HETATM   29  N   UNL     1      40.801 -11.921   4.799  1.00  0.00    -0.239 NA
HETATM   30  H   UNL     1      40.933 -11.428   3.914  1.00  0.00     0.143 HD
HETATM   31  H   UNL     1      39.879 -11.633   5.127  1.00  0.00     0.143 HD
ENDBRANCH   2  29
BRANCH   8  32
HETATM   32  C   UNL     1      43.492 -16.890   4.294  1.00  0.00    -0.006 A 
HETATM   33  C   UNL     1      44.229 -18.020   4.680  1.00  0.00     0.015 A 
HETATM   34  C   UNL     1      44.262 -19.163   3.875  1.00  0.00     0.024 A 
HETATM   35  C   UNL     1      43.561 -19.181   2.672  1.00  0.00     0.034 A 
HETATM   36 CL   UNL     1      43.605 -20.582   1.674  1.00  0.00    -0.084 Cl
HETATM   37  C   UNL     1      42.825 -18.068   2.271  1.00  0.00     0.024 A 
HETATM   38  C   UNL     1      42.791 -16.927   3.079  1.00  0.00     0.015 A 
ENDBRANCH   8  32
TORSDOF 7
ENDMDL
MODEL 7
REMARK VINA RESULT:      -8.9      5.412     11.901
REMARK  7 active torsions:
REMARK  status: ('A' for Active; 'I' for Inactive)
REMARK       I    between atoms: C_2  and  N_3 
REMARK    1  A    between atoms: N_3  and  C_4 
REMARK    2  A    between atoms: C_7  and  N_8 
REMARK       I    between atoms: N_8  and  C_9 
REMARK    3  A    between atoms: C_9  and  C_10 
REMARK    4  A    between atoms: C_10  and  S_11 
REMARK    5  A    between atoms: S_11  and  C_12 
REMARK    6  A    between atoms: N_13  and  N_14 
REMARK    7  A    between atoms: C_20  and  C_21 
ROOT
HETATM    1  C   UNL     1      44.223 -12.291   6.775  1.00  0.00     0.206 A 
HETATM    2  N   UNL     1      43.605 -12.153   5.557  1.00  0.00    -0.234 N 
HETATM    3  C   UNL     1      42.778 -13.252   5.451  1.00  0.00     0.197 A 
HETATM    4  C   UNL     1      41.896 -13.568   4.379  1.00  0.00     0.101 A 
HETATM    5  N   UNL     1      40.874 -14.459   4.529  1.00  0.00    -0.274 N 
HETATM    6  H   UNL     1      40.626 -14.976   5.366  1.00  0.00     0.189 HD
HETATM    7  N   UNL     1      40.131 -14.628   3.423  1.00  0.00    -0.174 NA
HETATM    8  C   UNL     1      40.726 -13.858   2.496  1.00  0.00     0.089 A 
HETATM    9  C   UNL     1      41.828 -13.160   3.066  1.00  0.00     0.069 A 
HETATM   10  N   UNL     1      42.898 -13.991   6.540  1.00  0.00    -0.125 NA
HETATM   11  N   UNL     1      43.833 -13.401   7.360  1.00  0.00    -0.121 NA
ENDROOT
BRANCH   1  12
HETATM   12  S   UNL     1      45.298 -11.104   7.431  1.00  0.00    -0.080 SA
BRANCH  12  13
HETATM   13  C   UNL     1      44.115  -9.875   8.061  1.00  0.00     0.185 C 
BRANCH  13  14
HETATM   14  C   UNL     1      43.841 -10.104   9.543  1.00  0.00     0.231 C 
HETATM   15  N   UNL     1      42.951  -9.186  10.075  1.00  0.00    -0.327 N 
HETATM   16  H   UNL     1      42.701  -8.404   9.472  1.00  0.00     0.169 HD
HETATM   17  O   UNL     1      44.399 -11.012  10.154  1.00  0.00    -0.272 OA
BRANCH  15  18
HETATM   18  C   UNL     1      42.511  -9.077  11.407  1.00  0.00     0.034 A 
HETATM   19  C   UNL     1      41.423  -9.767  11.935  1.00  0.00     0.032 A 
HETATM   20  C   UNL     1      41.077  -9.630  13.289  1.00  0.00     0.032 A 
HETATM   21  C   UNL     1      41.812  -8.800  14.133  1.00  0.00     0.034 A 
HETATM   22  C   UNL     1      42.873  -8.070  13.587  1.00  0.00     0.032 A 
HETATM   23  C   UNL     1      43.228  -8.216  12.243  1.00  0.00     0.032 A 
BRANCH  21  24
HETATM   24  N   UNL     1      41.550  -8.601  15.498  1.00  0.00    -0.328 N 
HETATM   25  C   UNL     1      40.920  -7.609  16.190  1.00  0.00     0.218 C 
HETATM   26  C   UNL     1      40.154  -6.527  15.486  1.00  0.00     0.117 C 
HETATM   27  O   UNL     1      40.951  -7.648  17.424  1.00  0.00    -0.274 OA
HETATM   28  H   UNL     1      41.861  -9.332  16.128  1.00  0.00     0.169 HD
ENDBRANCH  21  24
ENDBRANCH  15  18
ENDBRANCH  13  14
ENDBRANCH  12  13
ENDBRANCH   1  12
BRANCH   2  29
HETATM   29  N   UNL     1      43.729 -11.050   4.635  1.00  0.00    -0.239 NA
HETATM   30  H   UNL     1      43.279 -10.218   5.021  1.00  0.00     0.143 HD
HETATM   31  H   UNL     1      43.217 -11.252   3.776  1.00  0.00     0.143 HD
ENDBRANCH   2  29
BRANCH   8  32
HETATM   32  C   UNL     1      40.244 -13.812   1.112  1.00  0.00    -0.006 A 
HETATM   33  C   UNL     1      39.970 -12.581   0.495  1.00  0.00     0.015 A 
HETATM   34  C   UNL     1      39.500 -12.528  -0.820  1.00  0.00     0.024 A 
HETATM   35  C   UNL     1      39.292 -13.708  -1.528  1.00  0.00     0.034 A 
HETATM   36 CL   UNL     1      38.705 -13.649  -3.144  1.00  0.00    -0.084 Cl
HETATM   37  C   UNL     1      39.556 -14.940  -0.932  1.00  0.00     0.024 A 
HETATM   38  C   UNL     1      40.030 -14.992   0.382  1.00  0.00     0.015 A 
ENDBRANCH   8  32
TORSDOF 7
ENDMDL
MODEL 8
REMARK VINA RESULT:      -8.4      3.222      4.382
REMARK  7 active torsions:
REMARK  status: ('A' for Active; 'I' for Inactive)
REMARK       I    between atoms: C_2  and  N_3 
REMARK    1  A    between atoms: N_3  and  C_4 
REMARK    2  A    between atoms: C_7  and  N_8 
REMARK       I    between atoms: N_8  and  C_9 
REMARK    3  A    between atoms: C_9  and  C_10 
REMARK    4  A    between atoms: C_10  and  S_11 
REMARK    5  A    between atoms: S_11  and  C_12 
REMARK    6  A    between atoms: N_13  and  N_14 
REMARK    7  A    between atoms: C_20  and  C_21 
ROOT
HETATM    1  C   UNL     1      39.853  -9.161   8.292  1.00  0.00     0.206 A 
HETATM    2  N   UNL     1      40.302  -8.994   9.578  1.00  0.00    -0.234 N 
HETATM    3  C   UNL     1      39.317  -8.263  10.208  1.00  0.00     0.197 A 
HETATM    4  C   UNL     1      39.287  -7.845  11.568  1.00  0.00     0.101 A 
HETATM    5  N   UNL     1      38.129  -7.455  12.175  1.00  0.00    -0.274 N 
HETATM    6  H   UNL     1      37.202  -7.415  11.764  1.00  0.00     0.189 HD
HETATM    7  N   UNL     1      38.279  -7.106  13.463  1.00  0.00    -0.174 NA
HETATM    8  C   UNL     1      39.598  -7.220  13.692  1.00  0.00     0.089 A 
HETATM    9  C   UNL     1      40.262  -7.702  12.528  1.00  0.00     0.069 A 
HETATM   10  N   UNL     1      38.344  -8.015   9.346  1.00  0.00    -0.125 NA
HETATM   11  N   UNL     1      38.699  -8.554   8.131  1.00  0.00    -0.121 NA
ENDROOT
BRANCH   1  12
HETATM   12  S   UNL     1      40.693 -10.107   7.111  1.00  0.00    -0.080 SA
BRANCH  12  13
HETATM   13  C   UNL     1      39.302 -10.868   6.223  1.00  0.00     0.185 C 
BRANCH  13  14
HETATM   14  C   UNL     1      39.708 -12.218   5.642  1.00  0.00     0.231 C 
HETATM   15  N   UNL     1      40.684 -12.854   6.391  1.00  0.00    -0.327 N 
HETATM   16  H   UNL     1      41.107 -12.304   7.137  1.00  0.00     0.169 HD
HETATM   17  O   UNL     1      39.202 -12.635   4.603  1.00  0.00    -0.272 OA
BRANCH  15  18
HETATM   18  C   UNL     1      41.316 -14.084   6.125  1.00  0.00     0.034 A 
HETATM   19  C   UNL     1      40.720 -15.329   6.306  1.00  0.00     0.032 A 
HETATM   20  C   UNL     1      41.409 -16.507   5.976  1.00  0.00     0.032 A 
HETATM   21  C   UNL     1      42.704 -16.456   5.463  1.00  0.00     0.034 A 
HETATM   22  C   UNL     1      43.318 -15.206   5.332  1.00  0.00     0.032 A 
HETATM   23  C   UNL     1      42.627 -14.032   5.646  1.00  0.00     0.032 A 
BRANCH  21  24
HETATM   24  N   UNL     1      43.472 -17.574   5.101  1.00  0.00    -0.328 N 
HETATM   25  C   UNL     1      43.679 -18.217   3.917  1.00  0.00     0.218 C 
HETATM   26  C   UNL     1      43.193 -17.643   2.618  1.00  0.00     0.117 C 
HETATM   27  O   UNL     1      44.325 -19.270   3.929  1.00  0.00    -0.274 OA
HETATM   28  H   UNL     1      44.013 -18.008   5.840  1.00  0.00     0.169 HD
ENDBRANCH  21  24
ENDBRANCH  15  18
ENDBRANCH  13  14
ENDBRANCH  12  13
ENDBRANCH   1  12
BRANCH   2  29
HETATM   29  N   UNL     1      41.500  -9.546  10.163  1.00  0.00    -0.239 NA
HETATM   30  H   UNL     1      41.420  -9.559  11.181  1.00  0.00     0.143 HD
HETATM   31  H   UNL     1      42.297  -8.939   9.968  1.00  0.00     0.143 HD
ENDBRANCH   2  29
BRANCH   8  32
HETATM   32  C   UNL     1      40.185  -6.866  14.988  1.00  0.00    -0.006 A 
HETATM   33  C   UNL     1      39.428  -6.175  15.947  1.00  0.00     0.015 A 
HETATM   34  C   UNL     1      39.982  -5.824  17.181  1.00  0.00     0.024 A 
HETATM   35  C   UNL     1      41.304  -6.157  17.465  1.00  0.00     0.034 A 
HETATM   36 CL   UNL     1      41.994  -5.720  18.978  1.00  0.00    -0.084 Cl
HETATM   37  C   UNL     1      42.073  -6.841  16.525  1.00  0.00     0.024 A 
HETATM   38  C   UNL     1      41.516  -7.195  15.292  1.00  0.00     0.015 A 
ENDBRANCH   8  32
TORSDOF 7
ENDMDL
MODEL 9
REMARK VINA RESULT:      -8.4      3.197      4.897
REMARK  7 active torsions:
REMARK  status: ('A' for Active; 'I' for Inactive)
REMARK       I    between atoms: C_2  and  N_3 
REMARK    1  A    between atoms: N_3  and  C_4 
REMARK    2  A    between atoms: C_7  and  N_8 
REMARK       I    between atoms: N_8  and  C_9 
REMARK    3  A    between atoms: C_9  and  C_10 
REMARK    4  A    between atoms: C_10  and  S_11 
REMARK    5  A    between atoms: S_11  and  C_12 
REMARK    6  A    between atoms: N_13  and  N_14 
REMARK    7  A    between atoms: C_20  and  C_21 
ROOT
HETATM    1  C   UNL     1      44.120 -11.378   5.886  1.00  0.00     0.206 A 
HETATM    2  N   UNL     1      43.484 -10.829   6.972  1.00  0.00    -0.234 N 
HETATM    3  C   UNL     1      44.478 -10.644   7.910  1.00  0.00     0.197 A 
HETATM    4  C   UNL     1      44.344 -10.078   9.209  1.00  0.00     0.101 A 
HETATM    5  N   UNL     1      45.421  -9.610   9.903  1.00  0.00    -0.274 N 
HETATM    6  H   UNL     1      46.391  -9.604   9.605  1.00  0.00     0.189 HD
HETATM    7  N   UNL     1      45.113  -9.095  11.105  1.00  0.00    -0.174 NA
HETATM    8  C   UNL     1      43.788  -9.285  11.225  1.00  0.00     0.089 A 
HETATM    9  C   UNL     1      43.266  -9.882  10.042  1.00  0.00     0.069 A 
HETATM   10  N   UNL     1      45.630 -11.057   7.409  1.00  0.00    -0.125 NA
HETATM   11  N   UNL     1      45.397 -11.548   6.145  1.00  0.00    -0.121 NA
ENDROOT
BRANCH   1  12
HETATM   12  S   UNL     1      43.320 -11.711   4.388  1.00  0.00    -0.080 SA
BRANCH  12  13
HETATM   13  C   UNL     1      42.870 -13.458   4.616  1.00  0.00     0.185 C 
BRANCH  13  14
HETATM   14  C   UNL     1      41.706 -13.836   3.707  1.00  0.00     0.231 C 
HETATM   15  N   UNL     1      41.777 -13.235   2.462  1.00  0.00    -0.327 N 
HETATM   16  H   UNL     1      42.496 -12.523   2.348  1.00  0.00     0.169 HD
HETATM   17  O   UNL     1      40.815 -14.583   4.103  1.00  0.00    -0.272 OA
BRANCH  15  18
HETATM   18  C   UNL     1      40.857 -13.328   1.401  1.00  0.00     0.034 A 
HETATM   19  C   UNL     1      40.853 -14.344   0.449  1.00  0.00     0.032 A 
HETATM   20  C   UNL     1      39.871 -14.382  -0.553  1.00  0.00     0.032 A 
HETATM   21  C   UNL     1      38.881 -13.405  -0.620  1.00  0.00     0.034 A 
HETATM   22  C   UNL     1      38.918 -12.357   0.306  1.00  0.00     0.032 A 
HETATM   23  C   UNL     1      39.887 -12.326   1.314  1.00  0.00     0.032 A 
BRANCH  21  24
HETATM   24  N   UNL     1      37.856 -13.358  -1.579  1.00  0.00    -0.328 N 
HETATM   25  C   UNL     1      37.534 -12.462  -2.555  1.00  0.00     0.218 C 
HETATM   26  C   UNL     1      38.453 -11.331  -2.914  1.00  0.00     0.117 C 
HETATM   27  O   UNL     1      36.481 -12.631  -3.177  1.00  0.00    -0.274 OA
HETATM   28  H   UNL     1      37.215 -14.143  -1.591  1.00  0.00     0.169 HD
ENDBRANCH  21  24
ENDBRANCH  15  18
ENDBRANCH  13  14
ENDBRANCH  12  13
ENDBRANCH   1  12
BRANCH   2  29
HETATM   29  N   UNL     1      42.097 -10.446   7.069  1.00  0.00    -0.239 NA
HETATM   30  H   UNL     1      41.827  -9.895   6.252  1.00  0.00     0.143 HD
HETATM   31  H   UNL     1      41.961  -9.822   7.865  1.00  0.00     0.143 HD
ENDBRANCH   2  29
BRANCH   8  32
HETATM   32  C   UNL     1      43.065  -8.906  12.443  1.00  0.00    -0.006 A 
HETATM   33  C   UNL     1      41.963  -9.658  12.878  1.00  0.00     0.015 A 
HETATM   34  C   UNL     1      41.261  -9.299  14.032  1.00  0.00     0.024 A 
HETATM   35  C   UNL     1      41.653  -8.178  14.758  1.00  0.00     0.034 A 
HETATM   36 CL   UNL     1      40.787  -7.726  16.174  1.00  0.00    -0.084 Cl
HETATM   37  C   UNL     1      42.743  -7.417  14.341  1.00  0.00     0.024 A 
HETATM   38  C   UNL     1      43.447  -7.780  13.189  1.00  0.00     0.015 A 
ENDBRANCH   8  32
TORSDOF 7
ENDMDL
MODEL 10
REMARK VINA RESULT:      -8.3      5.598     12.576
REMARK  7 active torsions:
REMARK  status: ('A' for Active; 'I' for Inactive)
REMARK       I    between atoms: C_2  and  N_3 
REMARK    1  A    between atoms: N_3  and  C_4 
REMARK    2  A    between atoms: C_7  and  N_8 
REMARK       I    between atoms: N_8  and  C_9 
REMARK    3  A    between atoms: C_9  and  C_10 
REMARK    4  A    between atoms: C_10  and  S_11 
REMARK    5  A    between atoms: S_11  and  C_12 
REMARK    6  A    between atoms: N_13  and  N_14 
REMARK    7  A    between atoms: C_20  and  C_21 
ROOT
HETATM    1  C   UNL     1      43.875 -10.601   7.746  1.00  0.00     0.206 A 
HETATM    2  N   UNL     1      43.085 -10.909   6.666  1.00  0.00    -0.234 N 
HETATM    3  C   UNL     1      43.463 -12.184   6.300  1.00  0.00     0.197 A 
HETATM    4  C   UNL     1      42.926 -12.975   5.245  1.00  0.00     0.101 A 
HETATM    5  N   UNL     1      43.106 -14.326   5.197  1.00  0.00    -0.274 N 
HETATM    6  H   UNL     1      43.611 -14.904   5.861  1.00  0.00     0.189 HD
HETATM    7  N   UNL     1      42.519 -14.917   4.143  1.00  0.00    -0.174 NA
HETATM    8  C   UNL     1      41.981 -13.903   3.444  1.00  0.00     0.089 A 
HETATM    9  C   UNL     1      42.199 -12.668   4.118  1.00  0.00     0.069 A 
HETATM   10  N   UNL     1      44.417 -12.604   7.114  1.00  0.00    -0.125 NA
HETATM   11  N   UNL     1      44.698 -11.593   8.005  1.00  0.00    -0.121 NA
ENDROOT
BRANCH   1  12
HETATM   12  S   UNL     1      43.718  -9.132   8.646  1.00  0.00    -0.080 SA
BRANCH  12  13
HETATM   13  C   UNL     1      42.557  -9.645   9.948  1.00  0.00     0.185 C 
BRANCH  13  14
HETATM   14  C   UNL     1      42.475  -8.587  11.042  1.00  0.00     0.231 C 
HETATM   15  N   UNL     1      42.374  -9.131  12.311  1.00  0.00    -0.327 N 
HETATM   16  H   UNL     1      42.226 -10.138  12.357  1.00  0.00     0.169 HD
HETATM   17  O   UNL     1      42.481  -7.391  10.764  1.00  0.00    -0.272 OA
BRANCH  15  18
HETATM   18  C   UNL     1      42.238  -8.453  13.537  1.00  0.00     0.034 A 
HETATM   19  C   UNL     1      41.262  -8.738  14.489  1.00  0.00     0.032 A 
HETATM   20  C   UNL     1      41.224  -8.038  15.705  1.00  0.00     0.032 A 
HETATM   21  C   UNL     1      42.158  -7.043  15.986  1.00  0.00     0.034 A 
HETATM   22  C   UNL     1      43.104  -6.725  15.007  1.00  0.00     0.032 A 
HETATM   23  C   UNL     1      43.153  -7.431  13.801  1.00  0.00     0.032 A 
BRANCH  21  24
HETATM   24  N   UNL     1      42.206  -6.292  17.172  1.00  0.00    -0.328 N 
HETATM   25  C   UNL     1      41.717  -5.068  17.519  1.00  0.00     0.218 C 
HETATM   26  C   UNL     1      40.776  -4.317  16.622  1.00  0.00     0.117 C 
HETATM   27  O   UNL     1      42.028  -4.606  18.621  1.00  0.00    -0.274 OA
HETATM   28  H   UNL     1      42.676  -6.724  17.960  1.00  0.00     0.169 HD
ENDBRANCH  21  24
ENDBRANCH  15  18
ENDBRANCH  13  14
ENDBRANCH  12  13
ENDBRANCH   1  12
BRANCH   2  29
HETATM   29  N   UNL     1      42.026 -10.107   6.103  1.00  0.00    -0.239 NA
HETATM   30  H   UNL     1      42.104  -9.142   6.429  1.00  0.00     0.143 HD
HETATM   31  H   UNL     1      41.122 -10.430   6.446  1.00  0.00     0.143 HD
ENDBRANCH   2  29
BRANCH   8  32
HETATM   32  C   UNL     1      41.290 -14.131   2.171  1.00  0.00    -0.006 A 
HETATM   33  C   UNL     1      41.266 -13.130   1.187  1.00  0.00     0.015 A 
HETATM   34  C   UNL     1      40.601 -13.333  -0.026  1.00  0.00     0.024 A 
HETATM   35  C   UNL     1      39.948 -14.540  -0.262  1.00  0.00     0.034 A 
HETATM   36 CL   UNL     1      39.121 -14.792  -1.749  1.00  0.00    -0.084 Cl
HETATM   37  C   UNL     1      39.959 -15.544   0.704  1.00  0.00     0.024 A 
HETATM   38  C   UNL     1      40.628 -15.341   1.915  1.00  0.00     0.015 A 
ENDBRANCH   8  32
TORSDOF 7
ENDMDL
