MODEL 1
REMARK VINA RESULT:      -8.6      0.000      0.000
REMARK  11 active torsions:
REMARK  status: ('A' for Active; 'I' for Inactive)
REMARK    1  A    between atoms: C_2  and  O_3 
REMARK    2  A    between atoms: O_3  and  C_4 
REMARK    3  A    between atoms: C_4  and  C_5 
REMARK    4  A    between atoms: C_6  and  N_7 
REMARK       I    between atoms: N_7  and  C_8 
REMARK    5  A    between atoms: C_8  and  C_9 
REMARK    6  A    between atoms: C_10  and  N_11 
REMARK    7  A    between atoms: N_11  and  C_12 
REMARK    8  A    between atoms: C_12  and  C_13 
REMARK    9  A    between atoms: C_13  and  C_14 
REMARK   10  A    between atoms: C_14  and  N_15 
REMARK   11  A    between atoms: C_24  and  N_25 
ROOT
HETATM    1  C   UNL     1      43.181 -16.814   3.167  1.00  0.00     0.061 A 
HETATM    2  C   UNL     1      43.558 -16.605   4.521  1.00  0.00     0.043 A 
HETATM    3  C   UNL     1      43.991 -17.736   5.235  1.00  0.00     0.032 A 
HETATM    4  C   UNL     1      44.075 -19.002   4.638  1.00  0.00     0.038 A 
HETATM    5  C   UNL     1      43.696 -19.170   3.304  1.00  0.00     0.104 A 
HETATM    6  C   UNL     1      43.244 -18.080   2.562  1.00  0.00     0.055 A 
ENDROOT
BRANCH   1   7
HETATM    7  C   UNL     1      42.668 -15.718   2.307  1.00  0.00     0.258 C 
HETATM    8  N   UNL     1      41.299 -15.539   2.383  1.00  0.00    -0.316 N 
HETATM    9  H   UNL     1      40.762 -16.166   2.976  1.00  0.00     0.169 HD
HETATM   10  O   UNL     1      43.480 -15.109   1.626  1.00  0.00    -0.267 OA
BRANCH   8  11
HETATM   11  C   UNL     1      40.555 -14.554   1.745  1.00  0.00     0.094 A 
HETATM   12  C   UNL     1      40.107 -13.362   2.308  1.00  0.00     0.080 A 
HETATM   13  C   UNL     1      39.444 -12.543   1.308  1.00  0.00    -0.026 A 
HETATM   14  C   UNL     1      39.458 -13.153   0.067  1.00  0.00    -0.008 A 
HETATM   15  C   UNL     1      38.831 -11.180   1.490  1.00  0.00     0.041 C 
HETATM   16  S   UNL     1      40.162 -14.691   0.102  1.00  0.00    -0.075 SA
HETATM   17  C   UNL     1      38.889 -12.584  -1.197  1.00  0.00     0.047 C 
HETATM   18  C   UNL     1      38.642 -11.078  -1.043  1.00  0.00     0.005 C 
HETATM   19  C   UNL     1      37.961 -10.761   0.293  1.00  0.00     0.005 C 
BRANCH  12  20
HETATM   20  C   UNL     1      40.296 -13.065   3.732  1.00  0.00     0.296 C 
HETATM   21  O   UNL     1      39.351 -12.902   4.502  1.00  0.00    -0.259 OA
BRANCH  20  22
HETATM   22  O   UNL     1      41.603 -12.966   4.094  1.00  0.00    -0.318 OA
BRANCH  22  23
HETATM   23  C   UNL     1      42.258 -11.715   3.845  1.00  0.00     0.174 C 
HETATM   24  C   UNL     1      43.646 -11.962   3.290  1.00  0.00     0.034 C 
ENDBRANCH  22  23
ENDBRANCH  20  22
ENDBRANCH  12  20
ENDBRANCH   8  11
ENDBRANCH   1   7
BRANCH   2  25
HETATM   25  N   UNL     1      43.328 -15.369   5.152  1.00  0.00    -0.389 N 
HETATM   26  H   UNL     1      43.451 -14.584   4.511  1.00  0.00     0.159 HD
BRANCH  25  27
HETATM   27  C   UNL     1      43.852 -15.096   6.484  1.00  0.00     0.121 C 
BRANCH  27  28
HETATM   28  C   UNL     1      43.457 -13.673   6.894  1.00  0.00     0.047 C 
BRANCH  28  29
HETATM   29  C   UNL     1      44.615 -12.701   6.674  1.00  0.00     0.236 C 
BRANCH  29  30
HETATM   30  N   UNL     1      44.532 -11.529   7.633  1.00  0.00    -0.067 N 
HETATM   31  H   UNL     1      44.352 -11.897   8.576  1.00  0.00     0.280 HD
HETATM   32  C   UNL     1      45.809 -10.691   7.690  1.00  0.00     0.261 C 
HETATM   33  C   UNL     1      45.615  -9.521   8.662  1.00  0.00     0.195 C 
HETATM   34  O   UNL     1      44.501  -8.711   8.277  1.00  0.00    -0.388 OA
HETATM   35  C   UNL     1      43.278  -9.455   8.270  1.00  0.00     0.195 C 
HETATM   36  C   UNL     1      43.350 -10.618   7.277  1.00  0.00     0.261 C 
ENDBRANCH  29  30
ENDBRANCH  28  29
ENDBRANCH  27  28
ENDBRANCH  25  27
ENDBRANCH   2  25
BRANCH   5  37
HETATM   37  N   UNL     1      43.765 -20.500   2.687  1.00  0.00    -0.116 N 
HETATM   38  O   UNL     1      44.029 -21.458   3.426  1.00  0.00    -0.532 OA
HETATM   39  O   UNL     1      43.562 -20.577   1.469  1.00  0.00    -0.532 OA
ENDBRANCH   5  37
TORSDOF 11
ENDMDL
MODEL 2
REMARK VINA RESULT:      -7.8      2.609      7.121
REMARK  11 active torsions:
REMARK  status: ('A' for Active; 'I' for Inactive)
REMARK    1  A    between atoms: C_2  and  O_3 
REMARK    2  A    between atoms: O_3  and  C_4 
REMARK    3  A    between atoms: C_4  and  C_5 
REMARK    4  A    between atoms: C_6  and  N_7 
REMARK       I    between atoms: N_7  and  C_8 
REMARK    5  A    between atoms: C_8  and  C_9 
REMARK    6  A    between atoms: C_10  and  N_11 
REMARK    7  A    between atoms: N_11  and  C_12 
REMARK    8  A    between atoms: C_12  and  C_13 
REMARK    9  A    between atoms: C_13  and  C_14 
REMARK   10  A    between atoms: C_14  and  N_15 
REMARK   11  A    between atoms: C_24  and  N_25 
ROOT
HETATM    1  C   UNL     1      42.570 -15.321   4.387  1.00  0.00     0.061 A 
HETATM    2  C   UNL     1      41.753 -15.067   3.254  1.00  0.00     0.043 A 
HETATM    3  C   UNL     1      41.732 -16.060   2.258  1.00  0.00     0.032 A 
HETATM    4  C   UNL     1      42.457 -17.254   2.387  1.00  0.00     0.038 A 
HETATM    5  C   UNL     1      43.250 -17.469   3.516  1.00  0.00     0.104 A 
HETATM    6  C   UNL     1      43.315 -16.505   4.520  1.00  0.00     0.055 A 
ENDROOT
BRANCH   1   7
HETATM    7  C   UNL     1      42.718 -14.343   5.494  1.00  0.00     0.258 C 
HETATM    8  N   UNL     1      43.367 -13.177   5.132  1.00  0.00    -0.316 N 
HETATM    9  H   UNL     1      43.709 -13.092   4.178  1.00  0.00     0.169 HD
HETATM   10  O   UNL     1      42.278 -14.661   6.590  1.00  0.00    -0.267 OA
BRANCH   8  11
HETATM   11  C   UNL     1      43.588 -12.066   5.936  1.00  0.00     0.094 A 
HETATM   12  C   UNL     1      42.649 -11.100   6.287  1.00  0.00     0.080 A 
HETATM   13  C   UNL     1      43.225 -10.145   7.218  1.00  0.00    -0.026 A 
HETATM   14  C   UNL     1      44.535 -10.464   7.523  1.00  0.00    -0.008 A 
HETATM   15  C   UNL     1      42.552  -8.958   7.855  1.00  0.00     0.041 C 
HETATM   16  S   UNL     1      45.097 -11.810   6.666  1.00  0.00    -0.075 SA
HETATM   17  C   UNL     1      45.424  -9.713   8.467  1.00  0.00     0.047 C 
HETATM   18  C   UNL     1      44.593  -8.781   9.359  1.00  0.00     0.005 C 
HETATM   19  C   UNL     1      43.552  -8.012   8.540  1.00  0.00     0.005 C 
BRANCH  12  20
HETATM   20  C   UNL     1      41.295 -11.105   5.725  1.00  0.00     0.296 C 
HETATM   21  O   UNL     1      40.290 -11.214   6.427  1.00  0.00    -0.259 OA
BRANCH  20  22
HETATM   22  O   UNL     1      41.272 -11.003   4.369  1.00  0.00    -0.318 OA
BRANCH  22  23
HETATM   23  C   UNL     1      40.440  -9.981   3.803  1.00  0.00     0.174 C 
HETATM   24  C   UNL     1      41.067  -8.621   4.033  1.00  0.00     0.034 C 
ENDBRANCH  22  23
ENDBRANCH  20  22
ENDBRANCH  12  20
ENDBRANCH   8  11
ENDBRANCH   1   7
BRANCH   2  25
HETATM   25  N   UNL     1      41.152 -13.809   3.062  1.00  0.00    -0.389 N 
HETATM   26  H   UNL     1      41.446 -13.135   3.771  1.00  0.00     0.159 HD
BRANCH  25  27
HETATM   27  C   UNL     1      39.740 -13.693   2.725  1.00  0.00     0.121 C 
BRANCH  27  28
HETATM   28  C   UNL     1      39.597 -12.853   1.452  1.00  0.00     0.047 C 
BRANCH  28  29
HETATM   29  C   UNL     1      40.961 -12.579   0.823  1.00  0.00     0.236 C 
BRANCH  29  30
HETATM   30  N   UNL     1      40.995 -13.031  -0.625  1.00  0.00    -0.067 N 
HETATM   31  H   UNL     1      41.842 -13.594  -0.766  1.00  0.00     0.280 HD
HETATM   32  C   UNL     1      39.791 -13.881  -1.030  1.00  0.00     0.261 C 
HETATM   33  C   UNL     1      39.904 -14.261  -2.511  1.00  0.00     0.195 C 
HETATM   34  O   UNL     1      39.997 -13.097  -3.337  1.00  0.00    -0.388 OA
HETATM   35  C   UNL     1      41.149 -12.309  -3.019  1.00  0.00     0.195 C 
HETATM   36  C   UNL     1      41.098 -11.825  -1.567  1.00  0.00     0.261 C 
ENDBRANCH  29  30
ENDBRANCH  28  29
ENDBRANCH  27  28
ENDBRANCH  25  27
ENDBRANCH   2  25
BRANCH   5  37
HETATM   37  N   UNL     1      44.024 -18.710   3.639  1.00  0.00    -0.116 N 
HETATM   38  O   UNL     1      44.681 -18.870   4.677  1.00  0.00    -0.532 OA
HETATM   39  O   UNL     1      43.976 -19.511   2.698  1.00  0.00    -0.532 OA
ENDBRANCH   5  37
TORSDOF 11
ENDMDL
MODEL 3
REMARK VINA RESULT:      -7.7      2.690      6.960
REMARK  11 active torsions:
REMARK  status: ('A' for Active; 'I' for Inactive)
REMARK    1  A    between atoms: C_2  and  O_3 
REMARK    2  A    between atoms: O_3  and  C_4 
REMARK    3  A    between atoms: C_4  and  C_5 
REMARK    4  A    between atoms: C_6  and  N_7 
REMARK       I    between atoms: N_7  and  C_8 
REMARK    5  A    between atoms: C_8  and  C_9 
REMARK    6  A    between atoms: C_10  and  N_11 
REMARK    7  A    between atoms: N_11  and  C_12 
REMARK    8  A    between atoms: C_12  and  C_13 
REMARK    9  A    between atoms: C_13  and  C_14 
REMARK   10  A    between atoms: C_14  and  N_15 
REMARK   11  A    between atoms: C_24  and  N_25 
ROOT
HETATM    1  C   UNL     1      39.696 -13.689   0.799  1.00  0.00     0.061 A 
HETATM    2  C   UNL     1      39.091 -12.433   1.066  1.00  0.00     0.043 A 
HETATM    3  C   UNL     1      38.831 -11.611  -0.045  1.00  0.00     0.032 A 
HETATM    4  C   UNL     1      39.127 -12.018  -1.354  1.00  0.00     0.038 A 
HETATM    5  C   UNL     1      39.722 -13.261  -1.578  1.00  0.00     0.104 A 
HETATM    6  C   UNL     1      40.013 -14.102  -0.506  1.00  0.00     0.055 A 
ENDROOT
BRANCH   1   7
HETATM    7  C   UNL     1      40.063 -14.640   1.878  1.00  0.00     0.258 C 
HETATM    8  N   UNL     1      41.135 -14.230   2.649  1.00  0.00    -0.316 N 
HETATM    9  H   UNL     1      41.595 -13.355   2.409  1.00  0.00     0.169 HD
HETATM   10  O   UNL     1      39.408 -15.669   1.969  1.00  0.00    -0.267 OA
BRANCH   8  11
HETATM   11  C   UNL     1      41.654 -14.880   3.762  1.00  0.00     0.094 A 
HETATM   12  C   UNL     1      42.533 -15.959   3.754  1.00  0.00     0.080 A 
HETATM   13  C   UNL     1      42.927 -16.305   5.108  1.00  0.00    -0.026 A 
HETATM   14  C   UNL     1      42.346 -15.459   6.035  1.00  0.00    -0.008 A 
HETATM   15  C   UNL     1      43.871 -17.395   5.545  1.00  0.00     0.041 C 
HETATM   16  S   UNL     1      41.295 -14.337   5.328  1.00  0.00    -0.075 SA
HETATM   17  C   UNL     1      42.551 -15.509   7.519  1.00  0.00     0.047 C 
HETATM   18  C   UNL     1      43.787 -16.351   7.861  1.00  0.00     0.005 C 
HETATM   19  C   UNL     1      43.809 -17.656   7.059  1.00  0.00     0.005 C 
BRANCH  12  20
HETATM   20  C   UNL     1      42.933 -16.615   2.505  1.00  0.00     0.296 C 
HETATM   21  O   UNL     1      43.536 -16.021   1.612  1.00  0.00    -0.259 OA
BRANCH  20  22
HETATM   22  O   UNL     1      42.550 -17.918   2.432  1.00  0.00    -0.318 OA
BRANCH  22  23
HETATM   23  C   UNL     1      43.583 -18.909   2.504  1.00  0.00     0.174 C 
HETATM   24  C   UNL     1      43.116 -20.189   1.840  1.00  0.00     0.034 C 
ENDBRANCH  22  23
ENDBRANCH  20  22
ENDBRANCH  12  20
ENDBRANCH   8  11
ENDBRANCH   1   7
BRANCH   2  25
HETATM   25  N   UNL     1      38.937 -11.970   2.386  1.00  0.00    -0.389 N 
HETATM   26  H   UNL     1      38.091 -12.339   2.823  1.00  0.00     0.159 HD
BRANCH  25  27
HETATM   27  C   UNL     1      39.188 -10.577   2.729  1.00  0.00     0.121 C 
BRANCH  27  28
HETATM   28  C   UNL     1      40.689 -10.382   2.965  1.00  0.00     0.047 C 
BRANCH  28  29
HETATM   29  C   UNL     1      40.941  -9.595   4.250  1.00  0.00     0.236 C 
BRANCH  29  30
HETATM   30  N   UNL     1      42.215 -10.058   4.931  1.00  0.00    -0.067 N 
HETATM   31  H   UNL     1      42.849  -9.253   5.008  1.00  0.00     0.280 HD
HETATM   32  C   UNL     1      41.991 -10.618   6.336  1.00  0.00     0.261 C 
HETATM   33  C   UNL     1      43.329 -11.082   6.924  1.00  0.00     0.195 C 
HETATM   34  O   UNL     1      43.949 -12.062   6.087  1.00  0.00    -0.388 OA
HETATM   35  C   UNL     1      44.224 -11.548   4.779  1.00  0.00     0.195 C 
HETATM   36  C   UNL     1      42.934 -11.112   4.079  1.00  0.00     0.261 C 
ENDBRANCH  29  30
ENDBRANCH  28  29
ENDBRANCH  27  28
ENDBRANCH  25  27
ENDBRANCH   2  25
BRANCH   5  37
HETATM   37  N   UNL     1      40.050 -13.678  -2.947  1.00  0.00    -0.116 N 
HETATM   38  O   UNL     1      41.156 -13.344  -3.395  1.00  0.00    -0.532 OA
HETATM   39  O   UNL     1      39.200 -14.327  -3.568  1.00  0.00    -0.532 OA
ENDBRANCH   5  37
TORSDOF 11
ENDMDL
MODEL 4
REMARK VINA RESULT:      -7.4      1.405      1.832
REMARK  11 active torsions:
REMARK  status: ('A' for Active; 'I' for Inactive)
REMARK    1  A    between atoms: C_2  and  O_3 
REMARK    2  A    between atoms: O_3  and  C_4 
REMARK    3  A    between atoms: C_4  and  C_5 
REMARK    4  A    between atoms: C_6  and  N_7 
REMARK       I    between atoms: N_7  and  C_8 
REMARK    5  A    between atoms: C_8  and  C_9 
REMARK    6  A    between atoms: C_10  and  N_11 
REMARK    7  A    between atoms: N_11  and  C_12 
REMARK    8  A    between atoms: C_12  and  C_13 
REMARK    9  A    between atoms: C_13  and  C_14 
REMARK   10  A    between atoms: C_14  and  N_15 
REMARK   11  A    between atoms: C_24  and  N_25 
ROOT
HETATM    1  C   UNL     1      43.130 -15.278   4.242  1.00  0.00     0.061 A 
HETATM    2  C   UNL     1      43.366 -14.846   5.574  1.00  0.00     0.043 A 
HETATM    3  C   UNL     1      43.864 -15.810   6.469  1.00  0.00     0.032 A 
HETATM    4  C   UNL     1      44.143 -17.124   6.064  1.00  0.00     0.038 A 
HETATM    5  C   UNL     1      43.899 -17.512   4.745  1.00  0.00     0.104 A 
HETATM    6  C   UNL     1      43.389 -16.595   3.828  1.00  0.00     0.055 A 
ENDROOT
BRANCH   1   7
HETATM    7  C   UNL     1      42.568 -14.378   3.203  1.00  0.00     0.258 C 
HETATM    8  N   UNL     1      41.279 -14.700   2.819  1.00  0.00    -0.316 N 
HETATM    9  H   UNL     1      40.840 -15.516   3.238  1.00  0.00     0.169 HD
HETATM   10  O   UNL     1      43.284 -13.477   2.792  1.00  0.00    -0.267 OA
BRANCH   8  11
HETATM   11  C   UNL     1      40.483 -14.001   1.921  1.00  0.00     0.094 A 
HETATM   12  C   UNL     1      39.819 -12.801   2.165  1.00  0.00     0.080 A 
HETATM   13  C   UNL     1      39.165 -12.327   0.958  1.00  0.00    -0.026 A 
HETATM   14  C   UNL     1      39.395 -13.176  -0.109  1.00  0.00    -0.008 A 
HETATM   15  C   UNL     1      38.356 -11.068   0.781  1.00  0.00     0.041 C 
HETATM   16  S   UNL     1      40.293 -14.543   0.326  1.00  0.00    -0.075 SA
HETATM   17  C   UNL     1      38.895 -12.983  -1.508  1.00  0.00     0.047 C 
HETATM   18  C   UNL     1      38.431 -11.535  -1.716  1.00  0.00     0.005 C 
HETATM   19  C   UNL     1      37.573 -11.053  -0.542  1.00  0.00     0.005 C 
BRANCH  12  20
HETATM   20  C   UNL     1      39.811 -12.184   3.495  1.00  0.00     0.296 C 
HETATM   21  O   UNL     1      39.514 -12.811   4.511  1.00  0.00    -0.259 OA
BRANCH  20  22
HETATM   22  O   UNL     1      40.135 -10.864   3.480  1.00  0.00    -0.318 OA
BRANCH  22  23
HETATM   23  C   UNL     1      41.489 -10.526   3.146  1.00  0.00     0.174 C 
HETATM   24  C   UNL     1      42.316 -10.408   4.411  1.00  0.00     0.034 C 
ENDBRANCH  22  23
ENDBRANCH  20  22
ENDBRANCH  12  20
ENDBRANCH   8  11
ENDBRANCH   1   7
BRANCH   2  25
HETATM   25  N   UNL     1      42.943 -13.577   6.009  1.00  0.00    -0.389 N 
HETATM   26  H   UNL     1      42.721 -12.960   5.225  1.00  0.00     0.159 HD
BRANCH  25  27
HETATM   27  C   UNL     1      43.628 -12.886   7.093  1.00  0.00     0.121 C 
BRANCH  27  28
HETATM   28  C   UNL     1      44.907 -12.241   6.547  1.00  0.00     0.047 C 
BRANCH  28  29
HETATM   29  C   UNL     1      45.033 -10.795   7.021  1.00  0.00     0.236 C 
BRANCH  29  30
HETATM   30  N   UNL     1      44.246 -10.569   8.298  1.00  0.00    -0.067 N 
HETATM   31  H   UNL     1      43.727 -11.430   8.511  1.00  0.00     0.280 HD
HETATM   32  C   UNL     1      45.119 -10.234   9.507  1.00  0.00     0.261 C 
HETATM   33  C   UNL     1      44.231  -9.997  10.734  1.00  0.00     0.195 C 
HETATM   34  O   UNL     1      43.285  -8.952  10.493  1.00  0.00    -0.388 OA
HETATM   35  C   UNL     1      42.414  -9.263   9.401  1.00  0.00     0.195 C 
HETATM   36  C   UNL     1      43.207  -9.458   8.105  1.00  0.00     0.261 C 
ENDBRANCH  29  30
ENDBRANCH  28  29
ENDBRANCH  27  28
ENDBRANCH  25  27
ENDBRANCH   2  25
BRANCH   5  37
HETATM   37  N   UNL     1      44.171 -18.893   4.327  1.00  0.00    -0.116 N 
HETATM   38  O   UNL     1      44.316 -19.104   3.116  1.00  0.00    -0.532 OA
HETATM   39  O   UNL     1      44.231 -19.757   5.210  1.00  0.00    -0.532 OA
ENDBRANCH   5  37
TORSDOF 11
ENDMDL
MODEL 5
REMARK VINA RESULT:      -7.1      2.665      6.696
REMARK  11 active torsions:
REMARK  status: ('A' for Active; 'I' for Inactive)
REMARK    1  A    between atoms: C_2  and  O_3 
REMARK    2  A    between atoms: O_3  and  C_4 
REMARK    3  A    between atoms: C_4  and  C_5 
REMARK    4  A    between atoms: C_6  and  N_7 
REMARK       I    between atoms: N_7  and  C_8 
REMARK    5  A    between atoms: C_8  and  C_9 
REMARK    6  A    between atoms: C_10  and  N_11 
REMARK    7  A    between atoms: N_11  and  C_12 
REMARK    8  A    between atoms: C_12  and  C_13 
REMARK    9  A    between atoms: C_13  and  C_14 
REMARK   10  A    between atoms: C_14  and  N_15 
REMARK   11  A    between atoms: C_24  and  N_25 
ROOT
HETATM    1  C   UNL     1      42.837 -14.803   3.722  1.00  0.00     0.061 A 
HETATM    2  C   UNL     1      42.646 -15.369   2.433  1.00  0.00     0.043 A 
HETATM    3  C   UNL     1      42.909 -16.745   2.306  1.00  0.00     0.032 A 
HETATM    4  C   UNL     1      43.312 -17.527   3.398  1.00  0.00     0.038 A 
HETATM    5  C   UNL     1      43.489 -16.935   4.651  1.00  0.00     0.104 A 
HETATM    6  C   UNL     1      43.257 -15.571   4.820  1.00  0.00     0.055 A 
ENDROOT
BRANCH   1   7
HETATM    7  C   UNL     1      42.636 -13.356   3.991  1.00  0.00     0.258 C 
HETATM    8  N   UNL     1      42.033 -13.090   5.207  1.00  0.00    -0.316 N 
HETATM    9  H   UNL     1      41.756 -13.875   5.790  1.00  0.00     0.169 HD
HETATM   10  O   UNL     1      43.000 -12.567   3.131  1.00  0.00    -0.267 OA
BRANCH   8  11
HETATM   11  C   UNL     1      41.782 -11.837   5.751  1.00  0.00     0.094 A 
HETATM   12  C   UNL     1      42.684 -11.045   6.455  1.00  0.00     0.080 A 
HETATM   13  C   UNL     1      42.088  -9.762   6.784  1.00  0.00    -0.026 A 
HETATM   14  C   UNL     1      40.800  -9.662   6.290  1.00  0.00    -0.008 A 
HETATM   15  C   UNL     1      42.722  -8.612   7.522  1.00  0.00     0.041 C 
HETATM   16  S   UNL     1      40.280 -11.082   5.530  1.00  0.00    -0.075 SA
HETATM   17  C   UNL     1      39.900  -8.471   6.421  1.00  0.00     0.047 C 
HETATM   18  C   UNL     1      40.708  -7.229   6.817  1.00  0.00     0.005 C 
HETATM   19  C   UNL     1      41.696  -7.547   7.945  1.00  0.00     0.005 C 
BRANCH  12  20
HETATM   20  C   UNL     1      44.025 -11.529   6.800  1.00  0.00     0.296 C 
HETATM   21  O   UNL     1      44.816 -11.939   5.953  1.00  0.00    -0.259 OA
BRANCH  20  22
HETATM   22  O   UNL     1      44.283 -11.500   8.135  1.00  0.00    -0.318 OA
BRANCH  22  23
HETATM   23  C   UNL     1      45.424 -10.744   8.565  1.00  0.00     0.174 C 
HETATM   24  C   UNL     1      45.133 -10.088   9.900  1.00  0.00     0.034 C 
ENDBRANCH  22  23
ENDBRANCH  20  22
ENDBRANCH  12  20
ENDBRANCH   8  11
ENDBRANCH   1   7
BRANCH   2  25
HETATM   25  N   UNL     1      42.391 -14.554   1.316  1.00  0.00    -0.389 N 
HETATM   26  H   UNL     1      42.651 -13.581   1.486  1.00  0.00     0.159 HD
BRANCH  25  27
HETATM   27  C   UNL     1      41.154 -14.683   0.557  1.00  0.00     0.121 C 
BRANCH  27  28
HETATM   28  C   UNL     1      39.967 -14.408   1.486  1.00  0.00     0.047 C 
BRANCH  28  29
HETATM   29  C   UNL     1      39.788 -12.909   1.713  1.00  0.00     0.236 C 
BRANCH  29  30
HETATM   30  N   UNL     1      38.552 -12.393   0.998  1.00  0.00    -0.067 N 
HETATM   31  H   UNL     1      37.879 -13.165   0.925  1.00  0.00     0.280 HD
HETATM   32  C   UNL     1      37.865 -11.234   1.721  1.00  0.00     0.261 C 
HETATM   33  C   UNL     1      36.651 -10.770   0.908  1.00  0.00     0.195 C 
HETATM   34  O   UNL     1      37.033 -10.380  -0.414  1.00  0.00    -0.388 OA
HETATM   35  C   UNL     1      37.629 -11.463  -1.137  1.00  0.00     0.195 C 
HETATM   36  C   UNL     1      38.895 -11.961  -0.433  1.00  0.00     0.261 C 
ENDBRANCH  29  30
ENDBRANCH  28  29
ENDBRANCH  27  28
ENDBRANCH  25  27
ENDBRANCH   2  25
BRANCH   5  37
HETATM   37  N   UNL     1      43.931 -17.750   5.788  1.00  0.00    -0.116 N 
HETATM   38  O   UNL     1      43.985 -18.976   5.624  1.00  0.00    -0.532 OA
HETATM   39  O   UNL     1      44.213 -17.162   6.840  1.00  0.00    -0.532 OA
ENDBRANCH   5  37
TORSDOF 11
ENDMDL
MODEL 6
REMARK VINA RESULT:      -7.0      2.976      6.677
REMARK  11 active torsions:
REMARK  status: ('A' for Active; 'I' for Inactive)
REMARK    1  A    between atoms: C_2  and  O_3 
REMARK    2  A    between atoms: O_3  and  C_4 
REMARK    3  A    between atoms: C_4  and  C_5 
REMARK    4  A    between atoms: C_6  and  N_7 
REMARK       I    between atoms: N_7  and  C_8 
REMARK    5  A    between atoms: C_8  and  C_9 
REMARK    6  A    between atoms: C_10  and  N_11 
REMARK    7  A    between atoms: N_11  and  C_12 
REMARK    8  A    between atoms: C_12  and  C_13 
REMARK    9  A    between atoms: C_13  and  C_14 
REMARK   10  A    between atoms: C_14  and  N_15 
REMARK   11  A    between atoms: C_24  and  N_25 
ROOT
HETATM    1  C   UNL     1      42.604 -15.099   3.280  1.00  0.00     0.061 A 
HETATM    2  C   UNL     1      42.393 -15.619   1.975  1.00  0.00     0.043 A 
HETATM    3  C   UNL     1      42.790 -16.950   1.757  1.00  0.00     0.032 A 
HETATM    4  C   UNL     1      43.340 -17.737   2.778  1.00  0.00     0.038 A 
HETATM    5  C   UNL     1      43.532 -17.192   4.050  1.00  0.00     0.104 A 
HETATM    6  C   UNL     1      43.169 -15.872   4.308  1.00  0.00     0.055 A 
ENDROOT
BRANCH   1   7
HETATM    7  C   UNL     1      42.270 -13.699   3.642  1.00  0.00     0.258 C 
HETATM    8  N   UNL     1      41.831 -13.544   4.944  1.00  0.00    -0.316 N 
HETATM    9  H   UNL     1      41.745 -14.373   5.526  1.00  0.00     0.169 HD
HETATM   10  O   UNL     1      42.398 -12.847   2.774  1.00  0.00    -0.267 OA
BRANCH   8  11
HETATM   11  C   UNL     1      41.513 -12.348   5.575  1.00  0.00     0.094 A 
HETATM   12  C   UNL     1      42.405 -11.343   5.941  1.00  0.00     0.080 A 
HETATM   13  C   UNL     1      41.691 -10.204   6.491  1.00  0.00    -0.026 A 
HETATM   14  C   UNL     1      40.324 -10.412   6.481  1.00  0.00    -0.008 A 
HETATM   15  C   UNL     1      42.270  -8.907   6.992  1.00  0.00     0.041 C 
HETATM   16  S   UNL     1      39.900 -11.948   5.914  1.00  0.00    -0.075 SA
HETATM   17  C   UNL     1      39.285  -9.438   6.950  1.00  0.00     0.047 C 
HETATM   18  C   UNL     1      39.885  -8.032   7.073  1.00  0.00     0.005 C 
HETATM   19  C   UNL     1      41.247  -8.068   7.775  1.00  0.00     0.005 C 
BRANCH  12  20
HETATM   20  C   UNL     1      43.853 -11.507   5.782  1.00  0.00     0.296 C 
HETATM   21  O   UNL     1      44.447 -11.171   4.758  1.00  0.00    -0.259 OA
BRANCH  20  22
HETATM   22  O   UNL     1      44.453 -12.082   6.859  1.00  0.00    -0.318 OA
BRANCH  22  23
HETATM   23  C   UNL     1      44.869 -11.210   7.919  1.00  0.00     0.174 C 
HETATM   24  C   UNL     1      46.234 -10.631   7.604  1.00  0.00     0.034 C 
ENDBRANCH  22  23
ENDBRANCH  20  22
ENDBRANCH  12  20
ENDBRANCH   8  11
ENDBRANCH   1   7
BRANCH   2  25
HETATM   25  N   UNL     1      41.985 -14.781   0.921  1.00  0.00    -0.389 N 
HETATM   26  H   UNL     1      42.356 -13.835   1.021  1.00  0.00     0.159 HD
BRANCH  25  27
HETATM   27  C   UNL     1      40.612 -14.801   0.433  1.00  0.00     0.121 C 
BRANCH  27  28
HETATM   28  C   UNL     1      40.200 -13.377   0.044  1.00  0.00     0.047 C 
BRANCH  28  29
HETATM   29  C   UNL     1      40.103 -13.234  -1.474  1.00  0.00     0.236 C 
BRANCH  29  30
HETATM   30  N   UNL     1      40.800 -11.971  -1.947  1.00  0.00    -0.067 N 
HETATM   31  H   UNL     1      41.713 -12.236  -2.336  1.00  0.00     0.280 HD
HETATM   32  C   UNL     1      40.029 -11.213  -3.027  1.00  0.00     0.261 C 
HETATM   33  C   UNL     1      40.799  -9.946  -3.415  1.00  0.00     0.195 C 
HETATM   34  O   UNL     1      41.022  -9.108  -2.277  1.00  0.00    -0.388 OA
HETATM   35  C   UNL     1      41.793  -9.773  -1.270  1.00  0.00     0.195 C 
HETATM   36  C   UNL     1      41.073 -11.028  -0.769  1.00  0.00     0.261 C 
ENDBRANCH  29  30
ENDBRANCH  28  29
ENDBRANCH  27  28
ENDBRANCH  25  27
ENDBRANCH   2  25
BRANCH   5  37
HETATM   37  N   UNL     1      44.127 -18.011   5.113  1.00  0.00    -0.116 N 
HETATM   38  O   UNL     1      44.513 -19.148   4.809  1.00  0.00    -0.532 OA
HETATM   39  O   UNL     1      44.197 -17.517   6.245  1.00  0.00    -0.532 OA
ENDBRANCH   5  37
TORSDOF 11
ENDMDL
MODEL 7
REMARK VINA RESULT:      -7.0      2.080      3.391
REMARK  11 active torsions:
REMARK  status: ('A' for Active; 'I' for Inactive)
REMARK    1  A    between atoms: C_2  and  O_3 
REMARK    2  A    between atoms: O_3  and  C_4 
REMARK    3  A    between atoms: C_4  and  C_5 
REMARK    4  A    between atoms: C_6  and  N_7 
REMARK       I    between atoms: N_7  and  C_8 
REMARK    5  A    between atoms: C_8  and  C_9 
REMARK    6  A    between atoms: C_10  and  N_11 
REMARK    7  A    between atoms: N_11  and  C_12 
REMARK    8  A    between atoms: C_12  and  C_13 
REMARK    9  A    between atoms: C_13  and  C_14 
REMARK   10  A    between atoms: C_14  and  N_15 
REMARK   11  A    between atoms: C_24  and  N_25 
ROOT
HETATM    1  C   UNL     1      42.324 -14.674   5.109  1.00  0.00     0.061 A 
HETATM    2  C   UNL     1      43.172 -14.270   6.175  1.00  0.00     0.043 A 
HETATM    3  C   UNL     1      44.186 -15.169   6.546  1.00  0.00     0.032 A 
HETATM    4  C   UNL     1      44.374 -16.391   5.884  1.00  0.00     0.038 A 
HETATM    5  C   UNL     1      43.522 -16.754   4.839  1.00  0.00     0.104 A 
HETATM    6  C   UNL     1      42.491 -15.902   4.447  1.00  0.00     0.055 A 
ENDROOT
BRANCH   1   7
HETATM    7  C   UNL     1      41.188 -13.842   4.638  1.00  0.00     0.258 C 
HETATM    8  N   UNL     1      41.418 -13.207   3.432  1.00  0.00    -0.316 N 
HETATM    9  H   UNL     1      42.325 -13.327   2.989  1.00  0.00     0.169 HD
HETATM   10  O   UNL     1      40.195 -13.792   5.349  1.00  0.00    -0.267 OA
BRANCH   8  11
HETATM   11  C   UNL     1      40.517 -12.423   2.722  1.00  0.00     0.094 A 
HETATM   12  C   UNL     1      39.801 -12.806   1.592  1.00  0.00     0.080 A 
HETATM   13  C   UNL     1      38.887 -11.751   1.186  1.00  0.00    -0.026 A 
HETATM   14  C   UNL     1      38.957 -10.667   2.041  1.00  0.00    -0.008 A 
HETATM   15  C   UNL     1      37.923 -11.760   0.029  1.00  0.00     0.041 C 
HETATM   16  S   UNL     1      40.131 -10.856   3.244  1.00  0.00    -0.075 SA
HETATM   17  C   UNL     1      38.139  -9.415   1.940  1.00  0.00     0.047 C 
HETATM   18  C   UNL     1      36.935  -9.635   1.014  1.00  0.00     0.005 C 
HETATM   19  C   UNL     1      37.347 -10.366  -0.268  1.00  0.00     0.005 C 
BRANCH  12  20
HETATM   20  C   UNL     1      40.019 -14.104   0.946  1.00  0.00     0.296 C 
HETATM   21  O   UNL     1      39.818 -15.170   1.524  1.00  0.00    -0.259 OA
BRANCH  20  22
HETATM   22  O   UNL     1      40.485 -14.001  -0.328  1.00  0.00    -0.318 OA
BRANCH  22  23
HETATM   23  C   UNL     1      39.686 -14.587  -1.366  1.00  0.00     0.174 C 
HETATM   24  C   UNL     1      39.868 -13.811  -2.655  1.00  0.00     0.034 C 
ENDBRANCH  22  23
ENDBRANCH  20  22
ENDBRANCH  12  20
ENDBRANCH   8  11
ENDBRANCH   1   7
BRANCH   2  25
HETATM   25  N   UNL     1      42.884 -13.119   6.930  1.00  0.00    -0.389 N 
HETATM   26  H   UNL     1      41.967 -13.175   7.376  1.00  0.00     0.159 HD
BRANCH  25  27
HETATM   27  C   UNL     1      43.182 -11.788   6.418  1.00  0.00     0.121 C 
BRANCH  27  28
HETATM   28  C   UNL     1      44.700 -11.584   6.407  1.00  0.00     0.047 C 
BRANCH  28  29
HETATM   29  C   UNL     1      45.204 -11.165   7.787  1.00  0.00     0.236 C 
BRANCH  29  30
HETATM   30  N   UNL     1      44.287 -10.129   8.410  1.00  0.00    -0.067 N 
HETATM   31  H   UNL     1      43.448 -10.048   7.822  1.00  0.00     0.280 HD
HETATM   32  C   UNL     1      43.836 -10.482   9.827  1.00  0.00     0.261 C 
HETATM   33  C   UNL     1      42.941  -9.364  10.375  1.00  0.00     0.195 C 
HETATM   34  O   UNL     1      43.621  -8.106  10.364  1.00  0.00    -0.388 OA
HETATM   35  C   UNL     1      44.005  -7.720   9.040  1.00  0.00     0.195 C 
HETATM   36  C   UNL     1      44.958  -8.750   8.424  1.00  0.00     0.261 C 
ENDBRANCH  29  30
ENDBRANCH  28  29
ENDBRANCH  27  28
ENDBRANCH  25  27
ENDBRANCH   2  25
BRANCH   5  37
HETATM   37  N   UNL     1      43.706 -18.042   4.160  1.00  0.00    -0.116 N 
HETATM   38  O   UNL     1      43.389 -18.107   2.964  1.00  0.00    -0.532 OA
HETATM   39  O   UNL     1      44.160 -18.981   4.825  1.00  0.00    -0.532 OA
ENDBRANCH   5  37
TORSDOF 11
ENDMDL
MODEL 8
REMARK VINA RESULT:      -6.9      2.837      7.456
REMARK  11 active torsions:
REMARK  status: ('A' for Active; 'I' for Inactive)
REMARK    1  A    between atoms: C_2  and  O_3 
REMARK    2  A    between atoms: O_3  and  C_4 
REMARK    3  A    between atoms: C_4  and  C_5 
REMARK    4  A    between atoms: C_6  and  N_7 
REMARK       I    between atoms: N_7  and  C_8 
REMARK    5  A    between atoms: C_8  and  C_9 
REMARK    6  A    between atoms: C_10  and  N_11 
REMARK    7  A    between atoms: N_11  and  C_12 
REMARK    8  A    between atoms: C_12  and  C_13 
REMARK    9  A    between atoms: C_13  and  C_14 
REMARK   10  A    between atoms: C_14  and  N_15 
REMARK   11  A    between atoms: C_24  and  N_25 
ROOT
HETATM    1  C   UNL     1      40.857 -12.737   1.326  1.00  0.00     0.061 A 
HETATM    2  C   UNL     1      41.075 -14.128   1.510  1.00  0.00     0.043 A 
HETATM    3  C   UNL     1      40.473 -14.988   0.574  1.00  0.00     0.032 A 
HETATM    4  C   UNL     1      39.719 -14.501  -0.503  1.00  0.00     0.038 A 
HETATM    5  C   UNL     1      39.527 -13.125  -0.653  1.00  0.00     0.104 A 
HETATM    6  C   UNL     1      40.090 -12.236   0.260  1.00  0.00     0.055 A 
ENDROOT
BRANCH   1   7
HETATM    7  C   UNL     1      41.399 -11.717   2.259  1.00  0.00     0.258 C 
HETATM    8  N   UNL     1      40.557 -11.418   3.314  1.00  0.00    -0.316 N 
HETATM    9  H   UNL     1      39.651 -11.878   3.355  1.00  0.00     0.169 HD
HETATM   10  O   UNL     1      42.498 -11.247   2.004  1.00  0.00    -0.267 OA
BRANCH   8  11
HETATM   11  C   UNL     1      40.826 -10.557   4.371  1.00  0.00     0.094 A 
HETATM   12  C   UNL     1      41.597 -10.843   5.494  1.00  0.00     0.080 A 
HETATM   13  C   UNL     1      41.730  -9.665   6.334  1.00  0.00    -0.026 A 
HETATM   14  C   UNL     1      41.079  -8.577   5.784  1.00  0.00    -0.008 A 
HETATM   15  C   UNL     1      42.491  -9.535   7.628  1.00  0.00     0.041 C 
HETATM   16  S   UNL     1      40.261  -8.959   4.353  1.00  0.00    -0.075 SA
HETATM   17  C   UNL     1      41.030  -7.197   6.366  1.00  0.00     0.047 C 
HETATM   18  C   UNL     1      42.114  -7.029   7.438  1.00  0.00     0.005 C 
HETATM   19  C   UNL     1      42.156  -8.237   8.380  1.00  0.00     0.005 C 
BRANCH  12  20
HETATM   20  C   UNL     1      42.141 -12.184   5.733  1.00  0.00     0.296 C 
HETATM   21  O   UNL     1      41.440 -13.123   6.107  1.00  0.00    -0.259 OA
BRANCH  20  22
HETATM   22  O   UNL     1      43.482 -12.268   5.524  1.00  0.00    -0.318 OA
BRANCH  22  23
HETATM   23  C   UNL     1      44.302 -12.592   6.656  1.00  0.00     0.174 C 
HETATM   24  C   UNL     1      45.413 -11.571   6.797  1.00  0.00     0.034 C 
ENDBRANCH  22  23
ENDBRANCH  20  22
ENDBRANCH  12  20
ENDBRANCH   8  11
ENDBRANCH   1   7
BRANCH   2  25
HETATM   25  N   UNL     1      41.701 -14.615   2.672  1.00  0.00    -0.389 N 
HETATM   26  H   UNL     1      42.683 -14.842   2.510  1.00  0.00     0.159 HD
BRANCH  25  27
HETATM   27  C   UNL     1      41.035 -15.578   3.539  1.00  0.00     0.121 C 
BRANCH  27  28
HETATM   28  C   UNL     1      42.095 -16.407   4.272  1.00  0.00     0.047 C 
BRANCH  28  29
HETATM   29  C   UNL     1      43.376 -16.507   3.446  1.00  0.00     0.236 C 
BRANCH  29  30
HETATM   30  N   UNL     1      43.897 -17.932   3.418  1.00  0.00    -0.067 N 
HETATM   31  H   UNL     1      44.878 -17.909   3.114  1.00  0.00     0.280 HD
HETATM   32  C   UNL     1      43.839 -18.633   4.775  1.00  0.00     0.261 C 
HETATM   33  C   UNL     1      44.358 -20.069   4.634  1.00  0.00     0.195 C 
HETATM   34  O   UNL     1      43.605 -20.797   3.662  1.00  0.00    -0.388 OA
HETATM   35  C   UNL     1      43.686 -20.196   2.365  1.00  0.00     0.195 C 
HETATM   36  C   UNL     1      43.130 -18.769   2.387  1.00  0.00     0.261 C 
ENDBRANCH  29  30
ENDBRANCH  28  29
ENDBRANCH  27  28
ENDBRANCH  25  27
ENDBRANCH   2  25
BRANCH   5  37
HETATM   37  N   UNL     1      38.721 -12.618  -1.769  1.00  0.00    -0.116 N 
HETATM   38  O   UNL     1      39.205 -12.703  -2.906  1.00  0.00    -0.532 OA
HETATM   39  O   UNL     1      37.615 -12.131  -1.503  1.00  0.00    -0.532 OA
ENDBRANCH   5  37
TORSDOF 11
ENDMDL
MODEL 9
REMARK VINA RESULT:      -6.9      3.068      8.323
REMARK  11 active torsions:
REMARK  status: ('A' for Active; 'I' for Inactive)
REMARK    1  A    between atoms: C_2  and  O_3 
REMARK    2  A    between atoms: O_3  and  C_4 
REMARK    3  A    between atoms: C_4  and  C_5 
REMARK    4  A    between atoms: C_6  and  N_7 
REMARK       I    between atoms: N_7  and  C_8 
REMARK    5  A    between atoms: C_8  and  C_9 
REMARK    6  A    between atoms: C_10  and  N_11 
REMARK    7  A    between atoms: N_11  and  C_12 
REMARK    8  A    between atoms: C_12  and  C_13 
REMARK    9  A    between atoms: C_13  and  C_14 
REMARK   10  A    between atoms: C_14  and  N_15 
REMARK   11  A    between atoms: C_24  and  N_25 
ROOT
HETATM    1  C   UNL     1      41.157 -11.515   2.161  1.00  0.00     0.061 A 
HETATM    2  C   UNL     1      40.731 -12.659   1.436  1.00  0.00     0.043 A 
HETATM    3  C   UNL     1      40.661 -12.528   0.038  1.00  0.00     0.032 A 
HETATM    4  C   UNL     1      41.019 -11.339  -0.614  1.00  0.00     0.038 A 
HETATM    5  C   UNL     1      41.434 -10.234   0.132  1.00  0.00     0.104 A 
HETATM    6  C   UNL     1      41.503 -10.313   1.521  1.00  0.00     0.055 A 
ENDROOT
BRANCH   1   7
HETATM    7  C   UNL     1      41.240 -11.498   3.643  1.00  0.00     0.258 C 
HETATM    8  N   UNL     1      42.097 -10.538   4.148  1.00  0.00    -0.316 N 
HETATM    9  H   UNL     1      42.611  -9.956   3.491  1.00  0.00     0.169 HD
HETATM   10  O   UNL     1      40.572 -12.321   4.254  1.00  0.00    -0.267 OA
BRANCH   8  11
HETATM   11  C   UNL     1      42.322 -10.249   5.488  1.00  0.00     0.094 A 
HETATM   12  C   UNL     1      43.405 -10.672   6.254  1.00  0.00     0.080 A 
HETATM   13  C   UNL     1      43.345 -10.092   7.585  1.00  0.00    -0.026 A 
HETATM   14  C   UNL     1      42.249  -9.260   7.724  1.00  0.00    -0.008 A 
HETATM   15  C   UNL     1      44.321 -10.276   8.716  1.00  0.00     0.041 C 
HETATM   16  S   UNL     1      41.270  -9.232   6.344  1.00  0.00    -0.075 SA
HETATM   17  C   UNL     1      41.891  -8.478   8.951  1.00  0.00     0.047 C 
HETATM   18  C   UNL     1      43.092  -8.393   9.902  1.00  0.00     0.005 C 
HETATM   19  C   UNL     1      43.775  -9.757  10.056  1.00  0.00     0.005 C 
BRANCH  12  20
HETATM   20  C   UNL     1      44.407 -11.600   5.722  1.00  0.00     0.296 C 
HETATM   21  O   UNL     1      45.143 -11.307   4.781  1.00  0.00    -0.259 OA
BRANCH  20  22
HETATM   22  O   UNL     1      44.417 -12.805   6.352  1.00  0.00    -0.318 OA
BRANCH  22  23
HETATM   23  C   UNL     1      43.253 -13.630   6.205  1.00  0.00     0.174 C 
HETATM   24  C   UNL     1      43.133 -14.566   7.391  1.00  0.00     0.034 C 
ENDBRANCH  22  23
ENDBRANCH  20  22
ENDBRANCH  12  20
ENDBRANCH   8  11
ENDBRANCH   1   7
BRANCH   2  25
HETATM   25  N   UNL     1      40.231 -13.793   2.103  1.00  0.00    -0.389 N 
HETATM   26  H   UNL     1      40.600 -13.870   3.053  1.00  0.00     0.159 HD
BRANCH  25  27
HETATM   27  C   UNL     1      40.134 -15.081   1.430  1.00  0.00     0.121 C 
BRANCH  27  28
HETATM   28  C   UNL     1      41.438 -15.857   1.644  1.00  0.00     0.047 C 
BRANCH  28  29
HETATM   29  C   UNL     1      41.828 -15.869   3.120  1.00  0.00     0.236 C 
BRANCH  29  30
HETATM   30  N   UNL     1      42.447 -17.199   3.509  1.00  0.00    -0.067 N 
HETATM   31  H   UNL     1      41.702 -17.806   3.873  1.00  0.00     0.280 HD
HETATM   32  C   UNL     1      43.120 -17.926   2.344  1.00  0.00     0.261 C 
HETATM   33  C   UNL     1      43.736 -19.238   2.844  1.00  0.00     0.195 C 
HETATM   34  O   UNL     1      44.675 -19.000   3.896  1.00  0.00    -0.388 OA
HETATM   35  C   UNL     1      44.061 -18.371   5.026  1.00  0.00     0.195 C 
HETATM   36  C   UNL     1      43.466 -17.013   4.640  1.00  0.00     0.261 C 
ENDBRANCH  29  30
ENDBRANCH  28  29
ENDBRANCH  27  28
ENDBRANCH  25  27
ENDBRANCH   2  25
BRANCH   5  37
HETATM   37  N   UNL     1      41.789  -8.984  -0.550  1.00  0.00    -0.116 N 
HETATM   38  O   UNL     1      42.981  -8.810  -0.838  1.00  0.00    -0.532 OA
HETATM   39  O   UNL     1      40.878  -8.182  -0.787  1.00  0.00    -0.532 OA
ENDBRANCH   5  37
TORSDOF 11
ENDMDL
MODEL 10
REMARK VINA RESULT:      -6.9      3.066      7.325
REMARK  11 active torsions:
REMARK  status: ('A' for Active; 'I' for Inactive)
REMARK    1  A    between atoms: C_2  and  O_3 
REMARK    2  A    between atoms: O_3  and  C_4 
REMARK    3  A    between atoms: C_4  and  C_5 
REMARK    4  A    between atoms: C_6  and  N_7 
REMARK       I    between atoms: N_7  and  C_8 
REMARK    5  A    between atoms: C_8  and  C_9 
REMARK    6  A    between atoms: C_10  and  N_11 
REMARK    7  A    between atoms: N_11  and  C_12 
REMARK    8  A    between atoms: C_12  and  C_13 
REMARK    9  A    between atoms: C_13  and  C_14 
REMARK   10  A    between atoms: C_14  and  N_15 
REMARK   11  A    between atoms: C_24  and  N_25 
ROOT
HETATM    1  C   UNL     1      42.690 -14.431   3.338  1.00  0.00     0.061 A 
HETATM    2  C   UNL     1      41.694 -14.563   2.334  1.00  0.00     0.043 A 
HETATM    3  C   UNL     1      41.432 -15.867   1.877  1.00  0.00     0.032 A 
HETATM    4  C   UNL     1      42.096 -16.985   2.402  1.00  0.00     0.038 A 
HETATM    5  C   UNL     1      43.070 -16.816   3.389  1.00  0.00     0.104 A 
HETATM    6  C   UNL     1      43.375 -15.541   3.861  1.00  0.00     0.055 A 
ENDROOT
BRANCH   1   7
HETATM    7  C   UNL     1      43.097 -13.112   3.885  1.00  0.00     0.258 C 
HETATM    8  N   UNL     1      43.112 -13.056   5.266  1.00  0.00    -0.316 N 
HETATM    9  H   UNL     1      42.826 -13.882   5.785  1.00  0.00     0.169 HD
HETATM   10  O   UNL     1      43.357 -12.226   3.083  1.00  0.00    -0.267 OA
BRANCH   8  11
HETATM   11  C   UNL     1      43.513 -11.980   6.048  1.00  0.00     0.094 A 
HETATM   12  C   UNL     1      42.714 -10.921   6.469  1.00  0.00     0.080 A 
HETATM   13  C   UNL     1      43.459 -10.039   7.350  1.00  0.00    -0.026 A 
HETATM   14  C   UNL     1      44.747 -10.498   7.553  1.00  0.00    -0.008 A 
HETATM   15  C   UNL     1      42.969  -8.790   8.035  1.00  0.00     0.041 C 
HETATM   16  S   UNL     1      45.093 -11.892   6.658  1.00  0.00    -0.075 SA
HETATM   17  C   UNL     1      45.783  -9.853   8.423  1.00  0.00     0.047 C 
HETATM   18  C   UNL     1      45.129  -8.843   9.375  1.00  0.00     0.005 C 
HETATM   19  C   UNL     1      44.115  -7.961   8.638  1.00  0.00     0.005 C 
BRANCH  12  20
HETATM   20  C   UNL     1      41.327 -10.777   6.015  1.00  0.00     0.296 C 
HETATM   21  O   UNL     1      40.971  -9.875   5.258  1.00  0.00    -0.259 OA
BRANCH  20  22
HETATM   22  O   UNL     1      40.489 -11.715   6.532  1.00  0.00    -0.318 OA
BRANCH  22  23
HETATM   23  C   UNL     1      39.741 -12.510   5.601  1.00  0.00     0.174 C 
HETATM   24  C   UNL     1      39.944 -13.981   5.902  1.00  0.00     0.034 C 
ENDBRANCH  22  23
ENDBRANCH  20  22
ENDBRANCH  12  20
ENDBRANCH   8  11
ENDBRANCH   1   7
BRANCH   2  25
HETATM   25  N   UNL     1      41.144 -13.430   1.708  1.00  0.00    -0.389 N 
HETATM   26  H   UNL     1      40.697 -12.803   2.379  1.00  0.00     0.159 HD
BRANCH  25  27
HETATM   27  C   UNL     1      40.397 -13.547   0.462  1.00  0.00     0.121 C 
BRANCH  27  28
HETATM   28  C   UNL     1      40.895 -12.482  -0.521  1.00  0.00     0.047 C 
BRANCH  28  29
HETATM   29  C   UNL     1      39.737 -11.903  -1.330  1.00  0.00     0.236 C 
BRANCH  29  30
HETATM   30  N   UNL     1      40.059 -10.502  -1.816  1.00  0.00    -0.067 N 
HETATM   31  H   UNL     1      39.183  -9.965  -1.849  1.00  0.00     0.280 HD
HETATM   32  C   UNL     1      41.039  -9.750  -0.916  1.00  0.00     0.261 C 
HETATM   33  C   UNL     1      41.319  -8.363  -1.506  1.00  0.00     0.195 C 
HETATM   34  O   UNL     1      41.835  -8.462  -2.836  1.00  0.00    -0.388 OA
HETATM   35  C   UNL     1      40.913  -9.112  -3.718  1.00  0.00     0.195 C 
HETATM   36  C   UNL     1      40.615 -10.538  -3.245  1.00  0.00     0.261 C 
ENDBRANCH  29  30
ENDBRANCH  28  29
ENDBRANCH  27  28
ENDBRANCH  25  27
ENDBRANCH   2  25
BRANCH   5  37
HETATM   37  N   UNL     1      43.779 -17.984   3.923  1.00  0.00    -0.116 N 
HETATM   38  O   UNL     1      43.733 -19.031   3.262  1.00  0.00    -0.532 OA
HETATM   39  O   UNL     1      44.370 -17.852   5.002  1.00  0.00    -0.532 OA
ENDBRANCH   5  37
TORSDOF 11
ENDMDL
