MODEL 1
REMARK VINA RESULT:      -6.7      0.000      0.000
REMARK  5 active torsions:
REMARK  status: ('A' for Active; 'I' for Inactive)
REMARK    1  A    between atoms: C_2  and  C_3 
REMARK    2  A    between atoms: C_3  and  C_4 
REMARK    3  A    between atoms: C_10  and  C_11 
REMARK    4  A    between atoms: C_12  and  O_13 
REMARK    5  A    between atoms: C_22  and  N_23 
ROOT
HETATM    1  C   UNL     1      43.648 -12.997   6.703  1.00  0.00     0.066 A 
HETATM    2  N   UNL     1      44.794 -12.315   6.864  1.00  0.00    -0.177 NA
HETATM    3  N   UNL     1      44.648 -11.221   6.095  1.00  0.00    -0.256 N 
HETATM    4  H   UNL     1      45.399 -10.540   6.061  1.00  0.00     0.191 HD
HETATM    5  C   UNL     1      43.461 -11.198   5.440  1.00  0.00     0.175 A 
HETATM    6  C   UNL     1      42.777 -12.334   5.798  1.00  0.00     0.035 A 
HETATM    7  C   UNL     1      41.413 -12.576   5.239  1.00  0.00     0.107 A 
HETATM    8  C   UNL     1      41.064 -11.495   4.210  1.00  0.00     0.067 A 
HETATM    9  C   UNL     1      39.794 -11.702   3.399  1.00  0.00     0.020 C 
HETATM   10  N   UNL     1      38.740 -11.873   2.728  1.00  0.00    -0.096 N 
HETATM   11  C   UNL     1      41.857 -10.422   3.949  1.00  0.00     0.139 A 
HETATM   12  O   UNL     1      43.085 -10.235   4.606  1.00  0.00    -0.279 OA
ENDROOT
BRANCH   7  13
HETATM   13  C   UNL     1      41.414 -13.981   4.658  1.00  0.00    -0.010 A 
HETATM   14  C   UNL     1      40.535 -14.968   5.135  1.00  0.00     0.073 A 
HETATM   15  C   UNL     1      40.454 -16.226   4.537  1.00  0.00     0.038 A 
HETATM   16  C   UNL     1      41.276 -16.537   3.456  1.00  0.00     0.022 A 
HETATM   17  C   UNL     1      42.167 -15.583   2.977  1.00  0.00     0.011 A 
HETATM   18 BR   UNL     1      43.281 -15.996   1.507  1.00  0.00    -0.051 Br
HETATM   19  C   UNL     1      42.236 -14.316   3.561  1.00  0.00     0.030 A 
BRANCH  14  20
HETATM   20  O   UNL     1      39.703 -14.758   6.195  1.00  0.00    -0.360 OA
HETATM   21  H   UNL     1      40.234 -14.734   7.009  1.00  0.00     0.217 HD
ENDBRANCH  14  20
ENDBRANCH   7  13
BRANCH  11  22
HETATM   22  N   UNL     1      41.591  -9.434   3.030  1.00  0.00    -0.282 NA
HETATM   23  H   UNL     1      42.386  -9.100   2.490  1.00  0.00     0.126 HD
HETATM   24  H   UNL     1      41.034  -8.681   3.425  1.00  0.00     0.126 HD
ENDBRANCH  11  22
BRANCH   1  25
HETATM   25  C   UNL     1      43.465 -14.295   7.424  1.00  0.00     0.061 C 
BRANCH  25  26
HETATM   26  C   UNL     1      43.967 -15.516   6.649  1.00  0.00     0.002 C 
HETATM   27  C   UNL     1      43.212 -16.791   6.998  1.00  0.00     0.005 C 
ENDBRANCH  25  26
ENDBRANCH   1  25
TORSDOF 5
ENDMDL
MODEL 2
REMARK VINA RESULT:      -6.5      2.466      4.402
REMARK  5 active torsions:
REMARK  status: ('A' for Active; 'I' for Inactive)
REMARK    1  A    between atoms: C_2  and  C_3 
REMARK    2  A    between atoms: C_3  and  C_4 
REMARK    3  A    between atoms: C_10  and  C_11 
REMARK    4  A    between atoms: C_12  and  O_13 
REMARK    5  A    between atoms: C_22  and  N_23 
ROOT
HETATM    1  C   UNL     1      41.387 -15.530   1.681  1.00  0.00     0.066 A 
HETATM    2  N   UNL     1      40.548 -15.368   0.644  1.00  0.00    -0.177 NA
HETATM    3  N   UNL     1      40.515 -14.038   0.439  1.00  0.00    -0.256 N 
HETATM    4  H   UNL     1      39.942 -13.671  -0.312  1.00  0.00     0.191 HD
HETATM    5  C   UNL     1      41.286 -13.356   1.321  1.00  0.00     0.175 A 
HETATM    6  C   UNL     1      41.870 -14.280   2.152  1.00  0.00     0.035 A 
HETATM    7  C   UNL     1      42.799 -13.817   3.227  1.00  0.00     0.107 A 
HETATM    8  C   UNL     1      42.831 -12.286   3.274  1.00  0.00     0.067 A 
HETATM    9  C   UNL     1      43.573 -11.650   4.440  1.00  0.00     0.020 C 
HETATM   10  N   UNL     1      44.189 -11.122   5.405  1.00  0.00    -0.096 N 
HETATM   11  C   UNL     1      42.184 -11.493   2.380  1.00  0.00     0.139 A 
HETATM   12  O   UNL     1      41.410 -12.034   1.339  1.00  0.00    -0.279 OA
ENDROOT
BRANCH   7  13
HETATM   13  C   UNL     1      42.325 -14.450   4.526  1.00  0.00    -0.010 A 
HETATM   14  C   UNL     1      40.998 -14.311   4.963  1.00  0.00     0.073 A 
HETATM   15  C   UNL     1      40.527 -14.976   6.096  1.00  0.00     0.038 A 
HETATM   16  C   UNL     1      41.388 -15.780   6.838  1.00  0.00     0.022 A 
HETATM   17  C   UNL     1      42.712 -15.920   6.435  1.00  0.00     0.011 A 
HETATM   18 BR   UNL     1      43.885 -17.016   7.434  1.00  0.00    -0.051 Br
HETATM   19  C   UNL     1      43.180 -15.271   5.290  1.00  0.00     0.030 A 
BRANCH  14  20
HETATM   20  O   UNL     1      40.088 -13.534   4.307  1.00  0.00    -0.360 OA
HETATM   21  H   UNL     1      39.749 -12.863   4.923  1.00  0.00     0.217 HD
ENDBRANCH  14  20
ENDBRANCH   7  13
BRANCH  11  22
HETATM   22  N   UNL     1      42.177 -10.118   2.388  1.00  0.00    -0.282 NA
HETATM   23  H   UNL     1      41.869  -9.678   3.252  1.00  0.00     0.126 HD
HETATM   24  H   UNL     1      41.727  -9.730   1.562  1.00  0.00     0.126 HD
ENDBRANCH  11  22
BRANCH   1  25
HETATM   25  C   UNL     1      41.658 -16.910   2.189  1.00  0.00     0.061 C 
BRANCH  25  26
HETATM   26  C   UNL     1      43.132 -17.318   2.132  1.00  0.00     0.002 C 
HETATM   27  C   UNL     1      43.522 -18.290   3.238  1.00  0.00     0.005 C 
ENDBRANCH  25  26
ENDBRANCH   1  25
TORSDOF 5
ENDMDL
MODEL 3
REMARK VINA RESULT:      -6.2      2.574      4.659
REMARK  5 active torsions:
REMARK  status: ('A' for Active; 'I' for Inactive)
REMARK    1  A    between atoms: C_2  and  C_3 
REMARK    2  A    between atoms: C_3  and  C_4 
REMARK    3  A    between atoms: C_10  and  C_11 
REMARK    4  A    between atoms: C_12  and  O_13 
REMARK    5  A    between atoms: C_22  and  N_23 
ROOT
HETATM    1  C   UNL     1      41.801 -14.312   1.512  1.00  0.00     0.066 A 
HETATM    2  N   UNL     1      40.918 -14.968   0.740  1.00  0.00    -0.177 NA
HETATM    3  N   UNL     1      39.791 -14.236   0.818  1.00  0.00    -0.256 N 
HETATM    4  H   UNL     1      38.973 -14.539   0.302  1.00  0.00     0.191 HD
HETATM    5  C   UNL     1      39.925 -13.156   1.626  1.00  0.00     0.175 A 
HETATM    6  C   UNL     1      41.212 -13.163   2.105  1.00  0.00     0.035 A 
HETATM    7  C   UNL     1      41.661 -12.069   3.018  1.00  0.00     0.107 A 
HETATM    8  C   UNL     1      40.483 -11.151   3.363  1.00  0.00     0.067 A 
HETATM    9  C   UNL     1      40.721 -10.103   4.439  1.00  0.00     0.020 C 
HETATM   10  N   UNL     1      40.918  -9.233   5.329  1.00  0.00    -0.096 N 
HETATM   11  C   UNL     1      39.247 -11.277   2.812  1.00  0.00     0.139 A 
HETATM   12  O   UNL     1      38.953 -12.288   1.881  1.00  0.00    -0.279 OA
ENDROOT
BRANCH   7  13
HETATM   13  C   UNL     1      42.282 -12.734   4.236  1.00  0.00    -0.010 A 
HETATM   14  C   UNL     1      43.444 -12.222   4.835  1.00  0.00     0.073 A 
HETATM   15  C   UNL     1      43.958 -12.761   6.015  1.00  0.00     0.038 A 
HETATM   16  C   UNL     1      43.332 -13.851   6.612  1.00  0.00     0.022 A 
HETATM   17  C   UNL     1      42.189 -14.388   6.030  1.00  0.00     0.011 A 
HETATM   18 BR   UNL     1      41.329 -15.865   6.839  1.00  0.00    -0.051 Br
HETATM   19  C   UNL     1      41.661 -13.838   4.859  1.00  0.00     0.030 A 
BRANCH  14  20
HETATM   20  O   UNL     1      44.131 -11.165   4.314  1.00  0.00    -0.360 OA
HETATM   21  H   UNL     1      44.870 -11.505   3.781  1.00  0.00     0.217 HD
ENDBRANCH  14  20
ENDBRANCH   7  13
BRANCH  11  22
HETATM   22  N   UNL     1      38.160 -10.484   3.096  1.00  0.00    -0.282 NA
HETATM   23  H   UNL     1      37.288 -10.742   2.639  1.00  0.00     0.126 HD
HETATM   24  H   UNL     1      38.373  -9.493   3.015  1.00  0.00     0.126 HD
ENDBRANCH  11  22
BRANCH   1  25
HETATM   25  C   UNL     1      43.185 -14.858   1.661  1.00  0.00     0.061 C 
BRANCH  25  26
HETATM   26  C   UNL     1      43.241 -16.379   1.831  1.00  0.00     0.002 C 
HETATM   27  C   UNL     1      43.199 -16.815   3.289  1.00  0.00     0.005 C 
ENDBRANCH  25  26
ENDBRANCH   1  25
TORSDOF 5
ENDMDL
MODEL 4
REMARK VINA RESULT:      -6.1      3.251      5.228
REMARK  5 active torsions:
REMARK  status: ('A' for Active; 'I' for Inactive)
REMARK    1  A    between atoms: C_2  and  C_3 
REMARK    2  A    between atoms: C_3  and  C_4 
REMARK    3  A    between atoms: C_10  and  C_11 
REMARK    4  A    between atoms: C_12  and  O_13 
REMARK    5  A    between atoms: C_22  and  N_23 
ROOT
HETATM    1  C   UNL     1      43.171 -14.432   6.339  1.00  0.00     0.066 A 
HETATM    2  N   UNL     1      43.200 -14.502   7.681  1.00  0.00    -0.177 NA
HETATM    3  N   UNL     1      43.428 -15.801   7.947  1.00  0.00    -0.256 N 
HETATM    4  H   UNL     1      43.498 -16.099   8.914  1.00  0.00     0.191 HD
HETATM    5  C   UNL     1      43.524 -16.555   6.825  1.00  0.00     0.175 A 
HETATM    6  C   UNL     1      43.359 -15.712   5.753  1.00  0.00     0.035 A 
HETATM    7  C   UNL     1      43.434 -16.265   4.367  1.00  0.00     0.107 A 
HETATM    8  C   UNL     1      43.570 -17.791   4.413  1.00  0.00     0.067 A 
HETATM    9  C   UNL     1      43.460 -18.531   3.088  1.00  0.00     0.020 C 
HETATM   10  N   UNL     1      43.369 -19.144   1.991  1.00  0.00    -0.096 N 
HETATM   11  C   UNL     1      43.714 -18.498   5.565  1.00  0.00     0.139 A 
HETATM   12  O   UNL     1      43.730 -17.867   6.821  1.00  0.00    -0.279 OA
ENDROOT
BRANCH   7  13
HETATM   13  C   UNL     1      42.187 -15.794   3.634  1.00  0.00    -0.010 A 
HETATM   14  C   UNL     1      40.902 -16.101   4.109  1.00  0.00     0.073 A 
HETATM   15  C   UNL     1      39.756 -15.584   3.504  1.00  0.00     0.038 A 
HETATM   16  C   UNL     1      39.870 -14.762   2.386  1.00  0.00     0.022 A 
HETATM   17  C   UNL     1      41.131 -14.457   1.886  1.00  0.00     0.011 A 
HETATM   18 BR   UNL     1      41.293 -13.338   0.371  1.00  0.00    -0.051 Br
HETATM   19  C   UNL     1      42.281 -14.958   2.501  1.00  0.00     0.030 A 
BRANCH  14  20
HETATM   20  O   UNL     1      40.693 -16.908   5.190  1.00  0.00    -0.360 OA
HETATM   21  H   UNL     1      41.230 -16.581   5.931  1.00  0.00     0.217 HD
ENDBRANCH  14  20
ENDBRANCH   7  13
BRANCH  11  22
HETATM   22  N   UNL     1      43.831 -19.865   5.656  1.00  0.00    -0.282 NA
HETATM   23  H   UNL     1      43.793 -20.255   6.595  1.00  0.00     0.126 HD
HETATM   24  H   UNL     1      44.609 -20.223   5.108  1.00  0.00     0.126 HD
ENDBRANCH  11  22
BRANCH   1  25
HETATM   25  C   UNL     1      42.929 -13.110   5.684  1.00  0.00     0.061 C 
BRANCH  25  26
HETATM   26  C   UNL     1      41.458 -12.687   5.658  1.00  0.00     0.002 C 
HETATM   27  C   UNL     1      41.102 -11.854   4.434  1.00  0.00     0.005 C 
ENDBRANCH  25  26
ENDBRANCH   1  25
TORSDOF 5
ENDMDL
MODEL 5
REMARK VINA RESULT:      -6.1      1.797      4.168
REMARK  5 active torsions:
REMARK  status: ('A' for Active; 'I' for Inactive)
REMARK    1  A    between atoms: C_2  and  C_3 
REMARK    2  A    between atoms: C_3  and  C_4 
REMARK    3  A    between atoms: C_10  and  C_11 
REMARK    4  A    between atoms: C_12  and  O_13 
REMARK    5  A    between atoms: C_22  and  N_23 
ROOT
HETATM    1  C   UNL     1      40.252 -13.879   2.939  1.00  0.00     0.066 A 
HETATM    2  N   UNL     1      39.093 -13.252   2.672  1.00  0.00    -0.177 NA
HETATM    3  N   UNL     1      39.210 -12.055   3.275  1.00  0.00    -0.256 N 
HETATM    4  H   UNL     1      38.446 -11.393   3.204  1.00  0.00     0.191 HD
HETATM    5  C   UNL     1      40.390 -11.912   3.927  1.00  0.00     0.175 A 
HETATM    6  C   UNL     1      41.100 -13.073   3.743  1.00  0.00     0.035 A 
HETATM    7  C   UNL     1      42.464 -13.201   4.340  1.00  0.00     0.107 A 
HETATM    8  C   UNL     1      42.781 -11.975   5.202  1.00  0.00     0.067 A 
HETATM    9  C   UNL     1      44.048 -12.034   6.042  1.00  0.00     0.020 C 
HETATM   10  N   UNL     1      45.098 -12.082   6.738  1.00  0.00    -0.096 N 
HETATM   11  C   UNL     1      41.964 -10.892   5.299  1.00  0.00     0.139 A 
HETATM   12  O   UNL     1      40.739 -10.829   4.613  1.00  0.00    -0.279 OA
ENDROOT
BRANCH   7  13
HETATM   13  C   UNL     1      42.486 -14.506   5.119  1.00  0.00    -0.010 A 
HETATM   14  C   UNL     1      41.653 -14.706   6.232  1.00  0.00     0.073 A 
HETATM   15  C   UNL     1      41.589 -15.937   6.886  1.00  0.00     0.038 A 
HETATM   16  C   UNL     1      42.382 -16.996   6.455  1.00  0.00     0.022 A 
HETATM   17  C   UNL     1      43.229 -16.819   5.365  1.00  0.00     0.011 A 
HETATM   18 BR   UNL     1      44.304 -18.255   4.770  1.00  0.00    -0.051 Br
HETATM   19  C   UNL     1      43.280 -15.594   4.696  1.00  0.00     0.030 A 
BRANCH  14  20
HETATM   20  O   UNL     1      40.851 -13.723   6.733  1.00  0.00    -0.360 OA
HETATM   21  H   UNL     1      41.279 -12.863   6.579  1.00  0.00     0.217 HD
ENDBRANCH  14  20
ENDBRANCH   7  13
BRANCH  11  22
HETATM   22  N   UNL     1      42.202  -9.775   6.065  1.00  0.00    -0.282 NA
HETATM   23  H   UNL     1      42.496  -9.946   7.024  1.00  0.00     0.126 HD
HETATM   24  H   UNL     1      41.452  -9.092   5.994  1.00  0.00     0.126 HD
ENDBRANCH  11  22
BRANCH   1  25
HETATM   25  C   UNL     1      40.467 -15.264   2.416  1.00  0.00     0.061 C 
BRANCH  25  26
HETATM   26  C   UNL     1      41.314 -15.325   1.141  1.00  0.00     0.002 C 
HETATM   27  C   UNL     1      42.744 -15.777   1.401  1.00  0.00     0.005 C 
ENDBRANCH  25  26
ENDBRANCH   1  25
TORSDOF 5
ENDMDL
MODEL 6
REMARK VINA RESULT:      -6.1      1.647      2.243
REMARK  5 active torsions:
REMARK  status: ('A' for Active; 'I' for Inactive)
REMARK    1  A    between atoms: C_2  and  C_3 
REMARK    2  A    between atoms: C_3  and  C_4 
REMARK    3  A    between atoms: C_10  and  C_11 
REMARK    4  A    between atoms: C_12  and  O_13 
REMARK    5  A    between atoms: C_22  and  N_23 
ROOT
HETATM    1  C   UNL     1      43.410 -13.879   6.596  1.00  0.00     0.066 A 
HETATM    2  N   UNL     1      44.020 -12.983   7.391  1.00  0.00    -0.177 NA
HETATM    3  N   UNL     1      43.307 -11.852   7.236  1.00  0.00    -0.256 N 
HETATM    4  H   UNL     1      43.581 -11.024   7.754  1.00  0.00     0.191 HD
HETATM    5  C   UNL     1      42.284 -11.996   6.359  1.00  0.00     0.175 A 
HETATM    6  C   UNL     1      42.312 -13.294   5.911  1.00  0.00     0.035 A 
HETATM    7  C   UNL     1      41.280 -13.755   4.934  1.00  0.00     0.107 A 
HETATM    8  C   UNL     1      40.400 -12.578   4.499  1.00  0.00     0.067 A 
HETATM    9  C   UNL     1      39.426 -12.833   3.359  1.00  0.00     0.020 C 
HETATM   10  N   UNL     1      38.618 -13.043   2.414  1.00  0.00    -0.096 N 
HETATM   11  C   UNL     1      40.499 -11.330   5.029  1.00  0.00     0.139 A 
HETATM   12  O   UNL     1      41.446 -11.023   6.021  1.00  0.00    -0.279 OA
ENDROOT
BRANCH   7  13
HETATM   13  C   UNL     1      42.022 -14.411   3.780  1.00  0.00    -0.010 A 
HETATM   14  C   UNL     1      42.820 -13.658   2.905  1.00  0.00     0.073 A 
HETATM   15  C   UNL     1      43.589 -14.264   1.911  1.00  0.00     0.038 A 
HETATM   16  C   UNL     1      43.555 -15.647   1.752  1.00  0.00     0.022 A 
HETATM   17  C   UNL     1      42.758 -16.414   2.595  1.00  0.00     0.011 A 
HETATM   18 BR   UNL     1      42.712 -18.292   2.389  1.00  0.00    -0.051 Br
HETATM   19  C   UNL     1      42.003 -15.811   3.604  1.00  0.00     0.030 A 
BRANCH  14  20
HETATM   20  O   UNL     1      42.905 -12.298   2.977  1.00  0.00    -0.360 OA
HETATM   21  H   UNL     1      42.229 -11.975   3.597  1.00  0.00     0.217 HD
ENDBRANCH  14  20
ENDBRANCH   7  13
BRANCH  11  22
HETATM   22  N   UNL     1      39.739 -10.243   4.666  1.00  0.00    -0.282 NA
HETATM   23  H   UNL     1      40.177  -9.588   4.021  1.00  0.00     0.126 HD
HETATM   24  H   UNL     1      39.311  -9.787   5.467  1.00  0.00     0.126 HD
ENDBRANCH  11  22
BRANCH   1  25
HETATM   25  C   UNL     1      43.952 -15.270   6.517  1.00  0.00     0.061 C 
BRANCH  25  26
HETATM   26  C   UNL     1      43.050 -16.329   7.158  1.00  0.00     0.002 C 
HETATM   27  C   UNL     1      43.254 -17.717   6.568  1.00  0.00     0.005 C 
ENDBRANCH  25  26
ENDBRANCH   1  25
TORSDOF 5
ENDMDL
MODEL 7
REMARK VINA RESULT:      -6.0     13.004     14.396
REMARK  5 active torsions:
REMARK  status: ('A' for Active; 'I' for Inactive)
REMARK    1  A    between atoms: C_2  and  C_3 
REMARK    2  A    between atoms: C_3  and  C_4 
REMARK    3  A    between atoms: C_10  and  C_11 
REMARK    4  A    between atoms: C_12  and  O_13 
REMARK    5  A    between atoms: C_22  and  N_23 
ROOT
HETATM    1  C   UNL     1      40.464  -7.174  14.280  1.00  0.00     0.066 A 
HETATM    2  N   UNL     1      39.765  -7.906  13.395  1.00  0.00    -0.177 NA
HETATM    3  N   UNL     1      38.565  -7.302  13.329  1.00  0.00    -0.256 N 
HETATM    4  H   UNL     1      37.859  -7.680  12.708  1.00  0.00     0.191 HD
HETATM    5  C   UNL     1      38.474  -6.229  14.153  1.00  0.00     0.175 A 
HETATM    6  C   UNL     1      39.681  -6.107  14.797  1.00  0.00     0.035 A 
HETATM    7  C   UNL     1      39.886  -4.989  15.767  1.00  0.00     0.107 A 
HETATM    8  C   UNL     1      38.580  -4.210  15.959  1.00  0.00     0.067 A 
HETATM    9  C   UNL     1      38.560  -3.164  17.062  1.00  0.00     0.020 C 
HETATM   10  N   UNL     1      38.544  -2.295  17.975  1.00  0.00    -0.096 N 
HETATM   11  C   UNL     1      37.447  -4.457  15.250  1.00  0.00     0.139 A 
HETATM   12  O   UNL     1      37.388  -5.476  14.283  1.00  0.00    -0.279 OA
ENDROOT
BRANCH   7  13
HETATM   13  C   UNL     1      40.412  -5.608  17.052  1.00  0.00    -0.010 A 
HETATM   14  C   UNL     1      41.517  -5.062  17.726  1.00  0.00     0.073 A 
HETATM   15  C   UNL     1      41.939  -5.556  18.960  1.00  0.00     0.038 A 
HETATM   16  C   UNL     1      41.277  -6.635  19.540  1.00  0.00     0.022 A 
HETATM   17  C   UNL     1      40.190  -7.205  18.885  1.00  0.00     0.011 A 
HETATM   18 BR   UNL     1      39.283  -8.665  19.670  1.00  0.00    -0.051 Br
HETATM   19  C   UNL     1      39.753  -6.698  17.659  1.00  0.00     0.030 A 
BRANCH  14  20
HETATM   20  O   UNL     1      42.234  -4.013  17.227  1.00  0.00    -0.360 OA
HETATM   21  H   UNL     1      42.321  -3.337  17.920  1.00  0.00     0.217 HD
ENDBRANCH  14  20
ENDBRANCH   7  13
BRANCH  11  22
HETATM   22  N   UNL     1      36.252  -3.792  15.393  1.00  0.00    -0.282 NA
HETATM   23  H   UNL     1      36.033  -3.107  14.673  1.00  0.00     0.126 HD
HETATM   24  H   UNL     1      36.120  -3.434  16.335  1.00  0.00     0.126 HD
ENDBRANCH  11  22
BRANCH   1  25
HETATM   25  C   UNL     1      41.868  -7.571  14.606  1.00  0.00     0.061 C 
BRANCH  25  26
HETATM   26  C   UNL     1      42.903  -7.112  13.575  1.00  0.00     0.002 C 
HETATM   27  C   UNL     1      43.330  -8.224  12.627  1.00  0.00     0.005 C 
ENDBRANCH  25  26
ENDBRANCH   1  25
TORSDOF 5
ENDMDL
MODEL 8
REMARK VINA RESULT:      -6.0      2.254      3.279
REMARK  5 active torsions:
REMARK  status: ('A' for Active; 'I' for Inactive)
REMARK    1  A    between atoms: C_2  and  C_3 
REMARK    2  A    between atoms: C_3  and  C_4 
REMARK    3  A    between atoms: C_10  and  C_11 
REMARK    4  A    between atoms: C_12  and  O_13 
REMARK    5  A    between atoms: C_22  and  N_23 
ROOT
HETATM    1  C   UNL     1      42.022 -11.372   4.825  1.00  0.00     0.066 A 
HETATM    2  N   UNL     1      42.805 -10.396   4.336  1.00  0.00    -0.177 NA
HETATM    3  N   UNL     1      42.835 -10.618   3.009  1.00  0.00    -0.256 N 
HETATM    4  H   UNL     1      43.369  -9.992   2.418  1.00  0.00     0.191 HD
HETATM    5  C   UNL     1      42.116 -11.709   2.647  1.00  0.00     0.175 A 
HETATM    6  C   UNL     1      41.572 -12.237   3.792  1.00  0.00     0.035 A 
HETATM    7  C   UNL     1      40.705 -13.450   3.701  1.00  0.00     0.107 A 
HETATM    8  C   UNL     1      40.684 -13.978   2.263  1.00  0.00     0.067 A 
HETATM    9  C   UNL     1      40.009 -15.322   2.034  1.00  0.00     0.020 C 
HETATM   10  N   UNL     1      39.449 -16.435   1.843  1.00  0.00    -0.096 N 
HETATM   11  C   UNL     1      41.288 -13.347   1.221  1.00  0.00     0.139 A 
HETATM   12  O   UNL     1      42.002 -12.149   1.399  1.00  0.00    -0.279 OA
ENDROOT
BRANCH   7  13
HETATM   13  C   UNL     1      41.244 -14.458   4.704  1.00  0.00    -0.010 A 
HETATM   14  C   UNL     1      40.567 -14.725   5.905  1.00  0.00     0.073 A 
HETATM   15  C   UNL     1      40.996 -15.724   6.779  1.00  0.00     0.038 A 
HETATM   16  C   UNL     1      42.136 -16.466   6.483  1.00  0.00     0.022 A 
HETATM   17  C   UNL     1      42.834 -16.208   5.308  1.00  0.00     0.011 A 
HETATM   18 BR   UNL     1      44.380 -17.215   4.896  1.00  0.00    -0.051 Br
HETATM   19  C   UNL     1      42.396 -15.222   4.421  1.00  0.00     0.030 A 
BRANCH  14  20
HETATM   20  O   UNL     1      39.449 -14.041   6.284  1.00  0.00    -0.360 OA
HETATM   21  H   UNL     1      39.095 -14.446   7.093  1.00  0.00     0.217 HD
ENDBRANCH  14  20
ENDBRANCH   7  13
BRANCH  11  22
HETATM   22  N   UNL     1      41.303 -13.786  -0.082  1.00  0.00    -0.282 NA
HETATM   23  H   UNL     1      42.082 -13.464  -0.652  1.00  0.00     0.126 HD
HETATM   24  H   UNL     1      40.402 -13.671  -0.538  1.00  0.00     0.126 HD
ENDBRANCH  11  22
BRANCH   1  25
HETATM   25  C   UNL     1      41.770 -11.434   6.298  1.00  0.00     0.061 C 
BRANCH  25  26
HETATM   26  C   UNL     1      43.043 -11.505   7.146  1.00  0.00     0.002 C 
HETATM   27  C   UNL     1      43.828 -12.792   6.930  1.00  0.00     0.005 C 
ENDBRANCH  25  26
ENDBRANCH   1  25
TORSDOF 5
ENDMDL
MODEL 9
REMARK VINA RESULT:      -6.0      2.980      5.821
REMARK  5 active torsions:
REMARK  status: ('A' for Active; 'I' for Inactive)
REMARK    1  A    between atoms: C_2  and  C_3 
REMARK    2  A    between atoms: C_3  and  C_4 
REMARK    3  A    between atoms: C_10  and  C_11 
REMARK    4  A    between atoms: C_12  and  O_13 
REMARK    5  A    between atoms: C_22  and  N_23 
ROOT
HETATM    1  C   UNL     1      40.259 -13.579   1.809  1.00  0.00     0.066 A 
HETATM    2  N   UNL     1      40.576 -13.779   0.518  1.00  0.00    -0.177 NA
HETATM    3  N   UNL     1      41.350 -14.880   0.527  1.00  0.00    -0.256 N 
HETATM    4  H   UNL     1      41.711 -15.233  -0.352  1.00  0.00     0.191 HD
HETATM    5  C   UNL     1      41.548 -15.369   1.775  1.00  0.00     0.175 A 
HETATM    6  C   UNL     1      40.864 -14.555   2.645  1.00  0.00     0.035 A 
HETATM    7  C   UNL     1      40.885 -14.861   4.107  1.00  0.00     0.107 A 
HETATM    8  C   UNL     1      41.828 -16.036   4.388  1.00  0.00     0.067 A 
HETATM    9  C   UNL     1      42.119 -16.349   5.848  1.00  0.00     0.020 C 
HETATM   10  N   UNL     1      42.360 -16.611   7.057  1.00  0.00    -0.096 N 
HETATM   11  C   UNL     1      42.454 -16.747   3.413  1.00  0.00     0.139 A 
HETATM   12  O   UNL     1      42.288 -16.436   2.052  1.00  0.00    -0.279 OA
ENDROOT
BRANCH   7  13
HETATM   13  C   UNL     1      41.287 -13.582   4.823  1.00  0.00    -0.010 A 
HETATM   14  C   UNL     1      40.361 -12.846   5.580  1.00  0.00     0.073 A 
HETATM   15  C   UNL     1      40.746 -11.733   6.327  1.00  0.00     0.038 A 
HETATM   16  C   UNL     1      42.072 -11.310   6.311  1.00  0.00     0.022 A 
HETATM   17  C   UNL     1      43.006 -12.010   5.555  1.00  0.00     0.011 A 
HETATM   18 BR   UNL     1      44.810 -11.445   5.534  1.00  0.00    -0.051 Br
HETATM   19  C   UNL     1      42.627 -13.138   4.822  1.00  0.00     0.030 A 
BRANCH  14  20
HETATM   20  O   UNL     1      39.039 -13.179   5.644  1.00  0.00    -0.360 OA
HETATM   21  H   UNL     1      38.883 -13.948   5.070  1.00  0.00     0.217 HD
ENDBRANCH  14  20
ENDBRANCH   7  13
BRANCH  11  22
HETATM   22  N   UNL     1      43.314 -17.800   3.616  1.00  0.00    -0.282 NA
HETATM   23  H   UNL     1      43.734 -17.861   4.541  1.00  0.00     0.126 HD
HETATM   24  H   UNL     1      43.991 -17.896   2.865  1.00  0.00     0.126 HD
ENDBRANCH  11  22
BRANCH   1  25
HETATM   25  C   UNL     1      39.395 -12.414   2.174  1.00  0.00     0.061 C 
BRANCH  25  26
HETATM   26  C   UNL     1      39.955 -11.059   1.732  1.00  0.00     0.002 C 
HETATM   27  C   UNL     1      41.154 -10.614   2.559  1.00  0.00     0.005 C 
ENDBRANCH  25  26
ENDBRANCH   1  25
TORSDOF 5
ENDMDL
MODEL 10
REMARK VINA RESULT:      -5.9      3.092      4.916
REMARK  5 active torsions:
REMARK  status: ('A' for Active; 'I' for Inactive)
REMARK    1  A    between atoms: C_2  and  C_3 
REMARK    2  A    between atoms: C_3  and  C_4 
REMARK    3  A    between atoms: C_10  and  C_11 
REMARK    4  A    between atoms: C_12  and  O_13 
REMARK    5  A    between atoms: C_22  and  N_23 
ROOT
HETATM    1  C   UNL     1      41.737 -14.544   5.529  1.00  0.00     0.066 A 
HETATM    2  N   UNL     1      40.859 -15.422   6.044  1.00  0.00    -0.177 NA
HETATM    3  N   UNL     1      39.758 -14.690   6.296  1.00  0.00    -0.256 N 
HETATM    4  H   UNL     1      38.944 -15.148   6.690  1.00  0.00     0.191 HD
HETATM    5  C   UNL     1      39.917 -13.382   5.980  1.00  0.00     0.175 A 
HETATM    6  C   UNL     1      41.189 -13.235   5.482  1.00  0.00     0.035 A 
HETATM    7  C   UNL     1      41.648 -11.888   5.028  1.00  0.00     0.107 A 
HETATM    8  C   UNL     1      40.580 -10.833   5.336  1.00  0.00     0.067 A 
HETATM    9  C   UNL     1      40.967  -9.379   5.120  1.00  0.00     0.020 C 
HETATM   10  N   UNL     1      41.287  -8.173   4.940  1.00  0.00    -0.096 N 
HETATM   11  C   UNL     1      39.356 -11.131   5.848  1.00  0.00     0.139 A 
HETATM   12  O   UNL     1      38.984 -12.452   6.151  1.00  0.00    -0.279 OA
ENDROOT
BRANCH   7  13
HETATM   13  C   UNL     1      42.977 -11.617   5.715  1.00  0.00    -0.010 A 
HETATM   14  C   UNL     1      44.181 -11.597   4.992  1.00  0.00     0.073 A 
HETATM   15  C   UNL     1      45.389 -11.244   5.594  1.00  0.00     0.038 A 
HETATM   16  C   UNL     1      45.425 -10.925   6.949  1.00  0.00     0.022 A 
HETATM   17  C   UNL     1      44.249 -10.955   7.690  1.00  0.00     0.011 A 
HETATM   18 BR   UNL     1      44.288 -10.518   9.529  1.00  0.00    -0.051 Br
HETATM   19  C   UNL     1      43.034 -11.289   7.086  1.00  0.00     0.030 A 
BRANCH  14  20
HETATM   20  O   UNL     1      44.244 -11.907   3.665  1.00  0.00    -0.360 OA
HETATM   21  H   UNL     1      43.418 -11.622   3.239  1.00  0.00     0.217 HD
ENDBRANCH  14  20
ENDBRANCH   7  13
BRANCH  11  22
HETATM   22  N   UNL     1      38.370 -10.220   6.149  1.00  0.00    -0.282 NA
HETATM   23  H   UNL     1      38.415  -9.804   7.077  1.00  0.00     0.126 HD
HETATM   24  H   UNL     1      37.443 -10.562   5.911  1.00  0.00     0.126 HD
ENDBRANCH  11  22
BRANCH   1  25
HETATM   25  C   UNL     1      43.097 -15.023   5.132  1.00  0.00     0.061 C 
BRANCH  25  26
HETATM   26  C   UNL     1      43.192 -15.499   3.679  1.00  0.00     0.002 C 
HETATM   27  C   UNL     1      43.069 -17.010   3.541  1.00  0.00     0.005 C 
ENDBRANCH  25  26
ENDBRANCH   1  25
TORSDOF 5
ENDMDL
