MODEL 1
REMARK VINA RESULT:     -10.1      0.000      0.000
REMARK  7 active torsions:
REMARK  status: ('A' for Active; 'I' for Inactive)
REMARK    1  A    between atoms: C_1  and  C_2 
REMARK    2  A    between atoms: C_1  and  O_9 
REMARK    3  A    between atoms: C_2  and  N_3 
REMARK    4  A    between atoms: O_9  and  C_10 
REMARK    5  A    between atoms: C_15  and  C_31 
REMARK    6  A    between atoms: C_17  and  N_18 
REMARK    7  A    between atoms: N_18  and  C_19 
ROOT
HETATM    1  C   UNL     1      41.638 -12.935   5.484  1.00  0.00     0.069 A 
HETATM    2  C   UNL     1      40.450 -12.248   5.271  1.00  0.00     0.039 A 
HETATM    3  C   UNL     1      39.823 -12.311   4.021  1.00  0.00     0.035 A 
HETATM    4  C   UNL     1      40.350 -13.043   2.966  1.00  0.00     0.073 A 
HETATM    5  N   UNL     1      39.686 -13.054   1.809  1.00  0.00    -0.228 NA
HETATM    6  C   UNL     1      40.216 -13.760   0.797  1.00  0.00     0.162 A 
HETATM    7  N   UNL     1      41.366 -14.444   0.876  1.00  0.00    -0.210 NA
HETATM    8  C   UNL     1      42.027 -14.435   2.046  1.00  0.00     0.143 A 
HETATM    9  C   UNL     1      41.550 -13.732   3.166  1.00  0.00     0.041 A 
HETATM   10  C   UNL     1      42.189 -13.666   4.431  1.00  0.00     0.054 A 
ENDROOT
BRANCH   8  11
HETATM   11  N   UNL     1      43.235 -15.178   2.153  1.00  0.00    -0.340 N 
HETATM   12  H   UNL     1      43.985 -14.553   2.425  1.00  0.00     0.167 HD
BRANCH  11  13
HETATM   13  C   UNL     1      43.387 -16.472   2.707  1.00  0.00     0.034 A 
HETATM   14  C   UNL     1      43.758 -16.605   4.055  1.00  0.00     0.032 A 
HETATM   15  C   UNL     1      43.972 -17.856   4.652  1.00  0.00     0.034 A 
HETATM   16  C   UNL     1      43.830 -18.979   3.834  1.00  0.00     0.062 A 
HETATM   17  N   UNL     1      43.968 -20.319   4.086  1.00  0.00    -0.278 N 
HETATM   18  C   UNL     1      43.498 -18.893   2.490  1.00  0.00     0.013 A 
HETATM   19  H   UNL     1      44.205 -20.761   4.966  1.00  0.00     0.189 HD
HETATM   20  N   UNL     1      43.762 -21.105   3.015  1.00  0.00    -0.186 NA
HETATM   21  C   UNL     1      43.477 -20.233   2.043  1.00  0.00     0.152 A 
HETATM   22  C   UNL     1      43.284 -17.628   1.914  1.00  0.00     0.044 A 
ENDBRANCH  11  13
ENDBRANCH   8  11
BRANCH   6  23
HETATM   23  C   UNL     1      39.476 -13.808  -0.480  1.00  0.00     0.012 A 
HETATM   24  C   UNL     1      38.699 -12.719  -0.924  1.00  0.00     0.015 A 
HETATM   25  C   UNL     1      37.991 -12.768  -2.129  1.00  0.00     0.001 A 
HETATM   26  C   UNL     1      38.042 -13.910  -2.922  1.00  0.00     0.000 A 
HETATM   27  C   UNL     1      38.800 -15.002  -2.511  1.00  0.00     0.001 A 
HETATM   28  C   UNL     1      39.508 -14.949  -1.307  1.00  0.00     0.015 A 
ENDBRANCH   6  23
BRANCH   1  29
HETATM   29  O   UNL     1      42.348 -12.977   6.651  1.00  0.00    -0.349 OA
BRANCH  29  30
HETATM   30  C   UNL     1      43.719 -12.565   6.587  1.00  0.00     0.206 C 
BRANCH  30  31
HETATM   31  C   UNL     1      43.792 -11.070   6.946  1.00  0.00     0.299 C 
BRANCH  31  32
HETATM   32  N   UNL     1      44.243 -10.805   8.325  1.00  0.00     0.094 N 
HETATM   33  C   UNL     1      45.695 -10.543   8.438  1.00  0.00     0.298 C 
HETATM   34  C   UNL     1      46.130  -9.171   7.893  1.00  0.00     0.198 C 
HETATM   35  O   UNL     1      45.409  -8.109   8.526  1.00  0.00    -0.388 OA
HETATM   36  C   UNL     1      43.996  -8.282   8.361  1.00  0.00     0.198 C 
HETATM   37  C   UNL     1      43.527  -9.644   8.905  1.00  0.00     0.298 C 
ENDBRANCH  31  32
ENDBRANCH  30  31
ENDBRANCH  29  30
ENDBRANCH   1  29
TORSDOF 7
ENDMDL
MODEL 2
REMARK VINA RESULT:      -9.9      2.520      6.911
REMARK  7 active torsions:
REMARK  status: ('A' for Active; 'I' for Inactive)
REMARK    1  A    between atoms: C_1  and  C_2 
REMARK    2  A    between atoms: C_1  and  O_9 
REMARK    3  A    between atoms: C_2  and  N_3 
REMARK    4  A    between atoms: O_9  and  C_10 
REMARK    5  A    between atoms: C_15  and  C_31 
REMARK    6  A    between atoms: C_17  and  N_18 
REMARK    7  A    between atoms: N_18  and  C_19 
ROOT
HETATM    1  C   UNL     1      43.161 -12.208   5.868  1.00  0.00     0.069 A 
HETATM    2  C   UNL     1      43.359 -13.073   6.937  1.00  0.00     0.039 A 
HETATM    3  C   UNL     1      43.480 -14.449   6.708  1.00  0.00     0.035 A 
HETATM    4  C   UNL     1      43.407 -14.995   5.434  1.00  0.00     0.073 A 
HETATM    5  N   UNL     1      43.539 -16.316   5.303  1.00  0.00    -0.228 NA
HETATM    6  C   UNL     1      43.457 -16.827   4.065  1.00  0.00     0.162 A 
HETATM    7  N   UNL     1      43.247 -16.097   2.961  1.00  0.00    -0.210 NA
HETATM    8  C   UNL     1      43.122 -14.766   3.097  1.00  0.00     0.143 A 
HETATM    9  C   UNL     1      43.201 -14.136   4.351  1.00  0.00     0.041 A 
HETATM   10  C   UNL     1      43.073 -12.742   4.582  1.00  0.00     0.054 A 
ENDROOT
BRANCH   8  11
HETATM   11  N   UNL     1      42.926 -13.976   1.931  1.00  0.00    -0.340 N 
HETATM   12  H   UNL     1      43.744 -14.055   1.338  1.00  0.00     0.167 HD
BRANCH  11  13
HETATM   13  C   UNL     1      41.731 -13.852   1.183  1.00  0.00     0.034 A 
HETATM   14  C   UNL     1      40.990 -15.004   0.872  1.00  0.00     0.032 A 
HETATM   15  C   UNL     1      39.824 -14.955   0.094  1.00  0.00     0.034 A 
HETATM   16  C   UNL     1      39.439 -13.703  -0.391  1.00  0.00     0.062 A 
HETATM   17  N   UNL     1      38.380 -13.306  -1.166  1.00  0.00    -0.278 N 
HETATM   18  C   UNL     1      40.159 -12.544  -0.136  1.00  0.00     0.013 A 
HETATM   19  H   UNL     1      37.640 -13.885  -1.544  1.00  0.00     0.189 HD
HETATM   20  N   UNL     1      38.362 -11.990  -1.442  1.00  0.00    -0.186 NA
HETATM   21  C   UNL     1      39.448 -11.529  -0.813  1.00  0.00     0.152 A 
HETATM   22  C   UNL     1      41.323 -12.617   0.649  1.00  0.00     0.044 A 
ENDBRANCH  11  13
ENDBRANCH   8  11
BRANCH   6  23
HETATM   23  C   UNL     1      43.632 -18.285   3.900  1.00  0.00     0.012 A 
HETATM   24  C   UNL     1      43.481 -18.908   2.646  1.00  0.00     0.015 A 
HETATM   25  C   UNL     1      43.639 -20.290   2.493  1.00  0.00     0.001 A 
HETATM   26  C   UNL     1      43.949 -21.083   3.592  1.00  0.00     0.000 A 
HETATM   27  C   UNL     1      44.104 -20.497   4.844  1.00  0.00     0.001 A 
HETATM   28  C   UNL     1      43.949 -19.115   4.994  1.00  0.00     0.015 A 
ENDBRANCH   6  23
BRANCH   1  29
HETATM   29  O   UNL     1      43.042 -10.849   5.941  1.00  0.00    -0.349 OA
BRANCH  29  30
HETATM   30  C   UNL     1      41.784 -10.335   6.394  1.00  0.00     0.206 C 
BRANCH  30  31
HETATM   31  C   UNL     1      40.893 -10.082   5.165  1.00  0.00     0.299 C 
BRANCH  31  32
HETATM   32  N   UNL     1      39.503 -10.547   5.324  1.00  0.00     0.094 N 
HETATM   33  C   UNL     1      38.592 -10.081   4.256  1.00  0.00     0.298 C 
HETATM   34  C   UNL     1      38.806 -10.774   2.900  1.00  0.00     0.198 C 
HETATM   35  O   UNL     1      38.699 -12.197   3.022  1.00  0.00    -0.388 OA
HETATM   36  C   UNL     1      39.633 -12.698   3.987  1.00  0.00     0.198 C 
HETATM   37  C   UNL     1      39.438 -12.028   5.360  1.00  0.00     0.298 C 
ENDBRANCH  31  32
ENDBRANCH  30  31
ENDBRANCH  29  30
ENDBRANCH   1  29
TORSDOF 7
ENDMDL
MODEL 3
REMARK VINA RESULT:      -9.8      1.868      5.965
REMARK  7 active torsions:
REMARK  status: ('A' for Active; 'I' for Inactive)
REMARK    1  A    between atoms: C_1  and  C_2 
REMARK    2  A    between atoms: C_1  and  O_9 
REMARK    3  A    between atoms: C_2  and  N_3 
REMARK    4  A    between atoms: O_9  and  C_10 
REMARK    5  A    between atoms: C_15  and  C_31 
REMARK    6  A    between atoms: C_17  and  N_18 
REMARK    7  A    between atoms: N_18  and  C_19 
ROOT
HETATM    1  C   UNL     1      42.256 -12.153   5.871  1.00  0.00     0.069 A 
HETATM    2  C   UNL     1      43.260 -12.817   6.564  1.00  0.00     0.039 A 
HETATM    3  C   UNL     1      43.601 -14.128   6.211  1.00  0.00     0.035 A 
HETATM    4  C   UNL     1      42.964 -14.805   5.180  1.00  0.00     0.073 A 
HETATM    5  N   UNL     1      43.354 -16.051   4.904  1.00  0.00    -0.228 NA
HETATM    6  C   UNL     1      42.722 -16.693   3.910  1.00  0.00     0.162 A 
HETATM    7  N   UNL     1      41.725 -16.165   3.187  1.00  0.00    -0.210 NA
HETATM    8  C   UNL     1      41.340 -14.907   3.463  1.00  0.00     0.143 A 
HETATM    9  C   UNL     1      41.947 -14.150   4.480  1.00  0.00     0.041 A 
HETATM   10  C   UNL     1      41.597 -12.823   4.840  1.00  0.00     0.054 A 
ENDROOT
BRANCH   8  11
HETATM   11  N   UNL     1      40.303 -14.324   2.685  1.00  0.00    -0.340 N 
HETATM   12  H   UNL     1      39.760 -13.702   3.273  1.00  0.00     0.167 HD
BRANCH  11  13
HETATM   13  C   UNL     1      40.403 -13.853   1.354  1.00  0.00     0.034 A 
HETATM   14  C   UNL     1      40.911 -12.566   1.115  1.00  0.00     0.032 A 
HETATM   15  C   UNL     1      40.992 -12.022  -0.175  1.00  0.00     0.034 A 
HETATM   16  C   UNL     1      40.515 -12.810  -1.225  1.00  0.00     0.062 A 
HETATM   17  N   UNL     1      40.441 -12.590  -2.576  1.00  0.00    -0.278 N 
HETATM   18  C   UNL     1      39.975 -14.074  -1.031  1.00  0.00     0.013 A 
HETATM   19  H   UNL     1      40.745 -11.769  -3.085  1.00  0.00     0.189 HD
HETATM   20  N   UNL     1      39.890 -13.602  -3.269  1.00  0.00    -0.186 NA
HETATM   21  C   UNL     1      39.606 -14.503  -2.325  1.00  0.00     0.152 A 
HETATM   22  C   UNL     1      39.906 -14.599   0.271  1.00  0.00     0.044 A 
ENDBRANCH  11  13
ENDBRANCH   8  11
BRANCH   6  23
HETATM   23  C   UNL     1      43.164 -18.061   3.573  1.00  0.00     0.012 A 
HETATM   24  C   UNL     1      42.935 -18.617   2.298  1.00  0.00     0.015 A 
HETATM   25  C   UNL     1      43.346 -19.916   1.983  1.00  0.00     0.001 A 
HETATM   26  C   UNL     1      43.995 -20.694   2.935  1.00  0.00     0.000 A 
HETATM   27  C   UNL     1      44.236 -20.173   4.203  1.00  0.00     0.001 A 
HETATM   28  C   UNL     1      43.826 -18.874   4.516  1.00  0.00     0.015 A 
ENDBRANCH   6  23
BRANCH   1  29
HETATM   29  O   UNL     1      41.831 -10.874   6.094  1.00  0.00    -0.349 OA
BRANCH  29  30
HETATM   30  C   UNL     1      42.799  -9.955   6.617  1.00  0.00     0.206 C 
BRANCH  30  31
HETATM   31  C   UNL     1      42.453  -9.673   8.089  1.00  0.00     0.299 C 
BRANCH  31  32
HETATM   32  N   UNL     1      43.456  -8.856   8.796  1.00  0.00     0.094 N 
HETATM   33  C   UNL     1      43.419  -9.008  10.268  1.00  0.00     0.298 C 
HETATM   34  C   UNL     1      43.966 -10.354  10.775  1.00  0.00     0.198 C 
HETATM   35  O   UNL     1      45.302 -10.579  10.312  1.00  0.00    -0.388 OA
HETATM   36  C   UNL     1      45.361 -10.528   8.880  1.00  0.00     0.198 C 
HETATM   37  C   UNL     1      44.828  -9.187   8.342  1.00  0.00     0.298 C 
ENDBRANCH  31  32
ENDBRANCH  30  31
ENDBRANCH  29  30
ENDBRANCH   1  29
TORSDOF 7
ENDMDL
MODEL 4
REMARK VINA RESULT:      -9.8      2.172      6.259
REMARK  7 active torsions:
REMARK  status: ('A' for Active; 'I' for Inactive)
REMARK    1  A    between atoms: C_1  and  C_2 
REMARK    2  A    between atoms: C_1  and  O_9 
REMARK    3  A    between atoms: C_2  and  N_3 
REMARK    4  A    between atoms: O_9  and  C_10 
REMARK    5  A    between atoms: C_15  and  C_31 
REMARK    6  A    between atoms: C_17  and  N_18 
REMARK    7  A    between atoms: N_18  and  C_19 
ROOT
HETATM    1  C   UNL     1      43.106 -12.372   6.164  1.00  0.00     0.069 A 
HETATM    2  C   UNL     1      43.315 -13.312   7.165  1.00  0.00     0.039 A 
HETATM    3  C   UNL     1      43.439 -14.667   6.835  1.00  0.00     0.035 A 
HETATM    4  C   UNL     1      43.358 -15.118   5.524  1.00  0.00     0.073 A 
HETATM    5  N   UNL     1      43.492 -16.425   5.295  1.00  0.00    -0.228 NA
HETATM    6  C   UNL     1      43.402 -16.844   4.023  1.00  0.00     0.162 A 
HETATM    7  N   UNL     1      43.181 -16.035   2.978  1.00  0.00    -0.210 NA
HETATM    8  C   UNL     1      43.053 -14.718   3.212  1.00  0.00     0.143 A 
HETATM    9  C   UNL     1      43.140 -14.182   4.508  1.00  0.00     0.041 A 
HETATM   10  C   UNL     1      43.009 -12.809   4.843  1.00  0.00     0.054 A 
ENDROOT
BRANCH   8  11
HETATM   11  N   UNL     1      42.845 -13.846   2.109  1.00  0.00    -0.340 N 
HETATM   12  H   UNL     1      43.681 -13.835   1.535  1.00  0.00     0.167 HD
BRANCH  11  13
HETATM   13  C   UNL     1      41.664 -13.719   1.340  1.00  0.00     0.034 A 
HETATM   14  C   UNL     1      41.066 -14.869   0.801  1.00  0.00     0.032 A 
HETATM   15  C   UNL     1      39.922 -14.807  -0.009  1.00  0.00     0.034 A 
HETATM   16  C   UNL     1      39.412 -13.537  -0.287  1.00  0.00     0.062 A 
HETATM   17  N   UNL     1      38.336 -13.124  -1.029  1.00  0.00    -0.278 N 
HETATM   18  C   UNL     1      39.989 -12.372   0.198  1.00  0.00     0.013 A 
HETATM   19  H   UNL     1      37.675 -13.702  -1.534  1.00  0.00     0.189 HD
HETATM   20  N   UNL     1      38.177 -11.789  -1.072  1.00  0.00    -0.186 NA
HETATM   21  C   UNL     1      39.187 -11.334  -0.325  1.00  0.00     0.152 A 
HETATM   22  C   UNL     1      41.133 -12.459   1.011  1.00  0.00     0.044 A 
ENDBRANCH  11  13
ENDBRANCH   8  11
BRANCH   6  23
HETATM   23  C   UNL     1      43.581 -18.285   3.750  1.00  0.00     0.012 A 
HETATM   24  C   UNL     1      43.998 -19.179   4.756  1.00  0.00     0.015 A 
HETATM   25  C   UNL     1      44.175 -20.542   4.495  1.00  0.00     0.001 A 
HETATM   26  C   UNL     1      43.942 -21.044   3.219  1.00  0.00     0.000 A 
HETATM   27  C   UNL     1      43.529 -20.186   2.205  1.00  0.00     0.001 A 
HETATM   28  C   UNL     1      43.351 -18.825   2.469  1.00  0.00     0.015 A 
ENDBRANCH   6  23
BRANCH   1  29
HETATM   29  O   UNL     1      42.983 -11.022   6.338  1.00  0.00    -0.349 OA
BRANCH  29  30
HETATM   30  C   UNL     1      43.924 -10.397   7.218  1.00  0.00     0.206 C 
BRANCH  30  31
HETATM   31  C   UNL     1      43.143  -9.560   8.247  1.00  0.00     0.299 C 
BRANCH  31  32
HETATM   32  N   UNL     1      43.988  -8.940   9.283  1.00  0.00     0.094 N 
HETATM   33  C   UNL     1      43.246  -8.055  10.208  1.00  0.00     0.298 C 
HETATM   34  C   UNL     1      42.345  -8.804  11.206  1.00  0.00     0.198 C 
HETATM   35  O   UNL     1      43.095  -9.758  11.967  1.00  0.00    -0.388 OA
HETATM   36  C   UNL     1      43.759 -10.689  11.103  1.00  0.00     0.198 C 
HETATM   37  C   UNL     1      44.676  -9.971  10.097  1.00  0.00     0.298 C 
ENDBRANCH  31  32
ENDBRANCH  30  31
ENDBRANCH  29  30
ENDBRANCH   1  29
TORSDOF 7
ENDMDL
MODEL 5
REMARK VINA RESULT:      -9.7      2.586      6.633
REMARK  7 active torsions:
REMARK  status: ('A' for Active; 'I' for Inactive)
REMARK    1  A    between atoms: C_1  and  C_2 
REMARK    2  A    between atoms: C_1  and  O_9 
REMARK    3  A    between atoms: C_2  and  N_3 
REMARK    4  A    between atoms: O_9  and  C_10 
REMARK    5  A    between atoms: C_15  and  C_31 
REMARK    6  A    between atoms: C_17  and  N_18 
REMARK    7  A    between atoms: N_18  and  C_19 
ROOT
HETATM    1  C   UNL     1      43.151 -12.215   5.915  1.00  0.00     0.069 A 
HETATM    2  C   UNL     1      43.360 -13.106   6.960  1.00  0.00     0.039 A 
HETATM    3  C   UNL     1      43.475 -14.476   6.697  1.00  0.00     0.035 A 
HETATM    4  C   UNL     1      43.385 -14.991   5.411  1.00  0.00     0.073 A 
HETATM    5  N   UNL     1      43.511 -16.308   5.246  1.00  0.00    -0.228 NA
HETATM    6  C   UNL     1      43.412 -16.790   3.996  1.00  0.00     0.162 A 
HETATM    7  N   UNL     1      43.189 -16.032   2.913  1.00  0.00    -0.210 NA
HETATM    8  C   UNL     1      43.070 -14.704   3.083  1.00  0.00     0.143 A 
HETATM    9  C   UNL     1      43.166 -14.105   4.351  1.00  0.00     0.041 A 
HETATM   10  C   UNL     1      43.044 -12.717   4.618  1.00  0.00     0.054 A 
ENDROOT
BRANCH   8  11
HETATM   11  N   UNL     1      42.860 -13.886   1.940  1.00  0.00    -0.340 N 
HETATM   12  H   UNL     1      43.670 -13.954   1.333  1.00  0.00     0.167 HD
BRANCH  11  13
HETATM   13  C   UNL     1      41.655 -13.739   1.212  1.00  0.00     0.034 A 
HETATM   14  C   UNL     1      41.036 -14.876   0.667  1.00  0.00     0.032 A 
HETATM   15  C   UNL     1      39.867 -14.793  -0.104  1.00  0.00     0.034 A 
HETATM   16  C   UNL     1      39.352 -13.516  -0.337  1.00  0.00     0.062 A 
HETATM   17  N   UNL     1      38.255 -13.084  -1.035  1.00  0.00    -0.278 N 
HETATM   18  C   UNL     1      39.949 -12.363   0.154  1.00  0.00     0.013 A 
HETATM   19  H   UNL     1      37.576 -13.649  -1.531  1.00  0.00     0.189 HD
HETATM   20  N   UNL     1      38.099 -11.748  -1.044  1.00  0.00    -0.186 NA
HETATM   21  C   UNL     1      39.134 -11.312  -0.320  1.00  0.00     0.152 A 
HETATM   22  C   UNL     1      41.119 -12.471   0.927  1.00  0.00     0.044 A 
ENDBRANCH  11  13
ENDBRANCH   8  11
BRANCH   6  23
HETATM   23  C   UNL     1      43.581 -18.243   3.794  1.00  0.00     0.012 A 
HETATM   24  C   UNL     1      44.008 -19.088   4.838  1.00  0.00     0.015 A 
HETATM   25  C   UNL     1      44.177 -20.462   4.644  1.00  0.00     0.001 A 
HETATM   26  C   UNL     1      43.925 -21.027   3.398  1.00  0.00     0.000 A 
HETATM   27  C   UNL     1      43.502 -20.219   2.347  1.00  0.00     0.001 A 
HETATM   28  C   UNL     1      43.332 -18.846   2.545  1.00  0.00     0.015 A 
ENDBRANCH   6  23
BRANCH   1  29
HETATM   29  O   UNL     1      43.036 -10.858   6.022  1.00  0.00    -0.349 OA
BRANCH  29  30
HETATM   30  C   UNL     1      42.223 -10.200   5.043  1.00  0.00     0.206 C 
BRANCH  30  31
HETATM   31  C   UNL     1      41.436  -9.078   5.742  1.00  0.00     0.299 C 
BRANCH  31  32
HETATM   32  N   UNL     1      39.977  -9.152   5.539  1.00  0.00     0.094 N 
HETATM   33  C   UNL     1      39.478 -10.521   5.283  1.00  0.00     0.298 C 
HETATM   34  C   UNL     1      39.484 -11.434   6.522  1.00  0.00     0.198 C 
HETATM   35  O   UNL     1      38.736 -10.854   7.597  1.00  0.00    -0.388 OA
HETATM   36  C   UNL     1      39.249  -9.558   7.934  1.00  0.00     0.198 C 
HETATM   37  C   UNL     1      39.249  -8.617   6.715  1.00  0.00     0.298 C 
ENDBRANCH  31  32
ENDBRANCH  30  31
ENDBRANCH  29  30
ENDBRANCH   1  29
TORSDOF 7
ENDMDL
MODEL 6
REMARK VINA RESULT:      -9.5      2.110      5.935
REMARK  7 active torsions:
REMARK  status: ('A' for Active; 'I' for Inactive)
REMARK    1  A    between atoms: C_1  and  C_2 
REMARK    2  A    between atoms: C_1  and  O_9 
REMARK    3  A    between atoms: C_2  and  N_3 
REMARK    4  A    between atoms: O_9  and  C_10 
REMARK    5  A    between atoms: C_15  and  C_31 
REMARK    6  A    between atoms: C_17  and  N_18 
REMARK    7  A    between atoms: N_18  and  C_19 
ROOT
HETATM    1  C   UNL     1      42.618 -11.728   6.273  1.00  0.00     0.069 A 
HETATM    2  C   UNL     1      43.565 -12.492   6.943  1.00  0.00     0.039 A 
HETATM    3  C   UNL     1      43.821 -13.805   6.530  1.00  0.00     0.035 A 
HETATM    4  C   UNL     1      43.153 -14.386   5.461  1.00  0.00     0.073 A 
HETATM    5  N   UNL     1      43.461 -15.641   5.128  1.00  0.00    -0.228 NA
HETATM    6  C   UNL     1      42.798 -16.190   4.098  1.00  0.00     0.162 A 
HETATM    7  N   UNL     1      41.849 -15.560   3.392  1.00  0.00    -0.210 NA
HETATM    8  C   UNL     1      41.548 -14.294   3.725  1.00  0.00     0.143 A 
HETATM    9  C   UNL     1      42.191 -13.630   4.784  1.00  0.00     0.041 A 
HETATM   10  C   UNL     1      41.928 -12.301   5.205  1.00  0.00     0.054 A 
ENDROOT
BRANCH   8  11
HETATM   11  N   UNL     1      40.562 -13.604   2.967  1.00  0.00    -0.340 N 
HETATM   12  H   UNL     1      40.225 -12.814   3.505  1.00  0.00     0.167 HD
BRANCH  11  13
HETATM   13  C   UNL     1      40.599 -13.332   1.578  1.00  0.00     0.034 A 
HETATM   14  C   UNL     1      41.077 -12.089   1.132  1.00  0.00     0.032 A 
HETATM   15  C   UNL     1      41.094 -11.739  -0.226  1.00  0.00     0.034 A 
HETATM   16  C   UNL     1      40.583 -12.675  -1.127  1.00  0.00     0.062 A 
HETATM   17  N   UNL     1      40.448 -12.655  -2.491  1.00  0.00    -0.278 N 
HETATM   18  C   UNL     1      40.071 -13.901  -0.728  1.00  0.00     0.013 A 
HETATM   19  H   UNL     1      40.717 -11.915  -3.128  1.00  0.00     0.189 HD
HETATM   20  N   UNL     1      39.882 -13.762  -3.005  1.00  0.00    -0.186 NA
HETATM   21  C   UNL     1      39.652 -14.518  -1.927  1.00  0.00     0.152 A 
HETATM   22  C   UNL     1      40.066 -14.232   0.639  1.00  0.00     0.044 A 
ENDBRANCH  11  13
ENDBRANCH   8  11
BRANCH   6  23
HETATM   23  C   UNL     1      43.150 -17.568   3.699  1.00  0.00     0.012 A 
HETATM   24  C   UNL     1      43.867 -18.424   4.558  1.00  0.00     0.015 A 
HETATM   25  C   UNL     1      44.208 -19.726   4.175  1.00  0.00     0.001 A 
HETATM   26  C   UNL     1      43.841 -20.203   2.921  1.00  0.00     0.000 A 
HETATM   27  C   UNL     1      43.133 -19.382   2.050  1.00  0.00     0.001 A 
HETATM   28  C   UNL     1      42.792 -18.082   2.436  1.00  0.00     0.015 A 
ENDBRANCH   6  23
BRANCH   1  29
HETATM   29  O   UNL     1      42.279 -10.435   6.555  1.00  0.00    -0.349 OA
BRANCH  29  30
HETATM   30  C   UNL     1      43.265  -9.641   7.227  1.00  0.00     0.206 C 
BRANCH  30  31
HETATM   31  C   UNL     1      42.569  -8.856   8.352  1.00  0.00     0.299 C 
BRANCH  31  32
HETATM   32  N   UNL     1      42.308  -9.651   9.566  1.00  0.00     0.094 N 
HETATM   33  C   UNL     1      43.509 -10.322  10.110  1.00  0.00     0.298 C 
HETATM   34  C   UNL     1      44.507  -9.369  10.791  1.00  0.00     0.198 C 
HETATM   35  O   UNL     1      43.877  -8.615  11.833  1.00  0.00    -0.388 OA
HETATM   36  C   UNL     1      42.758  -7.879  11.323  1.00  0.00     0.198 C 
HETATM   37  C   UNL     1      41.735  -8.807  10.642  1.00  0.00     0.298 C 
ENDBRANCH  31  32
ENDBRANCH  30  31
ENDBRANCH  29  30
ENDBRANCH   1  29
TORSDOF 7
ENDMDL
MODEL 7
REMARK VINA RESULT:      -9.4      2.641      6.496
REMARK  7 active torsions:
REMARK  status: ('A' for Active; 'I' for Inactive)
REMARK    1  A    between atoms: C_1  and  C_2 
REMARK    2  A    between atoms: C_1  and  O_9 
REMARK    3  A    between atoms: C_2  and  N_3 
REMARK    4  A    between atoms: O_9  and  C_10 
REMARK    5  A    between atoms: C_15  and  C_31 
REMARK    6  A    between atoms: C_17  and  N_18 
REMARK    7  A    between atoms: N_18  and  C_19 
ROOT
HETATM    1  C   UNL     1      42.446 -12.436   6.081  1.00  0.00     0.069 A 
HETATM    2  C   UNL     1      43.440 -13.149   6.739  1.00  0.00     0.039 A 
HETATM    3  C   UNL     1      43.750 -14.452   6.331  1.00  0.00     0.035 A 
HETATM    4  C   UNL     1      43.091 -15.073   5.279  1.00  0.00     0.073 A 
HETATM    5  N   UNL     1      43.451 -16.315   4.951  1.00  0.00    -0.228 NA
HETATM    6  C   UNL     1      42.798 -16.903   3.937  1.00  0.00     0.162 A 
HETATM    7  N   UNL     1      41.807 -16.325   3.243  1.00  0.00    -0.210 NA
HETATM    8  C   UNL     1      41.453 -15.071   3.573  1.00  0.00     0.143 A 
HETATM    9  C   UNL     1      42.083 -14.369   4.614  1.00  0.00     0.041 A 
HETATM   10  C   UNL     1      41.765 -13.050   5.030  1.00  0.00     0.054 A 
ENDROOT
BRANCH   8  11
HETATM   11  N   UNL     1      40.423 -14.435   2.827  1.00  0.00    -0.340 N 
HETATM   12  H   UNL     1      39.919 -13.799   3.436  1.00  0.00     0.167 HD
BRANCH  11  13
HETATM   13  C   UNL     1      40.513 -13.949   1.501  1.00  0.00     0.034 A 
HETATM   14  C   UNL     1      41.048 -12.671   1.270  1.00  0.00     0.032 A 
HETATM   15  C   UNL     1      41.121 -12.113  -0.015  1.00  0.00     0.034 A 
HETATM   16  C   UNL     1      40.607 -12.874  -1.066  1.00  0.00     0.062 A 
HETATM   17  N   UNL     1      40.516 -12.635  -2.413  1.00  0.00    -0.278 N 
HETATM   18  C   UNL     1      40.039 -14.127  -0.880  1.00  0.00     0.013 A 
HETATM   19  H   UNL     1      40.831 -11.815  -2.917  1.00  0.00     0.189 HD
HETATM   20  N   UNL     1      39.928 -13.623  -3.110  1.00  0.00    -0.186 NA
HETATM   21  C   UNL     1      39.637 -14.530  -2.172  1.00  0.00     0.152 A 
HETATM   22  C   UNL     1      39.979 -14.668   0.417  1.00  0.00     0.044 A 
ENDBRANCH  11  13
ENDBRANCH   8  11
BRANCH   6  23
HETATM   23  C   UNL     1      43.207 -18.266   3.542  1.00  0.00     0.012 A 
HETATM   24  C   UNL     1      42.969 -18.760   2.244  1.00  0.00     0.015 A 
HETATM   25  C   UNL     1      43.349 -20.054   1.873  1.00  0.00     0.001 A 
HETATM   26  C   UNL     1      43.975 -20.888   2.793  1.00  0.00     0.000 A 
HETATM   27  C   UNL     1      44.224 -20.429   4.083  1.00  0.00     0.001 A 
HETATM   28  C   UNL     1      43.846 -19.134   4.450  1.00  0.00     0.015 A 
ENDBRANCH   6  23
BRANCH   1  29
HETATM   29  O   UNL     1      42.052 -11.158   6.359  1.00  0.00    -0.349 OA
BRANCH  29  30
HETATM   30  C   UNL     1      42.271 -10.178   5.337  1.00  0.00     0.206 C 
BRANCH  30  31
HETATM   31  C   UNL     1      41.072  -9.214   5.324  1.00  0.00     0.299 C 
BRANCH  31  32
HETATM   32  N   UNL     1      39.995  -9.584   6.261  1.00  0.00     0.094 N 
HETATM   33  C   UNL     1      39.645  -8.514   7.220  1.00  0.00     0.298 C 
HETATM   34  C   UNL     1      38.876  -7.336   6.596  1.00  0.00     0.198 C 
HETATM   35  O   UNL     1      37.686  -7.785   5.937  1.00  0.00    -0.388 OA
HETATM   36  C   UNL     1      37.996  -8.762   4.934  1.00  0.00     0.198 C 
HETATM   37  C   UNL     1      38.760  -9.958   5.530  1.00  0.00     0.298 C 
ENDBRANCH  31  32
ENDBRANCH  30  31
ENDBRANCH  29  30
ENDBRANCH   1  29
TORSDOF 7
ENDMDL
MODEL 8
REMARK VINA RESULT:      -9.3      2.753      7.966
REMARK  7 active torsions:
REMARK  status: ('A' for Active; 'I' for Inactive)
REMARK    1  A    between atoms: C_1  and  C_2 
REMARK    2  A    between atoms: C_1  and  O_9 
REMARK    3  A    between atoms: C_2  and  N_3 
REMARK    4  A    between atoms: O_9  and  C_10 
REMARK    5  A    between atoms: C_15  and  C_31 
REMARK    6  A    between atoms: C_17  and  N_18 
REMARK    7  A    between atoms: N_18  and  C_19 
ROOT
HETATM    1  C   UNL     1      39.119 -11.281   2.422  1.00  0.00     0.069 A 
HETATM    2  C   UNL     1      39.595  -9.983   2.552  1.00  0.00     0.039 A 
HETATM    3  C   UNL     1      40.613  -9.701   3.471  1.00  0.00     0.035 A 
HETATM    4  C   UNL     1      41.174 -10.684   4.275  1.00  0.00     0.073 A 
HETATM    5  N   UNL     1      42.144 -10.333   5.121  1.00  0.00    -0.228 NA
HETATM    6  C   UNL     1      42.670 -11.294   5.897  1.00  0.00     0.162 A 
HETATM    7  N   UNL     1      42.277 -12.576   5.877  1.00  0.00    -0.210 NA
HETATM    8  C   UNL     1      41.305 -12.926   5.017  1.00  0.00     0.143 A 
HETATM    9  C   UNL     1      40.698 -11.994   4.159  1.00  0.00     0.041 A 
HETATM   10  C   UNL     1      39.664 -12.279   3.231  1.00  0.00     0.054 A 
ENDROOT
BRANCH   8  11
HETATM   11  N   UNL     1      40.898 -14.288   4.966  1.00  0.00    -0.340 N 
HETATM   12  H   UNL     1      39.890 -14.327   4.872  1.00  0.00     0.167 HD
BRANCH  11  13
HETATM   13  C   UNL     1      41.543 -15.340   4.273  1.00  0.00     0.034 A 
HETATM   14  C   UNL     1      41.083 -15.710   2.999  1.00  0.00     0.032 A 
HETATM   15  C   UNL     1      41.647 -16.774   2.280  1.00  0.00     0.034 A 
HETATM   16  C   UNL     1      42.679 -17.480   2.901  1.00  0.00     0.062 A 
HETATM   17  N   UNL     1      43.431 -18.551   2.494  1.00  0.00    -0.278 N 
HETATM   18  C   UNL     1      43.143 -17.171   4.172  1.00  0.00     0.013 A 
HETATM   19  H   UNL     1      43.372 -19.048   1.613  1.00  0.00     0.189 HD
HETATM   20  N   UNL     1      44.335 -18.966   3.399  1.00  0.00    -0.186 NA
HETATM   21  C   UNL     1      44.156 -18.123   4.421  1.00  0.00     0.152 A 
HETATM   22  C   UNL     1      42.565 -16.098   4.872  1.00  0.00     0.044 A 
ENDBRANCH  11  13
ENDBRANCH   8  11
BRANCH   6  23
HETATM   23  C   UNL     1      43.765 -10.926   6.815  1.00  0.00     0.012 A 
HETATM   24  C   UNL     1      45.111 -11.213   6.510  1.00  0.00     0.015 A 
HETATM   25  C   UNL     1      46.148 -10.872   7.385  1.00  0.00     0.001 A 
HETATM   26  C   UNL     1      45.864 -10.237   8.590  1.00  0.00     0.000 A 
HETATM   27  C   UNL     1      44.546  -9.941   8.920  1.00  0.00     0.001 A 
HETATM   28  C   UNL     1      43.511 -10.281   8.043  1.00  0.00     0.015 A 
ENDBRANCH   6  23
BRANCH   1  29
HETATM   29  O   UNL     1      38.146 -11.701   1.560  1.00  0.00    -0.349 OA
BRANCH  29  30
HETATM   30  C   UNL     1      38.152 -11.122   0.249  1.00  0.00     0.206 C 
BRANCH  30  31
HETATM   31  C   UNL     1      38.257 -12.259  -0.782  1.00  0.00     0.299 C 
BRANCH  31  32
HETATM   32  N   UNL     1      39.432 -13.131  -0.597  1.00  0.00     0.094 N 
HETATM   33  C   UNL     1      39.325 -14.432  -1.295  1.00  0.00     0.298 C 
HETATM   34  C   UNL     1      39.471 -14.339  -2.824  1.00  0.00     0.198 C 
HETATM   35  O   UNL     1      40.703 -13.708  -3.190  1.00  0.00    -0.388 OA
HETATM   36  C   UNL     1      40.803 -12.404  -2.602  1.00  0.00     0.198 C 
HETATM   37  C   UNL     1      40.669 -12.464  -1.070  1.00  0.00     0.298 C 
ENDBRANCH  31  32
ENDBRANCH  30  31
ENDBRANCH  29  30
ENDBRANCH   1  29
TORSDOF 7
ENDMDL
MODEL 9
REMARK VINA RESULT:      -9.1      2.536      6.319
REMARK  7 active torsions:
REMARK  status: ('A' for Active; 'I' for Inactive)
REMARK    1  A    between atoms: C_1  and  C_2 
REMARK    2  A    between atoms: C_1  and  O_9 
REMARK    3  A    between atoms: C_2  and  N_3 
REMARK    4  A    between atoms: O_9  and  C_10 
REMARK    5  A    between atoms: C_15  and  C_31 
REMARK    6  A    between atoms: C_17  and  N_18 
REMARK    7  A    between atoms: N_18  and  C_19 
ROOT
HETATM    1  C   UNL     1      39.619 -11.688   4.688  1.00  0.00     0.069 A 
HETATM    2  C   UNL     1      39.700 -12.530   5.790  1.00  0.00     0.039 A 
HETATM    3  C   UNL     1      40.333 -13.774   5.672  1.00  0.00     0.035 A 
HETATM    4  C   UNL     1      40.889 -14.209   4.477  1.00  0.00     0.073 A 
HETATM    5  N   UNL     1      41.478 -15.405   4.451  1.00  0.00    -0.228 NA
HETATM    6  C   UNL     1      42.003 -15.814   3.285  1.00  0.00     0.162 A 
HETATM    7  N   UNL     1      41.966 -15.099   2.152  1.00  0.00    -0.210 NA
HETATM    8  C   UNL     1      41.378 -13.891   2.184  1.00  0.00     0.143 A 
HETATM    9  C   UNL     1      40.806 -13.373   3.359  1.00  0.00     0.041 A 
HETATM   10  C   UNL     1      40.162 -12.115   3.476  1.00  0.00     0.054 A 
ENDROOT
BRANCH   8  11
HETATM   11  N   UNL     1      41.356 -13.111   0.996  1.00  0.00    -0.340 N 
HETATM   12  H   UNL     1      42.292 -13.072   0.608  1.00  0.00     0.167 HD
BRANCH  11  13
HETATM   13  C   UNL     1      40.360 -13.128  -0.010  1.00  0.00     0.034 A 
HETATM   14  C   UNL     1      39.388 -12.114  -0.035  1.00  0.00     0.032 A 
HETATM   15  C   UNL     1      38.347 -12.099  -0.975  1.00  0.00     0.034 A 
HETATM   16  C   UNL     1      38.296 -13.162  -1.879  1.00  0.00     0.062 A 
HETATM   17  N   UNL     1      37.431 -13.455  -2.901  1.00  0.00    -0.278 N 
HETATM   18  C   UNL     1      39.216 -14.201  -1.871  1.00  0.00     0.013 A 
HETATM   19  H   UNL     1      36.629 -12.916  -3.205  1.00  0.00     0.189 HD
HETATM   20  N   UNL     1      37.709 -14.601  -3.547  1.00  0.00    -0.186 NA
HETATM   21  C   UNL     1      38.796 -15.054  -2.915  1.00  0.00     0.152 A 
HETATM   22  C   UNL     1      40.253 -14.193  -0.921  1.00  0.00     0.044 A 
ENDBRANCH  11  13
ENDBRANCH   8  11
BRANCH   6  23
HETATM   23  C   UNL     1      42.687 -17.122   3.249  1.00  0.00     0.012 A 
HETATM   24  C   UNL     1      43.564 -17.524   4.276  1.00  0.00     0.015 A 
HETATM   25  C   UNL     1      44.218 -18.760   4.236  1.00  0.00     0.001 A 
HETATM   26  C   UNL     1      44.012 -19.625   3.167  1.00  0.00     0.000 A 
HETATM   27  C   UNL     1      43.151 -19.257   2.138  1.00  0.00     0.001 A 
HETATM   28  C   UNL     1      42.497 -18.022   2.181  1.00  0.00     0.015 A 
ENDBRANCH   6  23
BRANCH   1  29
HETATM   29  O   UNL     1      39.048 -10.447   4.662  1.00  0.00    -0.349 OA
BRANCH  29  30
HETATM   30  C   UNL     1      38.502  -9.962   5.895  1.00  0.00     0.206 C 
BRANCH  30  31
HETATM   31  C   UNL     1      39.379  -8.799   6.389  1.00  0.00     0.299 C 
BRANCH  31  32
HETATM   32  N   UNL     1      40.598  -8.583   5.588  1.00  0.00     0.094 N 
HETATM   33  C   UNL     1      40.819  -7.171   5.206  1.00  0.00     0.298 C 
HETATM   34  C   UNL     1      41.266  -6.268   6.368  1.00  0.00     0.198 C 
HETATM   35  O   UNL     1      42.449  -6.777   6.995  1.00  0.00    -0.388 OA
HETATM   36  C   UNL     1      42.244  -8.117   7.459  1.00  0.00     0.198 C 
HETATM   37  C   UNL     1      41.803  -9.049   6.316  1.00  0.00     0.298 C 
ENDBRANCH  31  32
ENDBRANCH  30  31
ENDBRANCH  29  30
ENDBRANCH   1  29
TORSDOF 7
ENDMDL
MODEL 10
REMARK VINA RESULT:      -9.1      3.555      8.022
REMARK  7 active torsions:
REMARK  status: ('A' for Active; 'I' for Inactive)
REMARK    1  A    between atoms: C_1  and  C_2 
REMARK    2  A    between atoms: C_1  and  O_9 
REMARK    3  A    between atoms: C_2  and  N_3 
REMARK    4  A    between atoms: O_9  and  C_10 
REMARK    5  A    between atoms: C_15  and  C_31 
REMARK    6  A    between atoms: C_17  and  N_18 
REMARK    7  A    between atoms: N_18  and  C_19 
ROOT
HETATM    1  C   UNL     1      39.791 -12.189  -0.167  1.00  0.00     0.069 A 
HETATM    2  C   UNL     1      39.484 -13.465  -0.622  1.00  0.00     0.039 A 
HETATM    3  C   UNL     1      40.119 -14.578  -0.059  1.00  0.00     0.035 A 
HETATM    4  C   UNL     1      41.062 -14.456   0.953  1.00  0.00     0.073 A 
HETATM    5  N   UNL     1      41.617 -15.568   1.438  1.00  0.00    -0.228 NA
HETATM    6  C   UNL     1      42.533 -15.432   2.410  1.00  0.00     0.162 A 
HETATM    7  N   UNL     1      42.926 -14.253   2.914  1.00  0.00    -0.210 NA
HETATM    8  C   UNL     1      42.359 -13.136   2.427  1.00  0.00     0.143 A 
HETATM    9  C   UNL     1      41.385 -13.177   1.414  1.00  0.00     0.041 A 
HETATM   10  C   UNL     1      40.745 -12.048   0.841  1.00  0.00     0.054 A 
ENDROOT
BRANCH   8  11
HETATM   11  N   UNL     1      42.747 -11.882   2.971  1.00  0.00    -0.340 N 
HETATM   12  H   UNL     1      42.226 -11.145   2.507  1.00  0.00     0.167 HD
BRANCH  11  13
HETATM   13  C   UNL     1      42.990 -11.588   4.334  1.00  0.00     0.034 A 
HETATM   14  C   UNL     1      41.937 -11.120   5.137  1.00  0.00     0.032 A 
HETATM   15  C   UNL     1      42.123 -10.766   6.482  1.00  0.00     0.034 A 
HETATM   16  C   UNL     1      43.420 -10.870   6.990  1.00  0.00     0.062 A 
HETATM   17  N   UNL     1      43.942 -10.608   8.230  1.00  0.00    -0.278 N 
HETATM   18  C   UNL     1      44.496 -11.296   6.224  1.00  0.00     0.013 A 
HETATM   19  H   UNL     1      43.449 -10.278   9.051  1.00  0.00     0.189 HD
HETATM   20  N   UNL     1      45.267 -10.819   8.325  1.00  0.00    -0.186 NA
HETATM   21  C   UNL     1      45.601 -11.237   7.101  1.00  0.00     0.152 A 
HETATM   22  C   UNL     1      44.285 -11.649   4.879  1.00  0.00     0.044 A 
ENDBRANCH  11  13
ENDBRANCH   8  11
BRANCH   6  23
HETATM   23  C   UNL     1      43.132 -16.655   2.979  1.00  0.00     0.012 A 
HETATM   24  C   UNL     1      43.218 -17.849   2.236  1.00  0.00     0.015 A 
HETATM   25  C   UNL     1      43.777 -19.010   2.779  1.00  0.00     0.001 A 
HETATM   26  C   UNL     1      44.264 -19.007   4.082  1.00  0.00     0.000 A 
HETATM   27  C   UNL     1      44.193 -17.844   4.842  1.00  0.00     0.001 A 
HETATM   28  C   UNL     1      43.636 -16.684   4.296  1.00  0.00     0.015 A 
ENDBRANCH   6  23
BRANCH   1  29
HETATM   29  O   UNL     1      39.240 -11.020  -0.611  1.00  0.00    -0.349 OA
BRANCH  29  30
HETATM   30  C   UNL     1      39.748  -9.809  -0.038  1.00  0.00     0.206 C 
BRANCH  30  31
HETATM   31  C   UNL     1      40.048  -8.822  -1.179  1.00  0.00     0.299 C 
BRANCH  31  32
HETATM   32  N   UNL     1      41.159  -9.238  -2.056  1.00  0.00     0.094 N 
HETATM   33  C   UNL     1      41.242  -8.470  -3.318  1.00  0.00     0.298 C 
HETATM   34  C   UNL     1      41.747  -7.027  -3.144  1.00  0.00     0.198 C 
HETATM   35  O   UNL     1      43.021  -6.998  -2.491  1.00  0.00    -0.388 OA
HETATM   36  C   UNL     1      42.957  -7.658  -1.219  1.00  0.00     0.198 C 
HETATM   37  C   UNL     1      42.462  -9.109  -1.361  1.00  0.00     0.298 C 
ENDBRANCH  31  32
ENDBRANCH  30  31
ENDBRANCH  29  30
ENDBRANCH   1  29
TORSDOF 7
ENDMDL
