MODEL 1
REMARK VINA RESULT:      -8.4      0.000      0.000
REMARK  10 active torsions:
REMARK  status: ('A' for Active; 'I' for Inactive)
REMARK    1  A    between atoms: C_2  and  C_3 
REMARK    2  A    between atoms: C_3  and  C_4 
REMARK    3  A    between atoms: C_4  and  O_5 
REMARK    4  A    between atoms: O_5  and  C_6 
REMARK    5  A    between atoms: C_8  and  C_9 
REMARK       I    between atoms: C_9  and  N_10 
REMARK    6  A    between atoms: N_10  and  C_11 
REMARK    7  A    between atoms: C_11  and  N_12 
REMARK    8  A    between atoms: N_12  and  C_13 
REMARK    9  A    between atoms: C_15  and  O_16 
REMARK   10  A    between atoms: C_17  and  C_18 
ROOT
HETATM    1  N   UNL     1      40.871 -12.961   2.138  1.00  0.00    -0.333 N 
HETATM    2  H   UNL     1      39.944 -12.552   2.039  1.00  0.00     0.168 HD
ENDROOT
BRANCH   1   3
HETATM    3  C   UNL     1      41.262 -13.606   0.995  1.00  0.00     0.179 C 
HETATM    4  S   UNL     1      40.935 -12.832  -0.454  1.00  0.00    -0.040 SA
BRANCH   3   5
HETATM    5  N   UNL     1      41.808 -14.857   1.134  1.00  0.00    -0.299 N 
HETATM    6  C   UNL     1      41.301 -15.886   1.918  1.00  0.00     0.257 C 
HETATM    7  O   UNL     1      40.119 -16.212   1.938  1.00  0.00    -0.267 OA
HETATM    8  H   UNL     1      42.798 -14.875   0.935  1.00  0.00     0.171 HD
BRANCH   6   9
HETATM    9  C   UNL     1      42.305 -16.753   2.584  1.00  0.00     0.035 A 
HETATM   10  C   UNL     1      42.890 -16.391   3.802  1.00  0.00     0.053 A 
HETATM   11  C   UNL     1      43.821 -17.236   4.416  1.00  0.00     0.069 A 
HETATM   12  C   UNL     1      44.158 -18.446   3.807  1.00  0.00     0.037 A 
HETATM   13  C   UNL     1      43.558 -18.819   2.602  1.00  0.00     0.004 A 
HETATM   14  C   UNL     1      42.629 -17.978   1.993  1.00  0.00     0.017 A 
BRANCH  11  15
HETATM   15  O   UNL     1      44.291 -16.776   5.613  1.00  0.00    -0.351 OA
BRANCH  15  16
HETATM   16  C   UNL     1      43.619 -17.152   6.812  1.00  0.00     0.175 C 
BRANCH  16  17
HETATM   17  C   UNL     1      43.195 -15.961   7.677  1.00  0.00     0.026 C 
BRANCH  17  18
HETATM   18  C   UNL     1      42.079 -15.102   7.077  1.00  0.00    -0.002 C 
HETATM   19  C   UNL     1      40.849 -15.897   6.662  1.00  0.00     0.005 C 
ENDBRANCH  17  18
ENDBRANCH  16  17
ENDBRANCH  15  16
ENDBRANCH  11  15
ENDBRANCH   6   9
ENDBRANCH   3   5
ENDBRANCH   1   3
BRANCH   1  20
HETATM   20  C   UNL     1      41.585 -12.542   3.282  1.00  0.00     0.036 A 
HETATM   21  C   UNL     1      42.929 -12.165   3.295  1.00  0.00     0.067 A 
HETATM   22  C   UNL     1      43.519 -11.658   4.468  1.00  0.00     0.082 A 
HETATM   23  C   UNL     1      42.778 -11.494   5.649  1.00  0.00     0.050 A 
HETATM   24  C   UNL     1      41.433 -11.897   5.623  1.00  0.00     0.021 A 
HETATM   25  C   UNL     1      40.847 -12.413   4.462  1.00  0.00     0.030 A 
BRANCH  22  26
HETATM   26  O   UNL     1      44.840 -11.295   4.423  1.00  0.00    -0.360 OA
HETATM   27  H   UNL     1      45.358 -11.832   5.043  1.00  0.00     0.217 HD
ENDBRANCH  22  26
BRANCH  23  28
HETATM   28  C   UNL     1      43.279 -10.868   6.878  1.00  0.00     0.183 A 
HETATM   29  O   UNL     1      42.423 -10.062   7.588  1.00  0.00    -0.289 OA
HETATM   30  C   UNL     1      43.131  -9.720   8.700  1.00  0.00     0.106 A 
HETATM   31  C   UNL     1      44.377 -10.314   8.610  1.00  0.00     0.093 A 
HETATM   32  C   UNL     1      42.704  -8.932   9.762  1.00  0.00     0.040 A 
HETATM   33  N   UNL     1      44.468 -11.025   7.441  1.00  0.00    -0.221 NA
HETATM   34  C   UNL     1      45.294 -10.130   9.653  1.00  0.00     0.034 A 
HETATM   35  C   UNL     1      44.899  -9.348  10.750  1.00  0.00     0.002 A 
HETATM   36  C   UNL     1      43.628  -8.761  10.800  1.00  0.00     0.003 A 
ENDBRANCH  23  28
ENDBRANCH   1  20
TORSDOF 10
ENDMDL
MODEL 2
REMARK VINA RESULT:      -8.4      2.439      8.814
REMARK  10 active torsions:
REMARK  status: ('A' for Active; 'I' for Inactive)
REMARK    1  A    between atoms: C_2  and  C_3 
REMARK    2  A    between atoms: C_3  and  C_4 
REMARK    3  A    between atoms: C_4  and  O_5 
REMARK    4  A    between atoms: O_5  and  C_6 
REMARK    5  A    between atoms: C_8  and  C_9 
REMARK       I    between atoms: C_9  and  N_10 
REMARK    6  A    between atoms: N_10  and  C_11 
REMARK    7  A    between atoms: C_11  and  N_12 
REMARK    8  A    between atoms: N_12  and  C_13 
REMARK    9  A    between atoms: C_15  and  O_16 
REMARK   10  A    between atoms: C_17  and  C_18 
ROOT
HETATM    1  N   UNL     1      42.523 -11.053   4.451  1.00  0.00    -0.333 N 
HETATM    2  H   UNL     1      42.853 -10.410   3.734  1.00  0.00     0.168 HD
ENDROOT
BRANCH   1   3
HETATM    3  C   UNL     1      41.825 -10.400   5.432  1.00  0.00     0.179 C 
HETATM    4  S   UNL     1      40.159 -10.364   5.273  1.00  0.00    -0.040 SA
BRANCH   3   5
HETATM    5  N   UNL     1      42.554  -9.765   6.406  1.00  0.00    -0.299 N 
HETATM    6  C   UNL     1      43.651 -10.292   7.078  1.00  0.00     0.257 C 
HETATM    7  O   UNL     1      44.576 -10.876   6.525  1.00  0.00    -0.267 OA
HETATM    8  H   UNL     1      42.030  -9.042   6.877  1.00  0.00     0.171 HD
BRANCH   6   9
HETATM    9  C   UNL     1      43.780  -9.917   8.509  1.00  0.00     0.035 A 
HETATM   10  C   UNL     1      42.675  -9.496   9.257  1.00  0.00     0.053 A 
HETATM   11  C   UNL     1      42.824  -9.166  10.608  1.00  0.00     0.069 A 
HETATM   12  C   UNL     1      44.081  -9.264  11.206  1.00  0.00     0.037 A 
HETATM   13  C   UNL     1      45.181  -9.705  10.466  1.00  0.00     0.004 A 
HETATM   14  C   UNL     1      45.031 -10.037   9.121  1.00  0.00     0.017 A 
BRANCH  11  15
HETATM   15  O   UNL     1      41.662  -8.799  11.226  1.00  0.00    -0.351 OA
BRANCH  15  16
HETATM   16  C   UNL     1      41.089  -9.671  12.197  1.00  0.00     0.175 C 
BRANCH  16  17
HETATM   17  C   UNL     1      40.872  -9.013  13.562  1.00  0.00     0.026 C 
BRANCH  17  18
HETATM   18  C   UNL     1      42.147  -8.821  14.387  1.00  0.00    -0.002 C 
HETATM   19  C   UNL     1      42.775  -7.443  14.234  1.00  0.00     0.005 C 
ENDBRANCH  17  18
ENDBRANCH  16  17
ENDBRANCH  15  16
ENDBRANCH  11  15
ENDBRANCH   6   9
ENDBRANCH   3   5
ENDBRANCH   1   3
BRANCH   1  20
HETATM   20  C   UNL     1      42.635 -12.421   4.118  1.00  0.00     0.036 A 
HETATM   21  C   UNL     1      42.942 -12.916   2.850  1.00  0.00     0.067 A 
HETATM   22  C   UNL     1      43.138 -14.294   2.646  1.00  0.00     0.082 A 
HETATM   23  C   UNL     1      43.052 -15.210   3.707  1.00  0.00     0.050 A 
HETATM   24  C   UNL     1      42.722 -14.698   4.973  1.00  0.00     0.021 A 
HETATM   25  C   UNL     1      42.515 -13.328   5.175  1.00  0.00     0.030 A 
BRANCH  22  26
HETATM   26  O   UNL     1      43.445 -14.725   1.383  1.00  0.00    -0.360 OA
HETATM   27  H   UNL     1      44.393 -14.921   1.314  1.00  0.00     0.217 HD
ENDBRANCH  22  26
BRANCH  23  28
HETATM   28  C   UNL     1      43.353 -16.643   3.610  1.00  0.00     0.183 A 
HETATM   29  O   UNL     1      43.659 -17.320   4.764  1.00  0.00    -0.289 OA
HETATM   30  C   UNL     1      43.788 -18.617   4.369  1.00  0.00     0.106 A 
HETATM   31  C   UNL     1      43.573 -18.667   3.004  1.00  0.00     0.093 A 
HETATM   32  C   UNL     1      44.068 -19.718   5.168  1.00  0.00     0.040 A 
HETATM   33  N   UNL     1      43.316 -17.407   2.528  1.00  0.00    -0.221 NA
HETATM   34  C   UNL     1      43.629 -19.907   2.353  1.00  0.00     0.034 A 
HETATM   35  C   UNL     1      43.899 -21.047   3.126  1.00  0.00     0.002 A 
HETATM   36  C   UNL     1      44.115 -20.952   4.507  1.00  0.00     0.003 A 
ENDBRANCH  23  28
ENDBRANCH   1  20
TORSDOF 10
ENDMDL
MODEL 3
REMARK VINA RESULT:      -8.2      2.944      7.908
REMARK  10 active torsions:
REMARK  status: ('A' for Active; 'I' for Inactive)
REMARK    1  A    between atoms: C_2  and  C_3 
REMARK    2  A    between atoms: C_3  and  C_4 
REMARK    3  A    between atoms: C_4  and  O_5 
REMARK    4  A    between atoms: O_5  and  C_6 
REMARK    5  A    between atoms: C_8  and  C_9 
REMARK       I    between atoms: C_9  and  N_10 
REMARK    6  A    between atoms: N_10  and  C_11 
REMARK    7  A    between atoms: C_11  and  N_12 
REMARK    8  A    between atoms: N_12  and  C_13 
REMARK    9  A    between atoms: C_15  and  O_16 
REMARK   10  A    between atoms: C_17  and  C_18 
ROOT
HETATM    1  N   UNL     1      43.474 -17.818   3.905  1.00  0.00    -0.333 N 
HETATM    2  H   UNL     1      44.168 -18.395   3.432  1.00  0.00     0.168 HD
ENDROOT
BRANCH   1   3
HETATM    3  C   UNL     1      43.674 -17.797   5.259  1.00  0.00     0.179 C 
HETATM    4  S   UNL     1      43.510 -19.254   6.068  1.00  0.00    -0.040 SA
BRANCH   3   5
HETATM    5  N   UNL     1      43.908 -16.576   5.840  1.00  0.00    -0.299 N 
HETATM    6  C   UNL     1      42.938 -15.686   6.286  1.00  0.00     0.257 C 
HETATM    7  O   UNL     1      41.967 -16.013   6.960  1.00  0.00    -0.267 OA
HETATM    8  H   UNL     1      44.806 -16.189   5.589  1.00  0.00     0.171 HD
BRANCH   6   9
HETATM    9  C   UNL     1      43.244 -14.244   6.105  1.00  0.00     0.035 A 
HETATM   10  C   UNL     1      43.825 -13.486   7.127  1.00  0.00     0.053 A 
HETATM   11  C   UNL     1      44.118 -12.133   6.921  1.00  0.00     0.069 A 
HETATM   12  C   UNL     1      43.831 -11.547   5.688  1.00  0.00     0.037 A 
HETATM   13  C   UNL     1      43.271 -12.308   4.659  1.00  0.00     0.004 A 
HETATM   14  C   UNL     1      42.983 -13.656   4.864  1.00  0.00     0.017 A 
BRANCH  11  15
HETATM   15  O   UNL     1      44.709 -11.520   7.988  1.00  0.00    -0.351 OA
BRANCH  15  16
HETATM   16  C   UNL     1      45.704 -10.526   7.753  1.00  0.00     0.175 C 
BRANCH  16  17
HETATM   17  C   UNL     1      45.634  -9.346   8.726  1.00  0.00     0.026 C 
BRANCH  17  18
HETATM   18  C   UNL     1      45.397  -9.736  10.188  1.00  0.00    -0.002 C 
HETATM   19  C   UNL     1      44.097  -9.195  10.763  1.00  0.00     0.005 C 
ENDBRANCH  17  18
ENDBRANCH  16  17
ENDBRANCH  15  16
ENDBRANCH  11  15
ENDBRANCH   6   9
ENDBRANCH   3   5
ENDBRANCH   1   3
BRANCH   1  20
HETATM   20  C   UNL     1      42.690 -17.013   3.049  1.00  0.00     0.036 A 
HETATM   21  C   UNL     1      41.328 -16.756   3.212  1.00  0.00     0.067 A 
HETATM   22  C   UNL     1      40.663 -15.851   2.366  1.00  0.00     0.082 A 
HETATM   23  C   UNL     1      41.344 -15.163   1.349  1.00  0.00     0.050 A 
HETATM   24  C   UNL     1      42.710 -15.447   1.186  1.00  0.00     0.021 A 
HETATM   25  C   UNL     1      43.371 -16.357   2.019  1.00  0.00     0.030 A 
BRANCH  22  26
HETATM   26  O   UNL     1      39.327 -15.631   2.575  1.00  0.00    -0.360 OA
HETATM   27  H   UNL     1      38.796 -16.218   2.015  1.00  0.00     0.217 HD
ENDBRANCH  22  26
BRANCH  23  28
HETATM   28  C   UNL     1      40.759 -14.120   0.499  1.00  0.00     0.183 A 
HETATM   29  O   UNL     1      39.684 -14.454  -0.286  1.00  0.00    -0.289 OA
HETATM   30  C   UNL     1      39.315 -13.278  -0.868  1.00  0.00     0.106 A 
HETATM   31  C   UNL     1      40.184 -12.297  -0.427  1.00  0.00     0.093 A 
HETATM   32  C   UNL     1      38.254 -13.064  -1.738  1.00  0.00     0.040 A 
HETATM   33  N   UNL     1      41.109 -12.844   0.425  1.00  0.00    -0.221 NA
HETATM   34  C   UNL     1      40.002 -10.980  -0.869  1.00  0.00     0.034 A 
HETATM   35  C   UNL     1      38.934 -10.718  -1.742  1.00  0.00     0.002 A 
HETATM   36  C   UNL     1      38.079 -11.742  -2.168  1.00  0.00     0.003 A 
ENDBRANCH  23  28
ENDBRANCH   1  20
TORSDOF 10
ENDMDL
MODEL 4
REMARK VINA RESULT:      -8.2      0.995      2.483
REMARK  10 active torsions:
REMARK  status: ('A' for Active; 'I' for Inactive)
REMARK    1  A    between atoms: C_2  and  C_3 
REMARK    2  A    between atoms: C_3  and  C_4 
REMARK    3  A    between atoms: C_4  and  O_5 
REMARK    4  A    between atoms: O_5  and  C_6 
REMARK    5  A    between atoms: C_8  and  C_9 
REMARK       I    between atoms: C_9  and  N_10 
REMARK    6  A    between atoms: N_10  and  C_11 
REMARK    7  A    between atoms: C_11  and  N_12 
REMARK    8  A    between atoms: N_12  and  C_13 
REMARK    9  A    between atoms: C_15  and  O_16 
REMARK   10  A    between atoms: C_17  and  C_18 
ROOT
HETATM    1  N   UNL     1      41.184 -12.371   1.738  1.00  0.00    -0.333 N 
HETATM    2  H   UNL     1      40.987 -11.564   1.149  1.00  0.00     0.168 HD
ENDROOT
BRANCH   1   3
HETATM    3  C   UNL     1      40.992 -13.547   1.064  1.00  0.00     0.179 C 
HETATM    4  S   UNL     1      40.170 -13.454  -0.392  1.00  0.00    -0.040 SA
BRANCH   3   5
HETATM    5  N   UNL     1      41.414 -14.699   1.678  1.00  0.00    -0.299 N 
HETATM    6  C   UNL     1      40.655 -15.497   2.526  1.00  0.00     0.257 C 
HETATM    7  O   UNL     1      39.501 -15.840   2.291  1.00  0.00    -0.267 OA
HETATM    8  H   UNL     1      42.417 -14.741   1.784  1.00  0.00     0.171 HD
BRANCH   6   9
HETATM    9  C   UNL     1      41.384 -16.125   3.656  1.00  0.00     0.035 A 
HETATM   10  C   UNL     1      42.515 -16.921   3.444  1.00  0.00     0.053 A 
HETATM   11  C   UNL     1      43.192 -17.487   4.530  1.00  0.00     0.069 A 
HETATM   12  C   UNL     1      42.735 -17.246   5.826  1.00  0.00     0.037 A 
HETATM   13  C   UNL     1      41.619 -16.434   6.041  1.00  0.00     0.004 A 
HETATM   14  C   UNL     1      40.947 -15.869   4.960  1.00  0.00     0.017 A 
BRANCH  11  15
HETATM   15  O   UNL     1      44.294 -18.216   4.185  1.00  0.00    -0.351 OA
BRANCH  15  16
HETATM   16  C   UNL     1      44.504 -19.486   4.795  1.00  0.00     0.175 C 
BRANCH  16  17
HETATM   17  C   UNL     1      43.836 -20.644   4.049  1.00  0.00     0.026 C 
BRANCH  17  18
HETATM   18  C   UNL     1      43.979 -20.589   2.526  1.00  0.00    -0.002 C 
HETATM   19  C   UNL     1      42.706 -20.169   1.806  1.00  0.00     0.005 C 
ENDBRANCH  17  18
ENDBRANCH  16  17
ENDBRANCH  15  16
ENDBRANCH  11  15
ENDBRANCH   6   9
ENDBRANCH   3   5
ENDBRANCH   1   3
BRANCH   1  20
HETATM   20  C   UNL     1      41.836 -12.071   2.955  1.00  0.00     0.036 A 
HETATM   21  C   UNL     1      43.207 -11.849   3.098  1.00  0.00     0.067 A 
HETATM   22  C   UNL     1      43.742 -11.449   4.336  1.00  0.00     0.082 A 
HETATM   23  C   UNL     1      42.921 -11.239   5.456  1.00  0.00     0.050 A 
HETATM   24  C   UNL     1      41.547 -11.485   5.299  1.00  0.00     0.021 A 
HETATM   25  C   UNL     1      41.014 -11.895   4.072  1.00  0.00     0.030 A 
BRANCH  22  26
HETATM   26  O   UNL     1      45.093 -11.238   4.419  1.00  0.00    -0.360 OA
HETATM   27  H   UNL     1      45.360 -10.521   3.823  1.00  0.00     0.217 HD
ENDBRANCH  22  26
BRANCH  23  28
HETATM   28  C   UNL     1      43.376 -10.712   6.747  1.00  0.00     0.183 A 
HETATM   29  O   UNL     1      42.490  -9.975   7.493  1.00  0.00    -0.289 OA
HETATM   30  C   UNL     1      43.159  -9.719   8.652  1.00  0.00     0.106 A 
HETATM   31  C   UNL     1      44.414 -10.292   8.553  1.00  0.00     0.093 A 
HETATM   32  C   UNL     1      42.690  -9.025   9.761  1.00  0.00     0.040 A 
HETATM   33  N   UNL     1      44.549 -10.904   7.333  1.00  0.00    -0.221 NA
HETATM   34  C   UNL     1      45.296 -10.187   9.636  1.00  0.00     0.034 A 
HETATM   35  C   UNL     1      44.858  -9.502  10.780  1.00  0.00     0.002 A 
HETATM   36  C   UNL     1      43.580  -8.932  10.839  1.00  0.00     0.003 A 
ENDBRANCH  23  28
ENDBRANCH   1  20
TORSDOF 10
ENDMDL
MODEL 5
REMARK VINA RESULT:      -8.0      3.144      9.906
REMARK  10 active torsions:
REMARK  status: ('A' for Active; 'I' for Inactive)
REMARK    1  A    between atoms: C_2  and  C_3 
REMARK    2  A    between atoms: C_3  and  C_4 
REMARK    3  A    between atoms: C_4  and  O_5 
REMARK    4  A    between atoms: O_5  and  C_6 
REMARK    5  A    between atoms: C_8  and  C_9 
REMARK       I    between atoms: C_9  and  N_10 
REMARK    6  A    between atoms: N_10  and  C_11 
REMARK    7  A    between atoms: C_11  and  N_12 
REMARK    8  A    between atoms: N_12  and  C_13 
REMARK    9  A    between atoms: C_15  and  O_16 
REMARK   10  A    between atoms: C_17  and  C_18 
ROOT
HETATM    1  N   UNL     1      43.374 -11.584   7.228  1.00  0.00    -0.333 N 
HETATM    2  H   UNL     1      42.570 -11.358   7.811  1.00  0.00     0.168 HD
ENDROOT
BRANCH   1   3
HETATM    3  C   UNL     1      44.451 -10.793   7.526  1.00  0.00     0.179 C 
HETATM    4  S   UNL     1      45.852 -11.070   6.652  1.00  0.00    -0.040 SA
BRANCH   3   5
HETATM    5  N   UNL     1      44.312  -9.907   8.565  1.00  0.00    -0.299 N 
HETATM    6  C   UNL     1      43.724 -10.176   9.794  1.00  0.00     0.257 C 
HETATM    7  O   UNL     1      43.954 -11.182  10.457  1.00  0.00    -0.267 OA
HETATM    8  H   UNL     1      44.321  -8.944   8.260  1.00  0.00     0.171 HD
BRANCH   6   9
HETATM    9  C   UNL     1      42.951  -9.065  10.404  1.00  0.00     0.035 A 
HETATM   10  C   UNL     1      41.931  -9.306  11.331  1.00  0.00     0.053 A 
HETATM   11  C   UNL     1      41.231  -8.237  11.902  1.00  0.00     0.069 A 
HETATM   12  C   UNL     1      41.562  -6.929  11.546  1.00  0.00     0.037 A 
HETATM   13  C   UNL     1      42.595  -6.686  10.638  1.00  0.00     0.004 A 
HETATM   14  C   UNL     1      43.293  -7.750  10.072  1.00  0.00     0.017 A 
BRANCH  11  15
HETATM   15  O   UNL     1      40.283  -8.612  12.811  1.00  0.00    -0.351 OA
BRANCH  15  16
HETATM   16  C   UNL     1      40.691  -9.266  14.010  1.00  0.00     0.175 C 
BRANCH  16  17
HETATM   17  C   UNL     1      41.757  -8.496  14.796  1.00  0.00     0.026 C 
BRANCH  17  18
HETATM   18  C   UNL     1      41.236  -7.264  15.540  1.00  0.00    -0.002 C 
HETATM   19  C   UNL     1      41.816  -7.102  16.938  1.00  0.00     0.005 C 
ENDBRANCH  17  18
ENDBRANCH  16  17
ENDBRANCH  15  16
ENDBRANCH  11  15
ENDBRANCH   6   9
ENDBRANCH   3   5
ENDBRANCH   1   3
BRANCH   1  20
HETATM   20  C   UNL     1      43.252 -12.782   6.489  1.00  0.00     0.036 A 
HETATM   21  C   UNL     1      42.902 -12.860   5.140  1.00  0.00     0.067 A 
HETATM   22  C   UNL     1      42.915 -14.096   4.468  1.00  0.00     0.082 A 
HETATM   23  C   UNL     1      43.298 -15.280   5.118  1.00  0.00     0.050 A 
HETATM   24  C   UNL     1      43.629 -15.186   6.480  1.00  0.00     0.021 A 
HETATM   25  C   UNL     1      43.604 -13.959   7.155  1.00  0.00     0.030 A 
BRANCH  22  26
HETATM   26  O   UNL     1      42.570 -14.115   3.142  1.00  0.00    -0.360 OA
HETATM   27  H   UNL     1      42.187 -13.263   2.881  1.00  0.00     0.217 HD
ENDBRANCH  22  26
BRANCH  23  28
HETATM   28  C   UNL     1      43.452 -16.587   4.469  1.00  0.00     0.183 A 
HETATM   29  O   UNL     1      43.870 -17.645   5.236  1.00  0.00    -0.289 OA
HETATM   30  C   UNL     1      43.821 -18.713   4.392  1.00  0.00     0.106 A 
HETATM   31  C   UNL     1      43.395 -18.257   3.157  1.00  0.00     0.093 A 
HETATM   32  C   UNL     1      44.121 -20.037   4.687  1.00  0.00     0.040 A 
HETATM   33  N   UNL     1      43.182 -16.903   3.211  1.00  0.00    -0.221 NA
HETATM   34  C   UNL     1      43.240 -19.176   2.111  1.00  0.00     0.034 A 
HETATM   35  C   UNL     1      43.523 -20.525   2.370  1.00  0.00     0.002 A 
HETATM   36  C   UNL     1      43.956 -20.945   3.634  1.00  0.00     0.003 A 
ENDBRANCH  23  28
ENDBRANCH   1  20
TORSDOF 10
ENDMDL
MODEL 6
REMARK VINA RESULT:      -7.9      3.073      9.176
REMARK  10 active torsions:
REMARK  status: ('A' for Active; 'I' for Inactive)
REMARK    1  A    between atoms: C_2  and  C_3 
REMARK    2  A    between atoms: C_3  and  C_4 
REMARK    3  A    between atoms: C_4  and  O_5 
REMARK    4  A    between atoms: O_5  and  C_6 
REMARK    5  A    between atoms: C_8  and  C_9 
REMARK       I    between atoms: C_9  and  N_10 
REMARK    6  A    between atoms: N_10  and  C_11 
REMARK    7  A    between atoms: C_11  and  N_12 
REMARK    8  A    between atoms: N_12  and  C_13 
REMARK    9  A    between atoms: C_15  and  O_16 
REMARK   10  A    between atoms: C_17  and  C_18 
ROOT
HETATM    1  N   UNL     1      43.377 -14.403   5.378  1.00  0.00    -0.333 N 
HETATM    2  H   UNL     1      44.355 -14.287   5.119  1.00  0.00     0.168 HD
ENDROOT
BRANCH   1   3
HETATM    3  C   UNL     1      43.199 -14.313   6.733  1.00  0.00     0.179 C 
HETATM    4  S   UNL     1      42.854 -15.737   7.543  1.00  0.00    -0.040 SA
BRANCH   3   5
HETATM    5  N   UNL     1      43.236 -13.059   7.289  1.00  0.00    -0.299 N 
HETATM    6  C   UNL     1      43.794 -11.925   6.711  1.00  0.00     0.257 C 
HETATM    7  O   UNL     1      43.607 -11.590   5.546  1.00  0.00    -0.267 OA
HETATM    8  H   UNL     1      43.174 -13.078   8.297  1.00  0.00     0.171 HD
BRANCH   6   9
HETATM    9  C   UNL     1      44.464 -10.982   7.640  1.00  0.00     0.035 A 
HETATM   10  C   UNL     1      43.931 -10.696   8.902  1.00  0.00     0.053 A 
HETATM   11  C   UNL     1      44.594  -9.815   9.763  1.00  0.00     0.069 A 
HETATM   12  C   UNL     1      45.793  -9.228   9.357  1.00  0.00     0.037 A 
HETATM   13  C   UNL     1      46.338  -9.530   8.107  1.00  0.00     0.004 A 
HETATM   14  C   UNL     1      45.679 -10.409   7.251  1.00  0.00     0.017 A 
BRANCH  11  15
HETATM   15  O   UNL     1      43.982  -9.648  10.973  1.00  0.00    -0.351 OA
BRANCH  15  16
HETATM   16  C   UNL     1      42.775  -8.893  11.040  1.00  0.00     0.175 C 
BRANCH  16  17
HETATM   17  C   UNL     1      42.837  -7.723  12.026  1.00  0.00     0.026 C 
BRANCH  17  18
HETATM   18  C   UNL     1      42.965  -8.133  13.496  1.00  0.00    -0.002 C 
HETATM   19  C   UNL     1      41.789  -8.952  14.008  1.00  0.00     0.005 C 
ENDBRANCH  17  18
ENDBRANCH  16  17
ENDBRANCH  15  16
ENDBRANCH  11  15
ENDBRANCH   6   9
ENDBRANCH   3   5
ENDBRANCH   1   3
BRANCH   1  20
HETATM   20  C   UNL     1      42.468 -14.357   4.297  1.00  0.00     0.036 A 
HETATM   21  C   UNL     1      41.136 -13.950   4.385  1.00  0.00     0.067 A 
HETATM   22  C   UNL     1      40.344 -13.836   3.228  1.00  0.00     0.082 A 
HETATM   23  C   UNL     1      40.867 -14.104   1.953  1.00  0.00     0.050 A 
HETATM   24  C   UNL     1      42.204 -14.532   1.884  1.00  0.00     0.021 A 
HETATM   25  C   UNL     1      42.990 -14.658   3.035  1.00  0.00     0.030 A 
BRANCH  22  26
HETATM   26  O   UNL     1      39.045 -13.426   3.371  1.00  0.00    -0.360 OA
HETATM   27  H   UNL     1      38.450 -14.191   3.403  1.00  0.00     0.217 HD
ENDBRANCH  22  26
BRANCH  23  28
HETATM   28  C   UNL     1      40.152 -13.901   0.688  1.00  0.00     0.183 A 
HETATM   29  O   UNL     1      40.164 -14.919  -0.233  1.00  0.00    -0.289 OA
HETATM   30  C   UNL     1      39.350 -14.477  -1.232  1.00  0.00     0.106 A 
HETATM   31  C   UNL     1      38.899 -13.217  -0.885  1.00  0.00     0.093 A 
HETATM   32  C   UNL     1      39.002 -15.151  -2.396  1.00  0.00     0.040 A 
HETATM   33  N   UNL     1      39.428 -12.852   0.327  1.00  0.00    -0.221 NA
HETATM   34  C   UNL     1      38.020 -12.549  -1.748  1.00  0.00     0.034 A 
HETATM   35  C   UNL     1      37.635 -13.198  -2.931  1.00  0.00     0.002 A 
HETATM   36  C   UNL     1      38.119 -14.475  -3.248  1.00  0.00     0.003 A 
ENDBRANCH  23  28
ENDBRANCH   1  20
TORSDOF 10
ENDMDL
MODEL 7
REMARK VINA RESULT:      -7.8      2.811      7.548
REMARK  10 active torsions:
REMARK  status: ('A' for Active; 'I' for Inactive)
REMARK    1  A    between atoms: C_2  and  C_3 
REMARK    2  A    between atoms: C_3  and  C_4 
REMARK    3  A    between atoms: C_4  and  O_5 
REMARK    4  A    between atoms: O_5  and  C_6 
REMARK    5  A    between atoms: C_8  and  C_9 
REMARK       I    between atoms: C_9  and  N_10 
REMARK    6  A    between atoms: N_10  and  C_11 
REMARK    7  A    between atoms: C_11  and  N_12 
REMARK    8  A    between atoms: N_12  and  C_13 
REMARK    9  A    between atoms: C_15  and  O_16 
REMARK   10  A    between atoms: C_17  and  C_18 
ROOT
HETATM    1  N   UNL     1      42.224  -9.931   6.035  1.00  0.00    -0.333 N 
HETATM    2  H   UNL     1      41.772  -9.032   6.192  1.00  0.00     0.168 HD
ENDROOT
BRANCH   1   3
HETATM    3  C   UNL     1      42.920 -10.345   7.139  1.00  0.00     0.179 C 
HETATM    4  S   UNL     1      43.748  -9.166   7.992  1.00  0.00    -0.040 SA
BRANCH   3   5
HETATM    5  N   UNL     1      42.945 -11.692   7.398  1.00  0.00    -0.299 N 
HETATM    6  C   UNL     1      43.830 -12.612   6.850  1.00  0.00     0.257 C 
HETATM    7  O   UNL     1      45.040 -12.432   6.768  1.00  0.00    -0.267 OA
HETATM    8  H   UNL     1      42.053 -12.045   7.717  1.00  0.00     0.171 HD
BRANCH   6   9
HETATM    9  C   UNL     1      43.275 -13.959   6.562  1.00  0.00     0.035 A 
HETATM   10  C   UNL     1      42.923 -14.341   5.263  1.00  0.00     0.053 A 
HETATM   11  C   UNL     1      42.418 -15.623   5.018  1.00  0.00     0.069 A 
HETATM   12  C   UNL     1      42.273 -16.519   6.078  1.00  0.00     0.037 A 
HETATM   13  C   UNL     1      42.645 -16.146   7.372  1.00  0.00     0.004 A 
HETATM   14  C   UNL     1      43.150 -14.871   7.614  1.00  0.00     0.017 A 
BRANCH  11  15
HETATM   15  O   UNL     1      42.144 -15.875   3.704  1.00  0.00    -0.351 OA
BRANCH  15  16
HETATM   16  C   UNL     1      43.204 -16.272   2.838  1.00  0.00     0.175 C 
BRANCH  16  17
HETATM   17  C   UNL     1      42.943 -17.597   2.115  1.00  0.00     0.026 C 
BRANCH  17  18
HETATM   18  C   UNL     1      43.678 -18.802   2.707  1.00  0.00    -0.002 C 
HETATM   19  C   UNL     1      43.211 -20.139   2.149  1.00  0.00     0.005 C 
ENDBRANCH  17  18
ENDBRANCH  16  17
ENDBRANCH  15  16
ENDBRANCH  11  15
ENDBRANCH   6   9
ENDBRANCH   3   5
ENDBRANCH   1   3
BRANCH   1  20
HETATM   20  C   UNL     1      41.807 -10.609   4.868  1.00  0.00     0.036 A 
HETATM   21  C   UNL     1      40.494 -10.992   4.588  1.00  0.00     0.067 A 
HETATM   22  C   UNL     1      40.165 -11.566   3.346  1.00  0.00     0.082 A 
HETATM   23  C   UNL     1      41.132 -11.751   2.346  1.00  0.00     0.050 A 
HETATM   24  C   UNL     1      42.451 -11.378   2.651  1.00  0.00     0.021 A 
HETATM   25  C   UNL     1      42.784 -10.818   3.890  1.00  0.00     0.030 A 
BRANCH  22  26
HETATM   26  O   UNL     1      38.860 -11.917   3.122  1.00  0.00    -0.360 OA
HETATM   27  H   UNL     1      38.275 -11.160   3.278  1.00  0.00     0.217 HD
ENDBRANCH  22  26
BRANCH  23  28
HETATM   28  C   UNL     1      40.858 -12.232   0.987  1.00  0.00     0.183 A 
HETATM   29  O   UNL     1      40.251 -13.455   0.844  1.00  0.00    -0.289 OA
HETATM   30  C   UNL     1      40.046 -13.573  -0.498  1.00  0.00     0.106 A 
HETATM   31  C   UNL     1      40.546 -12.435  -1.105  1.00  0.00     0.093 A 
HETATM   32  C   UNL     1      39.433 -14.625  -1.168  1.00  0.00     0.040 A 
HETATM   33  N   UNL     1      41.077 -11.599  -0.156  1.00  0.00    -0.221 NA
HETATM   34  C   UNL     1      40.436 -12.303  -2.495  1.00  0.00     0.034 A 
HETATM   35  C   UNL     1      39.814 -13.339  -3.210  1.00  0.00     0.002 A 
HETATM   36  C   UNL     1      39.324 -14.477  -2.556  1.00  0.00     0.003 A 
ENDBRANCH  23  28
ENDBRANCH   1  20
TORSDOF 10
ENDMDL
MODEL 8
REMARK VINA RESULT:      -7.7      2.955      9.494
REMARK  10 active torsions:
REMARK  status: ('A' for Active; 'I' for Inactive)
REMARK    1  A    between atoms: C_2  and  C_3 
REMARK    2  A    between atoms: C_3  and  C_4 
REMARK    3  A    between atoms: C_4  and  O_5 
REMARK    4  A    between atoms: O_5  and  C_6 
REMARK    5  A    between atoms: C_8  and  C_9 
REMARK       I    between atoms: C_9  and  N_10 
REMARK    6  A    between atoms: N_10  and  C_11 
REMARK    7  A    between atoms: C_11  and  N_12 
REMARK    8  A    between atoms: N_12  and  C_13 
REMARK    9  A    between atoms: C_15  and  O_16 
REMARK   10  A    between atoms: C_17  and  C_18 
ROOT
HETATM    1  N   UNL     1      43.648 -11.100   6.663  1.00  0.00    -0.333 N 
HETATM    2  H   UNL     1      44.560 -10.689   6.471  1.00  0.00     0.168 HD
ENDROOT
BRANCH   1   3
HETATM    3  C   UNL     1      42.770 -10.173   7.157  1.00  0.00     0.179 C 
HETATM    4  S   UNL     1      41.435  -9.821   6.210  1.00  0.00    -0.040 SA
BRANCH   3   5
HETATM    5  N   UNL     1      43.104  -9.558   8.337  1.00  0.00    -0.299 N 
HETATM    6  C   UNL     1      43.402 -10.197   9.535  1.00  0.00     0.257 C 
HETATM    7  O   UNL     1      44.153 -11.162   9.627  1.00  0.00    -0.267 OA
HETATM    8  H   UNL     1      42.759  -8.610   8.395  1.00  0.00     0.171 HD
BRANCH   6   9
HETATM    9  C   UNL     1      42.943  -9.512  10.770  1.00  0.00     0.035 A 
HETATM   10  C   UNL     1      41.609  -9.571  11.186  1.00  0.00     0.053 A 
HETATM   11  C   UNL     1      41.209  -8.931  12.364  1.00  0.00     0.069 A 
HETATM   12  C   UNL     1      42.152  -8.237  13.124  1.00  0.00     0.037 A 
HETATM   13  C   UNL     1      43.489  -8.196  12.722  1.00  0.00     0.004 A 
HETATM   14  C   UNL     1      43.887  -8.837  11.550  1.00  0.00     0.017 A 
BRANCH  11  15
HETATM   15  O   UNL     1      39.887  -9.093  12.668  1.00  0.00    -0.351 OA
BRANCH  15  16
HETATM   16  C   UNL     1      39.078  -7.938  12.875  1.00  0.00     0.175 C 
BRANCH  16  17
HETATM   17  C   UNL     1      39.093  -6.959  11.699  1.00  0.00     0.026 C 
BRANCH  17  18
HETATM   18  C   UNL     1      38.460  -7.496  10.413  1.00  0.00    -0.002 C 
HETATM   19  C   UNL     1      39.435  -7.609   9.250  1.00  0.00     0.005 C 
ENDBRANCH  17  18
ENDBRANCH  16  17
ENDBRANCH  15  16
ENDBRANCH  11  15
ENDBRANCH   6   9
ENDBRANCH   3   5
ENDBRANCH   1   3
BRANCH   1  20
HETATM   20  C   UNL     1      43.461 -12.397   6.136  1.00  0.00     0.036 A 
HETATM   21  C   UNL     1      43.152 -12.687   4.805  1.00  0.00     0.067 A 
HETATM   22  C   UNL     1      43.093 -14.019   4.357  1.00  0.00     0.082 A 
HETATM   23  C   UNL     1      43.362 -15.094   5.219  1.00  0.00     0.050 A 
HETATM   24  C   UNL     1      43.652 -14.786   6.558  1.00  0.00     0.021 A 
HETATM   25  C   UNL     1      43.699 -13.462   7.010  1.00  0.00     0.030 A 
BRANCH  22  26
HETATM   26  O   UNL     1      42.793 -14.245   3.040  1.00  0.00    -0.360 OA
HETATM   27  H   UNL     1      41.833 -14.305   2.918  1.00  0.00     0.217 HD
ENDBRANCH  22  26
BRANCH  23  28
HETATM   28  C   UNL     1      43.437 -16.502   4.812  1.00  0.00     0.183 A 
HETATM   29  O   UNL     1      43.097 -16.821   3.521  1.00  0.00    -0.289 OA
HETATM   30  C   UNL     1      43.359 -18.154   3.425  1.00  0.00     0.106 A 
HETATM   31  C   UNL     1      43.826 -18.584   4.654  1.00  0.00     0.093 A 
HETATM   32  C   UNL     1      43.210 -18.965   2.306  1.00  0.00     0.040 A 
HETATM   33  N   UNL     1      43.854 -17.532   5.533  1.00  0.00    -0.221 NA
HETATM   34  C   UNL     1      44.190 -19.929   4.809  1.00  0.00     0.034 A 
HETATM   35  C   UNL     1      44.064 -20.779   3.700  1.00  0.00     0.002 A 
HETATM   36  C   UNL     1      43.583 -20.304   2.473  1.00  0.00     0.003 A 
ENDBRANCH  23  28
ENDBRANCH   1  20
TORSDOF 10
ENDMDL
MODEL 9
REMARK VINA RESULT:      -7.7      3.062      8.782
REMARK  10 active torsions:
REMARK  status: ('A' for Active; 'I' for Inactive)
REMARK    1  A    between atoms: C_2  and  C_3 
REMARK    2  A    between atoms: C_3  and  C_4 
REMARK    3  A    between atoms: C_4  and  O_5 
REMARK    4  A    between atoms: O_5  and  C_6 
REMARK    5  A    between atoms: C_8  and  C_9 
REMARK       I    between atoms: C_9  and  N_10 
REMARK    6  A    between atoms: N_10  and  C_11 
REMARK    7  A    between atoms: C_11  and  N_12 
REMARK    8  A    between atoms: N_12  and  C_13 
REMARK    9  A    between atoms: C_15  and  O_16 
REMARK   10  A    between atoms: C_17  and  C_18 
ROOT
HETATM    1  N   UNL     1      40.323 -10.313   5.987  1.00  0.00    -0.333 N 
HETATM    2  H   UNL     1      39.710 -10.010   5.233  1.00  0.00     0.168 HD
ENDROOT
BRANCH   1   3
HETATM    3  C   UNL     1      40.343  -9.409   7.015  1.00  0.00     0.179 C 
HETATM    4  S   UNL     1      40.455  -7.792   6.593  1.00  0.00    -0.040 SA
BRANCH   3   5
HETATM    5  N   UNL     1      40.354  -9.910   8.292  1.00  0.00    -0.299 N 
HETATM    6  C   UNL     1      39.650  -9.398   9.376  1.00  0.00     0.257 C 
HETATM    7  O   UNL     1      38.470  -9.069   9.331  1.00  0.00    -0.267 OA
HETATM    8  H   UNL     1      41.187 -10.443   8.496  1.00  0.00     0.171 HD
BRANCH   6   9
HETATM    9  C   UNL     1      40.334  -9.474  10.691  1.00  0.00     0.035 A 
HETATM   10  C   UNL     1      41.729  -9.489  10.790  1.00  0.00     0.053 A 
HETATM   11  C   UNL     1      42.346  -9.544  12.045  1.00  0.00     0.069 A 
HETATM   12  C   UNL     1      41.559  -9.577  13.197  1.00  0.00     0.037 A 
HETATM   13  C   UNL     1      40.166  -9.538  13.101  1.00  0.00     0.004 A 
HETATM   14  C   UNL     1      39.553  -9.481  11.851  1.00  0.00     0.017 A 
BRANCH  11  15
HETATM   15  O   UNL     1      43.711  -9.524  11.999  1.00  0.00    -0.351 OA
BRANCH  15  16
HETATM   16  C   UNL     1      44.358  -9.097  10.803  1.00  0.00     0.175 C 
BRANCH  16  17
HETATM   17  C   UNL     1      45.357 -10.116  10.249  1.00  0.00     0.026 C 
BRANCH  17  18
HETATM   18  C   UNL     1      45.338 -10.265   8.725  1.00  0.00    -0.002 C 
HETATM   19  C   UNL     1      44.101 -10.974   8.194  1.00  0.00     0.005 C 
ENDBRANCH  17  18
ENDBRANCH  16  17
ENDBRANCH  15  16
ENDBRANCH  11  15
ENDBRANCH   6   9
ENDBRANCH   3   5
ENDBRANCH   1   3
BRANCH   1  20
HETATM   20  C   UNL     1      40.759 -11.654   5.894  1.00  0.00     0.036 A 
HETATM   21  C   UNL     1      40.010 -12.769   6.272  1.00  0.00     0.067 A 
HETATM   22  C   UNL     1      40.494 -14.070   6.037  1.00  0.00     0.082 A 
HETATM   23  C   UNL     1      41.726 -14.289   5.401  1.00  0.00     0.050 A 
HETATM   24  C   UNL     1      42.476 -13.156   5.045  1.00  0.00     0.021 A 
HETATM   25  C   UNL     1      42.002 -11.861   5.289  1.00  0.00     0.030 A 
BRANCH  22  26
HETATM   26  O   UNL     1      39.715 -15.129   6.421  1.00  0.00    -0.360 OA
HETATM   27  H   UNL     1      39.725 -15.224   7.386  1.00  0.00     0.217 HD
ENDBRANCH  22  26
BRANCH  23  28
HETATM   28  C   UNL     1      42.252 -15.603   5.014  1.00  0.00     0.183 A 
HETATM   29  O   UNL     1      42.263 -15.928   3.680  1.00  0.00    -0.289 OA
HETATM   30  C   UNL     1      42.886 -17.138   3.634  1.00  0.00     0.106 A 
HETATM   31  C   UNL     1      43.209 -17.498   4.930  1.00  0.00     0.093 A 
HETATM   32  C   UNL     1      43.177 -17.895   2.506  1.00  0.00     0.040 A 
HETATM   33  N   UNL     1      42.785 -16.526   5.801  1.00  0.00    -0.221 NA
HETATM   34  C   UNL     1      43.883 -18.706   5.152  1.00  0.00     0.034 A 
HETATM   35  C   UNL     1      44.205 -19.497   4.038  1.00  0.00     0.002 A 
HETATM   36  C   UNL     1      43.856 -19.097   2.741  1.00  0.00     0.003 A 
ENDBRANCH  23  28
ENDBRANCH   1  20
TORSDOF 10
ENDMDL
MODEL 10
REMARK VINA RESULT:      -7.7      2.440      7.720
REMARK  10 active torsions:
REMARK  status: ('A' for Active; 'I' for Inactive)
REMARK    1  A    between atoms: C_2  and  C_3 
REMARK    2  A    between atoms: C_3  and  C_4 
REMARK    3  A    between atoms: C_4  and  O_5 
REMARK    4  A    between atoms: O_5  and  C_6 
REMARK    5  A    between atoms: C_8  and  C_9 
REMARK       I    between atoms: C_9  and  N_10 
REMARK    6  A    between atoms: N_10  and  C_11 
REMARK    7  A    between atoms: C_11  and  N_12 
REMARK    8  A    between atoms: N_12  and  C_13 
REMARK    9  A    between atoms: C_15  and  O_16 
REMARK   10  A    between atoms: C_17  and  C_18 
ROOT
HETATM    1  N   UNL     1      38.748 -10.964   5.624  1.00  0.00    -0.333 N 
HETATM    2  H   UNL     1      37.891 -11.112   6.152  1.00  0.00     0.168 HD
ENDROOT
BRANCH   1   3
HETATM    3  C   UNL     1      39.221  -9.688   5.777  1.00  0.00     0.179 C 
HETATM    4  S   UNL     1      38.217  -8.447   5.271  1.00  0.00    -0.040 SA
BRANCH   3   5
HETATM    5  N   UNL     1      40.501  -9.545   6.251  1.00  0.00    -0.299 N 
HETATM    6  C   UNL     1      41.666  -9.666   5.504  1.00  0.00     0.257 C 
HETATM    7  O   UNL     1      41.832  -9.146   4.406  1.00  0.00    -0.267 OA
HETATM    8  H   UNL     1      40.571  -9.718   7.244  1.00  0.00     0.171 HD
BRANCH   6   9
HETATM    9  C   UNL     1      42.825 -10.280   6.199  1.00  0.00     0.035 A 
HETATM   10  C   UNL     1      43.089 -10.021   7.549  1.00  0.00     0.053 A 
HETATM   11  C   UNL     1      44.179 -10.628   8.182  1.00  0.00     0.069 A 
HETATM   12  C   UNL     1      44.999 -11.496   7.460  1.00  0.00     0.037 A 
HETATM   13  C   UNL     1      44.724 -11.772   6.118  1.00  0.00     0.004 A 
HETATM   14  C   UNL     1      43.636 -11.170   5.489  1.00  0.00     0.017 A 
BRANCH  11  15
HETATM   15  O   UNL     1      44.304 -10.313   9.505  1.00  0.00    -0.351 OA
BRANCH  15  16
HETATM   16  C   UNL     1      43.397  -9.378  10.084  1.00  0.00     0.175 C 
BRANCH  16  17
HETATM   17  C   UNL     1      43.884  -8.791  11.412  1.00  0.00     0.026 C 
BRANCH  17  18
HETATM   18  C   UNL     1      42.801  -8.656  12.486  1.00  0.00    -0.002 C 
HETATM   19  C   UNL     1      43.138  -7.644  13.572  1.00  0.00     0.005 C 
ENDBRANCH  17  18
ENDBRANCH  16  17
ENDBRANCH  15  16
ENDBRANCH  11  15
ENDBRANCH   6   9
ENDBRANCH   3   5
ENDBRANCH   1   3
BRANCH   1  20
HETATM   20  C   UNL     1      39.341 -12.140   5.114  1.00  0.00     0.036 A 
HETATM   21  C   UNL     1      39.423 -12.478   3.762  1.00  0.00     0.067 A 
HETATM   22  C   UNL     1      40.131 -13.621   3.351  1.00  0.00     0.082 A 
HETATM   23  C   UNL     1      40.794 -14.444   4.275  1.00  0.00     0.050 A 
HETATM   24  C   UNL     1      40.686 -14.101   5.633  1.00  0.00     0.021 A 
HETATM   25  C   UNL     1      39.971 -12.971   6.046  1.00  0.00     0.030 A 
BRANCH  22  26
HETATM   26  O   UNL     1      40.186 -13.901   2.011  1.00  0.00    -0.360 OA
HETATM   27  H   UNL     1      40.028 -14.846   1.856  1.00  0.00     0.217 HD
ENDBRANCH  22  26
BRANCH  23  28
HETATM   28  C   UNL     1      41.649 -15.584   3.927  1.00  0.00     0.183 A 
HETATM   29  O   UNL     1      42.555 -16.023   4.861  1.00  0.00    -0.289 OA
HETATM   30  C   UNL     1      43.114 -17.128   4.293  1.00  0.00     0.106 A 
HETATM   31  C   UNL     1      42.541 -17.300   3.046  1.00  0.00     0.093 A 
HETATM   32  C   UNL     1      44.077 -17.964   4.845  1.00  0.00     0.040 A 
HETATM   33  N   UNL     1      41.626 -16.304   2.815  1.00  0.00    -0.221 NA
HETATM   34  C   UNL     1      42.936 -18.392   2.262  1.00  0.00     0.034 A 
HETATM   35  C   UNL     1      43.900 -19.267   2.787  1.00  0.00     0.002 A 
HETATM   36  C   UNL     1      44.459 -19.054   4.054  1.00  0.00     0.003 A 
ENDBRANCH  23  28
ENDBRANCH   1  20
TORSDOF 10
ENDMDL
