MODEL 1
REMARK VINA RESULT:      -8.0      0.000      0.000
REMARK  5 active torsions:
REMARK  status: ('A' for Active; 'I' for Inactive)
REMARK    1  A    between atoms: C_8  and  N_9 
REMARK    2  A    between atoms: N_9  and  C_10 
REMARK    3  A    between atoms: C_10  and  C_11 
REMARK    4  A    between atoms: C_11  and  N_12 
REMARK       I    between atoms: N_12  and  C_13 
REMARK    5  A    between atoms: C_13  and  C_14 
ROOT
HETATM    1  C   UNL     1      43.763 -20.249   1.912  1.00  0.00     0.048 C 
HETATM    2  C   UNL     1      43.700 -19.091   2.869  1.00  0.00    -0.061 A 
HETATM    3  C   UNL     1      43.234 -17.839   2.445  1.00  0.00     0.020 A 
HETATM    4  C   UNL     1      43.152 -16.762   3.344  1.00  0.00    -0.008 A 
HETATM    5  C   UNL     1      43.535 -16.959   4.683  1.00  0.00     0.043 A 
HETATM    6  N   UNL     1      43.465 -15.929   5.542  1.00  0.00    -0.346 N 
HETATM    7  H   UNL     1      43.738 -16.111   6.501  1.00  0.00     0.167 HD
HETATM    8  C   UNL     1      43.066 -14.686   5.217  1.00  0.00     0.086 A 
HETATM    9  C   UNL     1      42.627 -14.455   3.899  1.00  0.00    -0.023 A 
HETATM   10  C   UNL     1      42.128 -13.109   3.449  1.00  0.00     0.052 C 
HETATM   11  C   UNL     1      42.697 -15.496   2.963  1.00  0.00     0.023 A 
HETATM   12  C   UNL     1      43.985 -18.213   5.113  1.00  0.00     0.031 A 
HETATM   13  C   UNL     1      44.063 -19.273   4.208  1.00  0.00     0.009 A 
ENDROOT
BRANCH   8  14
HETATM   14  N   UNL     1      43.004 -13.676   6.183  1.00  0.00    -0.277 NA
HETATM   15  H   UNL     1      42.254 -13.015   5.975  1.00  0.00     0.129 HD
BRANCH  14  16
HETATM   16  C   UNL     1      44.244 -13.010   6.581  1.00  0.00     0.113 C 
BRANCH  16  17
HETATM   17  C   UNL     1      44.299 -11.535   6.163  1.00  0.00     0.137 C 
BRANCH  17  18
HETATM   18  N   UNL     1      44.510 -10.573   7.241  1.00  0.00    -0.360 N 
HETATM   19  C   UNL     1      45.722 -10.285   7.839  1.00  0.00     0.221 C 
HETATM   20  O   UNL     1      46.790 -10.752   7.449  1.00  0.00    -0.273 OA
HETATM   21  H   UNL     1      43.678 -10.159   7.646  1.00  0.00     0.162 HD
BRANCH  19  22
HETATM   22  C   UNL     1      45.614  -9.325   9.024  1.00  0.00     0.070 C 
HETATM   23  C   UNL     1      44.626  -8.202   8.713  1.00  0.00     0.019 C 
HETATM   24  C   UNL     1      45.188 -10.069  10.290  1.00  0.00     0.019 C 
ENDBRANCH  19  22
ENDBRANCH  17  18
ENDBRANCH  16  17
ENDBRANCH  14  16
ENDBRANCH   8  14
TORSDOF 5
ENDMDL
MODEL 2
REMARK VINA RESULT:      -7.9      4.920      7.850
REMARK  5 active torsions:
REMARK  status: ('A' for Active; 'I' for Inactive)
REMARK    1  A    between atoms: C_8  and  N_9 
REMARK    2  A    between atoms: N_9  and  C_10 
REMARK    3  A    between atoms: C_10  and  C_11 
REMARK    4  A    between atoms: C_11  and  N_12 
REMARK       I    between atoms: N_12  and  C_13 
REMARK    5  A    between atoms: C_13  and  C_14 
ROOT
HETATM    1  C   UNL     1      44.366 -20.989   5.289  1.00  0.00     0.048 C 
HETATM    2  C   UNL     1      43.962 -19.883   4.355  1.00  0.00    -0.061 A 
HETATM    3  C   UNL     1      43.868 -18.561   4.811  1.00  0.00     0.020 A 
HETATM    4  C   UNL     1      43.514 -17.522   3.933  1.00  0.00    -0.008 A 
HETATM    5  C   UNL     1      43.264 -17.825   2.582  1.00  0.00     0.043 A 
HETATM    6  N   UNL     1      42.917 -16.835   1.743  1.00  0.00    -0.346 N 
HETATM    7  H   UNL     1      42.756 -17.088   0.775  1.00  0.00     0.167 HD
HETATM    8  C   UNL     1      42.768 -15.547   2.098  1.00  0.00     0.086 A 
HETATM    9  C   UNL     1      43.055 -15.190   3.430  1.00  0.00    -0.023 A 
HETATM   10  C   UNL     1      42.953 -13.769   3.916  1.00  0.00     0.052 C 
HETATM   11  C   UNL     1      43.405 -16.191   4.346  1.00  0.00     0.023 A 
HETATM   12  C   UNL     1      43.373 -19.142   2.121  1.00  0.00     0.031 A 
HETATM   13  C   UNL     1      43.724 -20.163   3.005  1.00  0.00     0.009 A 
ENDROOT
BRANCH   8  14
HETATM   14  N   UNL     1      42.423 -14.575   1.152  1.00  0.00    -0.277 NA
HETATM   15  H   UNL     1      42.859 -13.678   1.372  1.00  0.00     0.129 HD
BRANCH  14  16
HETATM   16  C   UNL     1      41.018 -14.438   0.769  1.00  0.00     0.113 C 
BRANCH  16  17
HETATM   17  C   UNL     1      40.757 -13.234  -0.146  1.00  0.00     0.137 C 
BRANCH  17  18
HETATM   18  N   UNL     1      39.677 -13.392  -1.116  1.00  0.00    -0.360 N 
HETATM   19  C   UNL     1      39.830 -13.483  -2.486  1.00  0.00     0.221 C 
HETATM   20  O   UNL     1      40.928 -13.539  -3.035  1.00  0.00    -0.273 OA
HETATM   21  H   UNL     1      38.731 -13.329  -0.755  1.00  0.00     0.162 HD
BRANCH  19  22
HETATM   22  C   UNL     1      38.510 -13.519  -3.256  1.00  0.00     0.070 C 
HETATM   23  C   UNL     1      38.148 -14.955  -3.627  1.00  0.00     0.019 C 
HETATM   24  C   UNL     1      37.386 -12.884  -2.437  1.00  0.00     0.019 C 
ENDBRANCH  19  22
ENDBRANCH  17  18
ENDBRANCH  16  17
ENDBRANCH  14  16
ENDBRANCH   8  14
TORSDOF 5
ENDMDL
MODEL 3
REMARK VINA RESULT:      -7.7      1.681      2.210
REMARK  5 active torsions:
REMARK  status: ('A' for Active; 'I' for Inactive)
REMARK    1  A    between atoms: C_8  and  N_9 
REMARK    2  A    between atoms: N_9  and  C_10 
REMARK    3  A    between atoms: C_10  and  C_11 
REMARK    4  A    between atoms: C_11  and  N_12 
REMARK       I    between atoms: N_12  and  C_13 
REMARK    5  A    between atoms: C_13  and  C_14 
ROOT
HETATM    1  C   UNL     1      43.945 -20.360   2.260  1.00  0.00     0.048 C 
HETATM    2  C   UNL     1      43.612 -19.008   2.826  1.00  0.00    -0.061 A 
HETATM    3  C   UNL     1      42.592 -18.229   2.262  1.00  0.00     0.020 A 
HETATM    4  C   UNL     1      42.264 -16.975   2.805  1.00  0.00    -0.008 A 
HETATM    5  C   UNL     1      42.966 -16.513   3.933  1.00  0.00     0.043 A 
HETATM    6  N   UNL     1      42.659 -15.312   4.449  1.00  0.00    -0.346 N 
HETATM    7  H   UNL     1      43.177 -15.018   5.268  1.00  0.00     0.167 HD
HETATM    8  C   UNL     1      41.723 -14.482   3.954  1.00  0.00     0.086 A 
HETATM    9  C   UNL     1      40.963 -14.923   2.854  1.00  0.00    -0.023 A 
HETATM   10  C   UNL     1      39.869 -14.083   2.251  1.00  0.00     0.052 C 
HETATM   11  C   UNL     1      41.258 -16.164   2.272  1.00  0.00     0.023 A 
HETATM   12  C   UNL     1      43.973 -17.297   4.508  1.00  0.00     0.031 A 
HETATM   13  C   UNL     1      44.290 -18.540   3.957  1.00  0.00     0.009 A 
ENDROOT
BRANCH   8  14
HETATM   14  N   UNL     1      41.455 -13.254   4.568  1.00  0.00    -0.277 NA
HETATM   15  H   UNL     1      40.465 -13.174   4.809  1.00  0.00     0.129 HD
BRANCH  14  16
HETATM   16  C   UNL     1      41.985 -12.035   3.959  1.00  0.00     0.113 C 
BRANCH  16  17
HETATM   17  C   UNL     1      43.516 -11.949   4.014  1.00  0.00     0.137 C 
BRANCH  17  18
HETATM   18  N   UNL     1      44.084 -11.458   5.267  1.00  0.00    -0.360 N 
HETATM   19  C   UNL     1      44.245 -12.197   6.423  1.00  0.00     0.221 C 
HETATM   20  O   UNL     1      44.009 -13.402   6.487  1.00  0.00    -0.273 OA
HETATM   21  H   UNL     1      44.281 -10.465   5.315  1.00  0.00     0.162 HD
BRANCH  19  22
HETATM   22  C   UNL     1      44.752 -11.382   7.612  1.00  0.00     0.070 C 
HETATM   23  C   UNL     1      46.148 -10.831   7.325  1.00  0.00     0.019 C 
HETATM   24  C   UNL     1      43.790 -10.241   7.941  1.00  0.00     0.019 C 
ENDBRANCH  19  22
ENDBRANCH  17  18
ENDBRANCH  16  17
ENDBRANCH  14  16
ENDBRANCH   8  14
TORSDOF 5
ENDMDL
MODEL 4
REMARK VINA RESULT:      -7.7      2.887      3.721
REMARK  5 active torsions:
REMARK  status: ('A' for Active; 'I' for Inactive)
REMARK    1  A    between atoms: C_8  and  N_9 
REMARK    2  A    between atoms: N_9  and  C_10 
REMARK    3  A    between atoms: C_10  and  C_11 
REMARK    4  A    between atoms: C_11  and  N_12 
REMARK       I    between atoms: N_12  and  C_13 
REMARK    5  A    between atoms: C_13  and  C_14 
ROOT
HETATM    1  C   UNL     1      43.593 -20.438   2.544  1.00  0.00     0.048 C 
HETATM    2  C   UNL     1      43.521 -18.971   2.861  1.00  0.00    -0.061 A 
HETATM    3  C   UNL     1      42.864 -18.084   1.997  1.00  0.00     0.020 A 
HETATM    4  C   UNL     1      42.776 -16.716   2.304  1.00  0.00    -0.008 A 
HETATM    5  C   UNL     1      43.348 -16.245   3.499  1.00  0.00     0.043 A 
HETATM    6  N   UNL     1      43.272 -14.936   3.790  1.00  0.00    -0.346 N 
HETATM    7  H   UNL     1      43.685 -14.635   4.665  1.00  0.00     0.167 HD
HETATM    8  C   UNL     1      42.694 -14.009   3.006  1.00  0.00     0.086 A 
HETATM    9  C   UNL     1      42.066 -14.442   1.822  1.00  0.00    -0.023 A 
HETATM   10  C   UNL     1      41.361 -13.487   0.897  1.00  0.00     0.052 C 
HETATM   11  C   UNL     1      42.133 -15.797   1.469  1.00  0.00     0.023 A 
HETATM   12  C   UNL     1      43.991 -17.131   4.372  1.00  0.00     0.031 A 
HETATM   13  C   UNL     1      44.073 -18.487   4.053  1.00  0.00     0.009 A 
ENDROOT
BRANCH   8  14
HETATM   14  N   UNL     1      42.642 -12.667   3.398  1.00  0.00    -0.277 NA
HETATM   15  H   UNL     1      43.562 -12.337   3.698  1.00  0.00     0.129 HD
BRANCH  14  16
HETATM   16  C   UNL     1      41.571 -12.241   4.298  1.00  0.00     0.113 C 
BRANCH  16  17
HETATM   17  C   UNL     1      42.016 -12.142   5.763  1.00  0.00     0.137 C 
BRANCH  17  18
HETATM   18  N   UNL     1      41.916 -13.372   6.545  1.00  0.00    -0.360 N 
HETATM   19  C   UNL     1      42.966 -14.205   6.875  1.00  0.00     0.221 C 
HETATM   20  O   UNL     1      44.139 -13.940   6.620  1.00  0.00    -0.273 OA
HETATM   21  H   UNL     1      40.979 -13.685   6.776  1.00  0.00     0.162 HD
BRANCH  19  22
HETATM   22  C   UNL     1      42.539 -15.483   7.597  1.00  0.00     0.070 C 
HETATM   23  C   UNL     1      41.415 -16.178   6.831  1.00  0.00     0.019 C 
HETATM   24  C   UNL     1      43.725 -16.432   7.773  1.00  0.00     0.019 C 
ENDBRANCH  19  22
ENDBRANCH  17  18
ENDBRANCH  16  17
ENDBRANCH  14  16
ENDBRANCH   8  14
TORSDOF 5
ENDMDL
MODEL 5
REMARK VINA RESULT:      -7.5      3.358      5.717
REMARK  5 active torsions:
REMARK  status: ('A' for Active; 'I' for Inactive)
REMARK    1  A    between atoms: C_8  and  N_9 
REMARK    2  A    between atoms: N_9  and  C_10 
REMARK    3  A    between atoms: C_10  and  C_11 
REMARK    4  A    between atoms: C_11  and  N_12 
REMARK       I    between atoms: N_12  and  C_13 
REMARK    5  A    between atoms: C_13  and  C_14 
ROOT
HETATM    1  C   UNL     1      43.927 -20.572   3.270  1.00  0.00     0.048 C 
HETATM    2  C   UNL     1      43.612 -19.103   3.292  1.00  0.00    -0.061 A 
HETATM    3  C   UNL     1      43.791 -18.351   4.462  1.00  0.00     0.020 A 
HETATM    4  C   UNL     1      43.519 -16.973   4.479  1.00  0.00    -0.008 A 
HETATM    5  C   UNL     1      43.074 -16.350   3.299  1.00  0.00     0.043 A 
HETATM    6  N   UNL     1      42.806 -15.034   3.314  1.00  0.00    -0.346 N 
HETATM    7  H   UNL     1      42.498 -14.618   2.443  1.00  0.00     0.167 HD
HETATM    8  C   UNL     1      42.913 -14.243   4.397  1.00  0.00     0.086 A 
HETATM    9  C   UNL     1      43.402 -14.814   5.588  1.00  0.00    -0.023 A 
HETATM   10  C   UNL     1      43.592 -14.004   6.842  1.00  0.00     0.052 C 
HETATM   11  C   UNL     1      43.680 -16.188   5.624  1.00  0.00     0.023 A 
HETATM   12  C   UNL     1      42.910 -17.095   2.125  1.00  0.00     0.031 A 
HETATM   13  C   UNL     1      43.182 -18.464   2.124  1.00  0.00     0.009 A 
ENDROOT
BRANCH   8  14
HETATM   14  N   UNL     1      42.632 -12.875   4.317  1.00  0.00    -0.277 NA
HETATM   15  H   UNL     1      41.627 -12.703   4.382  1.00  0.00     0.129 HD
BRANCH  14  16
HETATM   16  C   UNL     1      43.270 -12.089   3.261  1.00  0.00     0.113 C 
BRANCH  16  17
HETATM   17  C   UNL     1      42.270 -11.286   2.419  1.00  0.00     0.137 C 
BRANCH  17  18
HETATM   18  N   UNL     1      41.505 -12.050   1.436  1.00  0.00    -0.360 N 
HETATM   19  C   UNL     1      40.399 -12.833   1.707  1.00  0.00     0.221 C 
HETATM   20  O   UNL     1      39.875 -12.891   2.817  1.00  0.00    -0.273 OA
HETATM   21  H   UNL     1      41.883 -12.083   0.496  1.00  0.00     0.162 HD
BRANCH  19  22
HETATM   22  C   UNL     1      39.882 -13.612   0.498  1.00  0.00     0.070 C 
HETATM   23  C   UNL     1      40.475 -13.051  -0.792  1.00  0.00     0.019 C 
HETATM   24  C   UNL     1      40.209 -15.099   0.628  1.00  0.00     0.019 C 
ENDBRANCH  19  22
ENDBRANCH  17  18
ENDBRANCH  16  17
ENDBRANCH  14  16
ENDBRANCH   8  14
TORSDOF 5
ENDMDL
MODEL 6
REMARK VINA RESULT:      -7.3      4.855      7.329
REMARK  5 active torsions:
REMARK  status: ('A' for Active; 'I' for Inactive)
REMARK    1  A    between atoms: C_8  and  N_9 
REMARK    2  A    between atoms: N_9  and  C_10 
REMARK    3  A    between atoms: C_10  and  C_11 
REMARK    4  A    between atoms: C_11  and  N_12 
REMARK       I    between atoms: N_12  and  C_13 
REMARK    5  A    between atoms: C_13  and  C_14 
ROOT
HETATM    1  C   UNL     1      44.704 -18.940   4.405  1.00  0.00     0.048 C 
HETATM    2  C   UNL     1      43.603 -18.020   3.956  1.00  0.00    -0.061 A 
HETATM    3  C   UNL     1      43.107 -17.028   4.814  1.00  0.00     0.020 A 
HETATM    4  C   UNL     1      42.094 -16.153   4.388  1.00  0.00    -0.008 A 
HETATM    5  C   UNL     1      41.587 -16.277   3.081  1.00  0.00     0.043 A 
HETATM    6  N   UNL     1      40.613 -15.446   2.675  1.00  0.00    -0.346 N 
HETATM    7  H   UNL     1      40.282 -15.557   1.724  1.00  0.00     0.167 HD
HETATM    8  C   UNL     1      40.053 -14.491   3.438  1.00  0.00     0.086 A 
HETATM    9  C   UNL     1      40.562 -14.299   4.738  1.00  0.00    -0.023 A 
HETATM   10  C   UNL     1      40.026 -13.232   5.655  1.00  0.00     0.052 C 
HETATM   11  C   UNL     1      41.568 -15.152   5.211  1.00  0.00     0.023 A 
HETATM   12  C   UNL     1      42.093 -17.256   2.218  1.00  0.00     0.031 A 
HETATM   13  C   UNL     1      43.097 -18.120   2.655  1.00  0.00     0.009 A 
ENDROOT
BRANCH   8  14
HETATM   14  N   UNL     1      39.055 -13.655   2.926  1.00  0.00    -0.277 NA
HETATM   15  H   UNL     1      38.438 -14.166   2.292  1.00  0.00     0.129 HD
BRANCH  14  16
HETATM   16  C   UNL     1      39.440 -12.346   2.399  1.00  0.00     0.113 C 
BRANCH  16  17
HETATM   17  C   UNL     1      40.342 -12.434   1.161  1.00  0.00     0.137 C 
BRANCH  17  18
HETATM   18  N   UNL     1      39.674 -12.774  -0.093  1.00  0.00    -0.360 N 
HETATM   19  C   UNL     1      39.524 -14.047  -0.607  1.00  0.00     0.221 C 
HETATM   20  O   UNL     1      39.862 -15.060   0.001  1.00  0.00    -0.273 OA
HETATM   21  H   UNL     1      39.388 -11.996  -0.677  1.00  0.00     0.162 HD
BRANCH  19  22
HETATM   22  C   UNL     1      38.891 -14.081  -1.998  1.00  0.00     0.070 C 
HETATM   23  C   UNL     1      37.718 -13.106  -2.074  1.00  0.00     0.019 C 
HETATM   24  C   UNL     1      39.924 -13.752  -3.075  1.00  0.00     0.019 C 
ENDBRANCH  19  22
ENDBRANCH  17  18
ENDBRANCH  16  17
ENDBRANCH  14  16
ENDBRANCH   8  14
TORSDOF 5
ENDMDL
MODEL 7
REMARK VINA RESULT:      -7.3     15.479     17.484
REMARK  5 active torsions:
REMARK  status: ('A' for Active; 'I' for Inactive)
REMARK    1  A    between atoms: C_8  and  N_9 
REMARK    2  A    between atoms: N_9  and  C_10 
REMARK    3  A    between atoms: C_10  and  C_11 
REMARK    4  A    between atoms: C_11  and  N_12 
REMARK       I    between atoms: N_12  and  C_13 
REMARK    5  A    between atoms: C_13  and  C_14 
ROOT
HETATM    1  C   UNL     1      43.880 -30.155  -5.241  1.00  0.00     0.048 C 
HETATM    2  C   UNL     1      44.377 -29.625  -3.925  1.00  0.00    -0.061 A 
HETATM    3  C   UNL     1      44.105 -30.308  -2.731  1.00  0.00     0.020 A 
HETATM    4  C   UNL     1      44.588 -29.826  -1.503  1.00  0.00    -0.008 A 
HETATM    5  C   UNL     1      45.361 -28.651  -1.486  1.00  0.00     0.043 A 
HETATM    6  N   UNL     1      45.818 -28.185  -0.312  1.00  0.00    -0.346 N 
HETATM    7  H   UNL     1      46.381 -27.343  -0.340  1.00  0.00     0.167 HD
HETATM    8  C   UNL     1      45.577 -28.752   0.883  1.00  0.00     0.086 A 
HETATM    9  C   UNL     1      44.847 -29.956   0.910  1.00  0.00    -0.023 A 
HETATM   10  C   UNL     1      44.557 -30.686   2.194  1.00  0.00     0.052 C 
HETATM   11  C   UNL     1      44.337 -30.473  -0.289  1.00  0.00     0.023 A 
HETATM   12  C   UNL     1      45.649 -27.977  -2.679  1.00  0.00     0.031 A 
HETATM   13  C   UNL     1      45.160 -28.466  -3.891  1.00  0.00     0.009 A 
ENDROOT
BRANCH   8  14
HETATM   14  N   UNL     1      46.110 -28.208   2.057  1.00  0.00    -0.277 NA
HETATM   15  H   UNL     1      45.634 -27.340   2.308  1.00  0.00     0.129 HD
BRANCH  14  16
HETATM   16  C   UNL     1      47.564 -28.109   2.185  1.00  0.00     0.113 C 
BRANCH  16  17
HETATM   17  C   UNL     1      48.259 -29.475   2.252  1.00  0.00     0.137 C 
BRANCH  17  18
HETATM   18  N   UNL     1      49.385 -29.664   1.341  1.00  0.00    -0.360 N 
HETATM   19  C   UNL     1      49.309 -30.175   0.060  1.00  0.00     0.221 C 
HETATM   20  O   UNL     1      48.244 -30.440  -0.493  1.00  0.00    -0.273 OA
HETATM   21  H   UNL     1      50.309 -29.498   1.724  1.00  0.00     0.162 HD
BRANCH  19  22
HETATM   22  C   UNL     1      50.668 -30.372  -0.610  1.00  0.00     0.070 C 
HETATM   23  C   UNL     1      51.298 -31.690  -0.165  1.00  0.00     0.019 C 
HETATM   24  C   UNL     1      50.535 -30.336  -2.132  1.00  0.00     0.019 C 
ENDBRANCH  19  22
ENDBRANCH  17  18
ENDBRANCH  16  17
ENDBRANCH  14  16
ENDBRANCH   8  14
TORSDOF 5
ENDMDL
MODEL 8
REMARK VINA RESULT:      -7.1     16.032     17.557
REMARK  5 active torsions:
REMARK  status: ('A' for Active; 'I' for Inactive)
REMARK    1  A    between atoms: C_8  and  N_9 
REMARK    2  A    between atoms: N_9  and  C_10 
REMARK    3  A    between atoms: C_10  and  C_11 
REMARK    4  A    between atoms: C_11  and  N_12 
REMARK       I    between atoms: N_12  and  C_13 
REMARK    5  A    between atoms: C_13  and  C_14 
ROOT
HETATM    1  C   UNL     1      51.268 -30.974   5.310  1.00  0.00     0.048 C 
HETATM    2  C   UNL     1      50.518 -30.497   4.098  1.00  0.00    -0.061 A 
HETATM    3  C   UNL     1      51.017 -30.735   2.809  1.00  0.00     0.020 A 
HETATM    4  C   UNL     1      50.305 -30.310   1.675  1.00  0.00    -0.008 A 
HETATM    5  C   UNL     1      49.075 -29.650   1.847  1.00  0.00     0.043 A 
HETATM    6  N   UNL     1      48.397 -29.236   0.764  1.00  0.00    -0.346 N 
HETATM    7  H   UNL     1      47.509 -28.775   0.927  1.00  0.00     0.167 HD
HETATM    8  C   UNL     1      48.814 -29.388  -0.505  1.00  0.00     0.086 A 
HETATM    9  C   UNL     1      50.017 -30.086  -0.728  1.00  0.00    -0.023 A 
HETATM   10  C   UNL     1      50.548 -30.339  -2.113  1.00  0.00     0.052 C 
HETATM   11  C   UNL     1      50.767 -30.523   0.373  1.00  0.00     0.023 A 
HETATM   12  C   UNL     1      48.567 -29.426   3.132  1.00  0.00     0.031 A 
HETATM   13  C   UNL     1      49.286 -29.852   4.250  1.00  0.00     0.009 A 
ENDROOT
BRANCH   8  14
HETATM   14  N   UNL     1      48.032 -28.943  -1.577  1.00  0.00    -0.277 NA
HETATM   15  H   UNL     1      48.586 -28.879  -2.433  1.00  0.00     0.129 HD
BRANCH  14  16
HETATM   16  C   UNL     1      47.169 -27.779  -1.378  1.00  0.00     0.113 C 
BRANCH  16  17
HETATM   17  C   UNL     1      45.681 -28.087  -1.590  1.00  0.00     0.137 C 
BRANCH  17  18
HETATM   18  N   UNL     1      44.932 -28.468  -0.395  1.00  0.00    -0.360 N 
HETATM   19  C   UNL     1      44.932 -29.718   0.192  1.00  0.00     0.221 C 
HETATM   20  O   UNL     1      45.658 -30.636  -0.184  1.00  0.00    -0.273 OA
HETATM   21  H   UNL     1      44.282 -27.780  -0.031  1.00  0.00     0.162 HD
BRANCH  19  22
HETATM   22  C   UNL     1      43.955 -29.853   1.360  1.00  0.00     0.070 C 
HETATM   23  C   UNL     1      44.572 -29.292   2.640  1.00  0.00     0.019 C 
HETATM   24  C   UNL     1      42.637 -29.142   1.053  1.00  0.00     0.019 C 
ENDBRANCH  19  22
ENDBRANCH  17  18
ENDBRANCH  16  17
ENDBRANCH  14  16
ENDBRANCH   8  14
TORSDOF 5
ENDMDL
MODEL 9
REMARK VINA RESULT:      -6.8      2.525      9.089
REMARK  5 active torsions:
REMARK  status: ('A' for Active; 'I' for Inactive)
REMARK    1  A    between atoms: C_8  and  N_9 
REMARK    2  A    between atoms: N_9  and  C_10 
REMARK    3  A    between atoms: C_10  and  C_11 
REMARK    4  A    between atoms: C_11  and  N_12 
REMARK       I    between atoms: N_12  and  C_13 
REMARK    5  A    between atoms: C_13  and  C_14 
ROOT
HETATM    1  C   UNL     1      43.193  -7.871  13.319  1.00  0.00     0.048 C 
HETATM    2  C   UNL     1      43.098  -8.497  11.955  1.00  0.00    -0.061 A 
HETATM    3  C   UNL     1      44.256  -8.878  11.262  1.00  0.00     0.020 A 
HETATM    4  C   UNL     1      44.168  -9.484   9.998  1.00  0.00    -0.008 A 
HETATM    5  C   UNL     1      42.899  -9.715   9.437  1.00  0.00     0.043 A 
HETATM    6  N   UNL     1      42.813 -10.287   8.225  1.00  0.00    -0.346 N 
HETATM    7  H   UNL     1      41.882 -10.449   7.858  1.00  0.00     0.167 HD
HETATM    8  C   UNL     1      43.867 -10.652   7.473  1.00  0.00     0.086 A 
HETATM    9  C   UNL     1      45.156 -10.483   8.015  1.00  0.00    -0.023 A 
HETATM   10  C   UNL     1      46.396 -10.894   7.267  1.00  0.00     0.052 C 
HETATM   11  C   UNL     1      45.296  -9.876   9.271  1.00  0.00     0.023 A 
HETATM   12  C   UNL     1      41.741  -9.351  10.134  1.00  0.00     0.031 A 
HETATM   13  C   UNL     1      41.844  -8.747  11.389  1.00  0.00     0.009 A 
ENDROOT
BRANCH   8  14
HETATM   14  N   UNL     1      43.685 -11.262   6.227  1.00  0.00    -0.277 NA
HETATM   15  H   UNL     1      43.632 -10.565   5.482  1.00  0.00     0.129 HD
BRANCH  14  16
HETATM   16  C   UNL     1      42.662 -12.300   6.098  1.00  0.00     0.113 C 
BRANCH  16  17
HETATM   17  C   UNL     1      43.248 -13.710   5.957  1.00  0.00     0.137 C 
BRANCH  17  18
HETATM   18  N   UNL     1      42.888 -14.432   4.739  1.00  0.00    -0.360 N 
HETATM   19  C   UNL     1      43.289 -15.714   4.413  1.00  0.00     0.221 C 
HETATM   20  O   UNL     1      43.927 -16.432   5.179  1.00  0.00    -0.273 OA
HETATM   21  H   UNL     1      42.385 -13.906   4.034  1.00  0.00     0.162 HD
BRANCH  19  22
HETATM   22  C   UNL     1      42.856 -16.161   3.017  1.00  0.00     0.070 C 
HETATM   23  C   UNL     1      41.336 -16.287   2.943  1.00  0.00     0.019 C 
HETATM   24  C   UNL     1      43.358 -15.184   1.953  1.00  0.00     0.019 C 
ENDBRANCH  19  22
ENDBRANCH  17  18
ENDBRANCH  16  17
ENDBRANCH  14  16
ENDBRANCH   8  14
TORSDOF 5
ENDMDL
MODEL 10
REMARK VINA RESULT:      -6.8     15.921     17.645
REMARK  5 active torsions:
REMARK  status: ('A' for Active; 'I' for Inactive)
REMARK    1  A    between atoms: C_8  and  N_9 
REMARK    2  A    between atoms: N_9  and  C_10 
REMARK    3  A    between atoms: C_10  and  C_11 
REMARK    4  A    between atoms: C_11  and  N_12 
REMARK       I    between atoms: N_12  and  C_13 
REMARK    5  A    between atoms: C_13  and  C_14 
ROOT
HETATM    1  C   UNL     1      52.198 -31.120  -1.980  1.00  0.00     0.048 C 
HETATM    2  C   UNL     1      50.898 -30.638  -1.401  1.00  0.00    -0.061 A 
HETATM    3  C   UNL     1      50.701 -30.611  -0.013  1.00  0.00     0.020 A 
HETATM    4  C   UNL     1      49.494 -30.139   0.531  1.00  0.00    -0.008 A 
HETATM    5  C   UNL     1      48.486 -29.681  -0.337  1.00  0.00     0.043 A 
HETATM    6  N   UNL     1      47.329 -29.236   0.181  1.00  0.00    -0.346 N 
HETATM    7  H   UNL     1      46.631 -28.904  -0.473  1.00  0.00     0.167 HD
HETATM    8  C   UNL     1      47.038 -29.207   1.494  1.00  0.00     0.086 A 
HETATM    9  C   UNL     1      48.036 -29.611   2.402  1.00  0.00    -0.023 A 
HETATM   10  C   UNL     1      47.820 -29.580   3.891  1.00  0.00     0.052 C 
HETATM   11  C   UNL     1      49.254 -30.098   1.907  1.00  0.00     0.023 A 
HETATM   12  C   UNL     1      48.687 -29.691  -1.722  1.00  0.00     0.031 A 
HETATM   13  C   UNL     1      49.890 -30.166  -2.248  1.00  0.00     0.009 A 
ENDROOT
BRANCH   8  14
HETATM   14  N   UNL     1      45.813 -28.708   1.947  1.00  0.00    -0.277 NA
HETATM   15  H   UNL     1      45.926 -28.206   2.830  1.00  0.00     0.129 HD
BRANCH  14  16
HETATM   16  C   UNL     1      44.652 -29.597   1.951  1.00  0.00     0.113 C 
BRANCH  16  17
HETATM   17  C   UNL     1      43.537 -29.139   1.002  1.00  0.00     0.137 C 
BRANCH  17  18
HETATM   18  N   UNL     1      43.717 -29.479  -0.407  1.00  0.00    -0.360 N 
HETATM   19  C   UNL     1      44.406 -28.724  -1.336  1.00  0.00     0.221 C 
HETATM   20  O   UNL     1      45.036 -27.710  -1.043  1.00  0.00    -0.273 OA
HETATM   21  H   UNL     1      43.207 -30.287  -0.746  1.00  0.00     0.162 HD
BRANCH  19  22
HETATM   22  C   UNL     1      44.323 -29.270  -2.761  1.00  0.00     0.070 C 
HETATM   23  C   UNL     1      45.075 -28.358  -3.728  1.00  0.00     0.019 C 
HETATM   24  C   UNL     1      44.880 -30.692  -2.833  1.00  0.00     0.019 C 
ENDBRANCH  19  22
ENDBRANCH  17  18
ENDBRANCH  16  17
ENDBRANCH  14  16
ENDBRANCH   8  14
TORSDOF 5
ENDMDL
