MODEL 1
REMARK VINA RESULT:      -9.7      0.000      0.000
REMARK  5 active torsions:
REMARK  status: ('A' for Active; 'I' for Inactive)
REMARK    1  A    between atoms: C_5  and  C_6 
REMARK    2  A    between atoms: C_6  and  C_7 
REMARK       I    between atoms: C_7  and  N_8 
REMARK    3  A    between atoms: N_8  and  C_9 
REMARK    4  A    between atoms: N_10  and  C_11 
REMARK    5  A    between atoms: C_23  and  C_24 
ROOT
HETATM    1  C   UNL     1      42.176 -11.498   5.920  1.00  0.00     0.152 C 
HETATM    2  N   UNL     1      42.926 -12.645   6.171  1.00  0.00    -0.044 N 
HETATM    3  N   UNL     1      43.730 -12.479   7.276  1.00  0.00    -0.148 NA
HETATM    4  C   UNL     1      43.569 -11.193   7.608  1.00  0.00     0.115 C 
HETATM    5  C   UNL     1      42.682 -10.520   6.744  1.00  0.00     0.087 C 
ENDROOT
BRANCH   1   6
HETATM    6  N   UNL     1      41.129 -11.374   5.018  1.00  0.00    -0.311 N 
HETATM    7  C   UNL     1      41.400 -10.929   3.728  1.00  0.00     0.227 C 
HETATM    8  O   UNL     1      42.523 -10.625   3.321  1.00  0.00    -0.273 OA
HETATM    9  H   UNL     1      40.364 -12.036   5.107  1.00  0.00     0.170 HD
BRANCH   7  10
HETATM   10  C   UNL     1      40.197 -10.845   2.802  1.00  0.00     0.142 C 
BRANCH  10  11
HETATM   11  C   UNL     1      40.295 -11.641   1.512  1.00  0.00    -0.038 A 
HETATM   12  C   UNL     1      40.128 -13.055   1.469  1.00  0.00    -0.019 A 
HETATM   13  C   UNL     1      40.184 -13.708   0.212  1.00  0.00    -0.025 A 
HETATM   14  C   UNL     1      39.893 -13.857   2.611  1.00  0.00     0.013 A 
HETATM   15  C   UNL     1      39.985 -15.096   0.129  1.00  0.00     0.012 A 
HETATM   16  C   UNL     1      40.436 -12.968  -0.952  1.00  0.00     0.012 A 
HETATM   17  C   UNL     1      39.732 -15.854   1.271  1.00  0.00     0.001 A 
HETATM   18  C   UNL     1      39.689 -15.236   2.511  1.00  0.00     0.001 A 
HETATM   19  C   UNL     1      40.624 -11.590  -0.896  1.00  0.00     0.001 A 
HETATM   20  C   UNL     1      40.551 -10.930   0.325  1.00  0.00     0.008 A 
ENDBRANCH  10  11
ENDBRANCH   7  10
ENDBRANCH   1   6
BRANCH   2  21
HETATM   21  C   UNL     1      43.053 -13.835   5.418  1.00  0.00     0.732 A 
HETATM   22  N   UNL     1      43.155 -13.886   4.128  1.00  0.00    -0.067 NA
HETATM   23  C   UNL     1      43.224 -15.141   3.566  1.00  0.00     0.065 A 
HETATM   24  C   UNL     1      43.285 -16.285   4.273  1.00  0.00     0.036 A 
HETATM   25  C   UNL     1      43.192 -15.159   2.054  1.00  0.00     0.060 C 
HETATM   26  C   UNL     1      43.309 -17.655   3.666  1.00  0.00     0.046 C 
HETATM   27  C   UNL     1      43.282 -16.184   5.751  1.00  0.00     0.268 A 
HETATM   28  C   UNL     1      42.876 -17.655   2.199  1.00  0.00     0.005 C 
HETATM   29  C   UNL     1      43.540 -16.515   1.437  1.00  0.00     0.006 C 
HETATM   30  O   UNL     1      43.429 -17.161   6.476  1.00  0.00    -0.267 OA
HETATM   31  N   UNL     1      43.101 -14.930   6.239  1.00  0.00    -0.152 N 
HETATM   32  H   UNL     1      43.084 -14.788   7.243  1.00  0.00     0.188 HD
ENDBRANCH   2  21
BRANCH   4  33
HETATM   33  C   UNL     1      44.228 -10.575   8.795  1.00  0.00     0.105 A 
HETATM   34  O   UNL     1      43.959 -10.916  10.093  1.00  0.00    -0.320 OA
HETATM   35  C   UNL     1      44.780 -10.176  10.883  1.00  0.00     0.142 A 
HETATM   36  C   UNL     1      45.571  -9.354  10.119  1.00  0.00     0.027 A 
HETATM   37  C   UNL     1      45.213  -9.606   8.772  1.00  0.00     0.041 A 
ENDBRANCH   4  33
TORSDOF 5
ENDMDL
MODEL 2
REMARK VINA RESULT:      -9.7      1.810      5.141
REMARK  5 active torsions:
REMARK  status: ('A' for Active; 'I' for Inactive)
REMARK    1  A    between atoms: C_5  and  C_6 
REMARK    2  A    between atoms: C_6  and  C_7 
REMARK       I    between atoms: C_7  and  N_8 
REMARK    3  A    between atoms: N_8  and  C_9 
REMARK    4  A    between atoms: N_10  and  C_11 
REMARK    5  A    between atoms: C_23  and  C_24 
ROOT
HETATM    1  C   UNL     1      43.614 -12.743   6.401  1.00  0.00     0.152 C 
HETATM    2  N   UNL     1      42.955 -11.939   5.474  1.00  0.00    -0.044 N 
HETATM    3  N   UNL     1      42.827 -10.650   5.939  1.00  0.00    -0.148 NA
HETATM    4  C   UNL     1      43.282 -10.708   7.196  1.00  0.00     0.115 C 
HETATM    5  C   UNL     1      43.700 -12.004   7.558  1.00  0.00     0.087 C 
ENDROOT
BRANCH   1   6
HETATM    6  N   UNL     1      44.087 -14.031   6.193  1.00  0.00    -0.311 N 
HETATM    7  C   UNL     1      43.269 -15.109   6.515  1.00  0.00     0.227 C 
HETATM    8  O   UNL     1      42.134 -15.003   6.986  1.00  0.00    -0.273 OA
HETATM    9  H   UNL     1      44.714 -14.170   5.407  1.00  0.00     0.170 HD
BRANCH   7  10
HETATM   10  C   UNL     1      43.859 -16.482   6.234  1.00  0.00     0.142 C 
BRANCH  10  11
HETATM   11  C   UNL     1      43.719 -16.985   4.808  1.00  0.00    -0.038 A 
HETATM   12  C   UNL     1      43.810 -18.366   4.471  1.00  0.00    -0.019 A 
HETATM   13  C   UNL     1      43.614 -18.750   3.120  1.00  0.00    -0.025 A 
HETATM   14  C   UNL     1      44.073 -19.393   5.409  1.00  0.00     0.013 A 
HETATM   15  C   UNL     1      43.659 -20.107   2.759  1.00  0.00     0.012 A 
HETATM   16  C   UNL     1      43.372 -17.776   2.142  1.00  0.00     0.012 A 
HETATM   17  C   UNL     1      43.896 -21.096   3.712  1.00  0.00     0.001 A 
HETATM   18  C   UNL     1      44.106 -20.739   5.036  1.00  0.00     0.001 A 
HETATM   19  C   UNL     1      43.312 -16.426   2.478  1.00  0.00     0.001 A 
HETATM   20  C   UNL     1      43.480 -16.033   3.800  1.00  0.00     0.008 A 
ENDBRANCH  10  11
ENDBRANCH   7  10
ENDBRANCH   1   6
BRANCH   2  21
HETATM   21  C   UNL     1      42.334 -12.279   4.250  1.00  0.00     0.732 A 
HETATM   22  N   UNL     1      41.581 -13.317   4.068  1.00  0.00    -0.067 NA
HETATM   23  C   UNL     1      41.099 -13.510   2.792  1.00  0.00     0.065 A 
HETATM   24  C   UNL     1      41.286 -12.650   1.774  1.00  0.00     0.036 A 
HETATM   25  C   UNL     1      40.349 -14.808   2.589  1.00  0.00     0.060 C 
HETATM   26  C   UNL     1      40.809 -12.880   0.372  1.00  0.00     0.046 C 
HETATM   27  C   UNL     1      42.057 -11.414   2.046  1.00  0.00     0.268 A 
HETATM   28  C   UNL     1      40.426 -14.338   0.114  1.00  0.00     0.005 C 
HETATM   29  C   UNL     1      39.591 -14.892   1.262  1.00  0.00     0.006 C 
HETATM   30  O   UNL     1      42.199 -10.530   1.209  1.00  0.00    -0.267 OA
HETATM   31  N   UNL     1      42.596 -11.338   3.291  1.00  0.00    -0.152 N 
HETATM   32  H   UNL     1      43.140 -10.521   3.544  1.00  0.00     0.188 HD
ENDBRANCH   2  21
BRANCH   4  33
HETATM   33  C   UNL     1      43.372  -9.509   8.080  1.00  0.00     0.105 A 
HETATM   34  O   UNL     1      42.294  -8.884   8.645  1.00  0.00    -0.320 OA
HETATM   35  C   UNL     1      42.773  -7.869   9.411  1.00  0.00     0.142 A 
HETATM   36  C   UNL     1      44.144  -7.821   9.346  1.00  0.00     0.027 A 
HETATM   37  C   UNL     1      44.532  -8.876   8.484  1.00  0.00     0.041 A 
ENDBRANCH   4  33
TORSDOF 5
ENDMDL
MODEL 3
REMARK VINA RESULT:      -9.6      2.548      8.119
REMARK  5 active torsions:
REMARK  status: ('A' for Active; 'I' for Inactive)
REMARK    1  A    between atoms: C_5  and  C_6 
REMARK    2  A    between atoms: C_6  and  C_7 
REMARK       I    between atoms: C_7  and  N_8 
REMARK    3  A    between atoms: N_8  and  C_9 
REMARK    4  A    between atoms: N_10  and  C_11 
REMARK    5  A    between atoms: C_23  and  C_24 
ROOT
HETATM    1  C   UNL     1      41.345 -13.371   0.786  1.00  0.00     0.152 C 
HETATM    2  N   UNL     1      40.849 -12.406   1.659  1.00  0.00    -0.044 N 
HETATM    3  N   UNL     1      39.706 -11.826   1.158  1.00  0.00    -0.148 NA
HETATM    4  C   UNL     1      39.591 -12.339  -0.072  1.00  0.00     0.115 C 
HETATM    5  C   UNL     1      40.632 -13.237  -0.382  1.00  0.00     0.087 C 
ENDROOT
BRANCH   1   6
HETATM    6  N   UNL     1      42.357 -14.284   1.049  1.00  0.00    -0.311 N 
HETATM    7  C   UNL     1      42.019 -15.538   1.546  1.00  0.00     0.227 C 
HETATM    8  O   UNL     1      40.866 -15.905   1.780  1.00  0.00    -0.273 OA
HETATM    9  H   UNL     1      43.175 -14.251   0.448  1.00  0.00     0.170 HD
BRANCH   7  10
HETATM   10  C   UNL     1      43.188 -16.482   1.783  1.00  0.00     0.142 C 
BRANCH  10  11
HETATM   11  C   UNL     1      43.379 -16.957   3.213  1.00  0.00    -0.038 A 
HETATM   12  C   UNL     1      43.556 -18.331   3.547  1.00  0.00    -0.019 A 
HETATM   13  C   UNL     1      43.780 -18.677   4.903  1.00  0.00    -0.025 A 
HETATM   14  C   UNL     1      43.537 -19.382   2.600  1.00  0.00     0.013 A 
HETATM   15  C   UNL     1      43.998 -20.018   5.262  1.00  0.00     0.012 A 
HETATM   16  C   UNL     1      43.787 -17.681   5.889  1.00  0.00     0.012 A 
HETATM   17  C   UNL     1      43.997 -21.027   4.301  1.00  0.00     0.001 A 
HETATM   18  C   UNL     1      43.764 -20.710   2.971  1.00  0.00     0.001 A 
HETATM   19  C   UNL     1      43.586 -16.344   5.556  1.00  0.00     0.001 A 
HETATM   20  C   UNL     1      43.387 -15.984   4.229  1.00  0.00     0.008 A 
ENDBRANCH  10  11
ENDBRANCH   7  10
ENDBRANCH   1   6
BRANCH   2  21
HETATM   21  C   UNL     1      41.397 -11.891   2.857  1.00  0.00     0.732 A 
HETATM   22  N   UNL     1      42.310 -12.478   3.564  1.00  0.00    -0.067 NA
HETATM   23  C   UNL     1      42.687 -11.845   4.727  1.00  0.00     0.065 A 
HETATM   24  C   UNL     1      42.238 -10.635   5.111  1.00  0.00     0.036 A 
HETATM   25  C   UNL     1      43.644 -12.633   5.593  1.00  0.00     0.060 C 
HETATM   26  C   UNL     1      42.606  -9.965   6.400  1.00  0.00     0.046 C 
HETATM   27  C   UNL     1      41.279  -9.939   4.220  1.00  0.00     0.268 A 
HETATM   28  C   UNL     1      43.229 -10.932   7.407  1.00  0.00     0.005 C 
HETATM   29  C   UNL     1      44.266 -11.824   6.734  1.00  0.00     0.006 C 
HETATM   30  O   UNL     1      40.889  -8.798   4.439  1.00  0.00    -0.267 OA
HETATM   31  N   UNL     1      40.865 -10.663   3.148  1.00  0.00    -0.152 N 
HETATM   32  H   UNL     1      40.205 -10.250   2.499  1.00  0.00     0.188 HD
ENDBRANCH   2  21
BRANCH   4  33
HETATM   33  C   UNL     1      38.449 -12.019  -0.979  1.00  0.00     0.105 A 
HETATM   34  O   UNL     1      37.812 -10.809  -1.021  1.00  0.00    -0.320 OA
HETATM   35  C   UNL     1      36.865 -10.885  -1.991  1.00  0.00     0.142 A 
HETATM   36  C   UNL     1      36.871 -12.128  -2.575  1.00  0.00     0.027 A 
HETATM   37  C   UNL     1      37.890 -12.862  -1.920  1.00  0.00     0.041 A 
ENDBRANCH   4  33
TORSDOF 5
ENDMDL
MODEL 4
REMARK VINA RESULT:      -9.6      0.666      1.912
REMARK  5 active torsions:
REMARK  status: ('A' for Active; 'I' for Inactive)
REMARK    1  A    between atoms: C_5  and  C_6 
REMARK    2  A    between atoms: C_6  and  C_7 
REMARK       I    between atoms: C_7  and  N_8 
REMARK    3  A    between atoms: N_8  and  C_9 
REMARK    4  A    between atoms: N_10  and  C_11 
REMARK    5  A    between atoms: C_23  and  C_24 
ROOT
HETATM    1  C   UNL     1      42.267 -11.927   5.798  1.00  0.00     0.152 C 
HETATM    2  N   UNL     1      43.046 -13.029   6.144  1.00  0.00    -0.044 N 
HETATM    3  N   UNL     1      43.837 -12.753   7.236  1.00  0.00    -0.148 NA
HETATM    4  C   UNL     1      43.639 -11.449   7.462  1.00  0.00     0.115 C 
HETATM    5  C   UNL     1      42.741 -10.872   6.543  1.00  0.00     0.087 C 
ENDROOT
BRANCH   1   6
HETATM    6  N   UNL     1      41.222 -11.905   4.884  1.00  0.00    -0.311 N 
HETATM    7  C   UNL     1      41.489 -11.554   3.565  1.00  0.00     0.227 C 
HETATM    8  O   UNL     1      42.606 -11.250   3.140  1.00  0.00    -0.273 OA
HETATM    9  H   UNL     1      40.476 -12.580   5.022  1.00  0.00     0.170 HD
BRANCH   7  10
HETATM   10  C   UNL     1      40.290 -11.578   2.630  1.00  0.00     0.142 C 
BRANCH  10  11
HETATM   11  C   UNL     1      40.126 -12.835   1.793  1.00  0.00    -0.038 A 
HETATM   12  C   UNL     1      40.219 -12.827   0.372  1.00  0.00    -0.019 A 
HETATM   13  C   UNL     1      40.105 -14.058  -0.323  1.00  0.00    -0.025 A 
HETATM   14  C   UNL     1      40.434 -11.660  -0.399  1.00  0.00     0.013 A 
HETATM   15  C   UNL     1      40.231 -14.091  -1.722  1.00  0.00     0.012 A 
HETATM   16  C   UNL     1      39.869 -15.244   0.385  1.00  0.00     0.012 A 
HETATM   17  C   UNL     1      40.467 -12.926  -2.450  1.00  0.00     0.001 A 
HETATM   18  C   UNL     1      40.566 -11.711  -1.789  1.00  0.00     0.001 A 
HETATM   19  C   UNL     1      39.752 -15.237   1.772  1.00  0.00     0.001 A 
HETATM   20  C   UNL     1      39.884 -14.044   2.472  1.00  0.00     0.008 A 
ENDBRANCH  10  11
ENDBRANCH   7  10
ENDBRANCH   1   6
BRANCH   2  21
HETATM   21  C   UNL     1      43.210 -14.272   5.490  1.00  0.00     0.732 A 
HETATM   22  N   UNL     1      43.148 -14.446   4.208  1.00  0.00    -0.067 NA
HETATM   23  C   UNL     1      43.287 -15.739   3.756  1.00  0.00     0.065 A 
HETATM   24  C   UNL     1      43.571 -16.791   4.546  1.00  0.00     0.036 A 
HETATM   25  C   UNL     1      43.061 -15.917   2.271  1.00  0.00     0.060 C 
HETATM   26  C   UNL     1      43.672 -18.208   4.067  1.00  0.00     0.046 C 
HETATM   27  C   UNL     1      43.748 -16.538   5.996  1.00  0.00     0.268 A 
HETATM   28  C   UNL     1      43.055 -18.404   2.682  1.00  0.00     0.005 C 
HETATM   29  C   UNL     1      43.479 -17.288   1.735  1.00  0.00     0.006 C 
HETATM   30  O   UNL     1      44.099 -17.415   6.777  1.00  0.00    -0.267 OA
HETATM   31  N   UNL     1      43.489 -15.264   6.390  1.00  0.00    -0.152 N 
HETATM   32  H   UNL     1      43.587 -15.022   7.370  1.00  0.00     0.188 HD
ENDBRANCH   2  21
BRANCH   4  33
HETATM   33  C   UNL     1      44.274 -10.720   8.599  1.00  0.00     0.105 A 
HETATM   34  O   UNL     1      44.048 -11.000   9.919  1.00  0.00    -0.320 OA
HETATM   35  C   UNL     1      44.830 -10.163  10.649  1.00  0.00     0.142 A 
HETATM   36  C   UNL     1      45.553  -9.337   9.823  1.00  0.00     0.027 A 
HETATM   37  C   UNL     1      45.192  -9.692   8.501  1.00  0.00     0.041 A 
ENDBRANCH   4  33
TORSDOF 5
ENDMDL
MODEL 5
REMARK VINA RESULT:      -9.3      2.548      7.619
REMARK  5 active torsions:
REMARK  status: ('A' for Active; 'I' for Inactive)
REMARK    1  A    between atoms: C_5  and  C_6 
REMARK    2  A    between atoms: C_6  and  C_7 
REMARK       I    between atoms: C_7  and  N_8 
REMARK    3  A    between atoms: N_8  and  C_9 
REMARK    4  A    between atoms: N_10  and  C_11 
REMARK    5  A    between atoms: C_23  and  C_24 
ROOT
HETATM    1  C   UNL     1      40.986 -12.691   0.767  1.00  0.00     0.152 C 
HETATM    2  N   UNL     1      41.439 -11.560   1.443  1.00  0.00    -0.044 N 
HETATM    3  N   UNL     1      41.424 -10.455   0.622  1.00  0.00    -0.148 NA
HETATM    4  C   UNL     1      41.096 -10.944  -0.580  1.00  0.00     0.115 C 
HETATM    5  C   UNL     1      40.899 -12.339  -0.560  1.00  0.00     0.087 C 
ENDROOT
BRANCH   1   6
HETATM    6  N   UNL     1      40.683 -13.925   1.327  1.00  0.00    -0.311 N 
HETATM    7  C   UNL     1      41.714 -14.829   1.561  1.00  0.00     0.227 C 
HETATM    8  O   UNL     1      42.899 -14.614   1.297  1.00  0.00    -0.273 OA
HETATM    9  H   UNL     1      39.910 -13.955   1.984  1.00  0.00     0.170 HD
BRANCH   7  10
HETATM   10  C   UNL     1      41.294 -16.145   2.197  1.00  0.00     0.142 C 
BRANCH  10  11
HETATM   11  C   UNL     1      42.392 -16.922   2.902  1.00  0.00    -0.038 A 
HETATM   12  C   UNL     1      42.991 -16.473   4.114  1.00  0.00    -0.019 A 
HETATM   13  C   UNL     1      43.972 -17.291   4.730  1.00  0.00    -0.025 A 
HETATM   14  C   UNL     1      42.657 -15.258   4.758  1.00  0.00     0.013 A 
HETATM   15  C   UNL     1      44.555 -16.897   5.946  1.00  0.00     0.012 A 
HETATM   16  C   UNL     1      44.361 -18.495   4.128  1.00  0.00     0.012 A 
HETATM   17  C   UNL     1      44.186 -15.705   6.567  1.00  0.00     0.001 A 
HETATM   18  C   UNL     1      43.239 -14.885   5.971  1.00  0.00     0.001 A 
HETATM   19  C   UNL     1      43.789 -18.912   2.929  1.00  0.00     0.001 A 
HETATM   20  C   UNL     1      42.809 -18.134   2.322  1.00  0.00     0.008 A 
ENDBRANCH  10  11
ENDBRANCH   7  10
ENDBRANCH   1   6
BRANCH   2  21
HETATM   21  C   UNL     1      41.990 -11.431   2.738  1.00  0.00     0.732 A 
HETATM   22  N   UNL     1      43.252 -11.521   3.016  1.00  0.00    -0.067 NA
HETATM   23  C   UNL     1      43.598 -11.413   4.344  1.00  0.00     0.065 A 
HETATM   24  C   UNL     1      42.728 -11.132   5.333  1.00  0.00     0.036 A 
HETATM   25  C   UNL     1      45.059 -11.670   4.640  1.00  0.00     0.060 C 
HETATM   26  C   UNL     1      43.090 -11.064   6.786  1.00  0.00     0.046 C 
HETATM   27  C   UNL     1      41.308 -10.922   4.965  1.00  0.00     0.268 A 
HETATM   28  C   UNL     1      44.443 -11.712   7.083  1.00  0.00     0.005 C 
HETATM   29  C   UNL     1      45.487 -11.287   6.058  1.00  0.00     0.006 C 
HETATM   30  O   UNL     1      40.464 -10.571   5.780  1.00  0.00    -0.267 OA
HETATM   31  N   UNL     1      41.016 -11.151   3.658  1.00  0.00    -0.152 N 
HETATM   32  H   UNL     1      40.061 -11.030   3.337  1.00  0.00     0.188 HD
ENDBRANCH   2  21
BRANCH   4  33
HETATM   33  C   UNL     1      40.916 -10.079  -1.783  1.00  0.00     0.105 A 
HETATM   34  O   UNL     1      40.696  -8.730  -1.739  1.00  0.00    -0.320 OA
HETATM   35  C   UNL     1      40.628  -8.289  -3.022  1.00  0.00     0.142 A 
HETATM   36  C   UNL     1      40.793  -9.334  -3.899  1.00  0.00     0.027 A 
HETATM   37  C   UNL     1      40.975 -10.490  -3.101  1.00  0.00     0.041 A 
ENDBRANCH   4  33
TORSDOF 5
ENDMDL
MODEL 6
REMARK VINA RESULT:      -9.2      3.014      6.586
REMARK  5 active torsions:
REMARK  status: ('A' for Active; 'I' for Inactive)
REMARK    1  A    between atoms: C_5  and  C_6 
REMARK    2  A    between atoms: C_6  and  C_7 
REMARK       I    between atoms: C_7  and  N_8 
REMARK    3  A    between atoms: N_8  and  C_9 
REMARK    4  A    between atoms: N_10  and  C_11 
REMARK    5  A    between atoms: C_23  and  C_24 
ROOT
HETATM    1  C   UNL     1      40.707 -13.276   3.857  1.00  0.00     0.152 C 
HETATM    2  N   UNL     1      40.089 -12.328   3.046  1.00  0.00    -0.044 N 
HETATM    3  N   UNL     1      39.817 -11.176   3.750  1.00  0.00    -0.148 NA
HETATM    4  C   UNL     1      40.144 -11.479   5.012  1.00  0.00     0.115 C 
HETATM    5  C   UNL     1      40.619 -12.799   5.144  1.00  0.00     0.087 C 
ENDROOT
BRANCH   1   6
HETATM    6  N   UNL     1      41.295 -14.464   3.443  1.00  0.00    -0.311 N 
HETATM    7  C   UNL     1      42.599 -14.436   2.960  1.00  0.00     0.227 C 
HETATM    8  O   UNL     1      43.283 -13.415   2.866  1.00  0.00    -0.273 OA
HETATM    9  H   UNL     1      41.022 -15.309   3.935  1.00  0.00     0.170 HD
BRANCH   7  10
HETATM   10  C   UNL     1      43.171 -15.785   2.551  1.00  0.00     0.142 C 
BRANCH  10  11
HETATM   11  C   UNL     1      43.447 -16.760   3.682  1.00  0.00    -0.038 A 
HETATM   12  C   UNL     1      43.539 -18.167   3.475  1.00  0.00    -0.019 A 
HETATM   13  C   UNL     1      43.854 -18.997   4.580  1.00  0.00    -0.025 A 
HETATM   14  C   UNL     1      43.349 -18.795   2.221  1.00  0.00     0.013 A 
HETATM   15  C   UNL     1      43.990 -20.384   4.404  1.00  0.00     0.012 A 
HETATM   16  C   UNL     1      44.031 -18.434   5.851  1.00  0.00     0.012 A 
HETATM   17  C   UNL     1      43.820 -20.968   3.151  1.00  0.00     0.001 A 
HETATM   18  C   UNL     1      43.497 -20.175   2.060  1.00  0.00     0.001 A 
HETATM   19  C   UNL     1      43.912 -17.061   6.048  1.00  0.00     0.001 A 
HETATM   20  C   UNL     1      43.627 -16.230   4.972  1.00  0.00     0.008 A 
ENDBRANCH  10  11
ENDBRANCH   7  10
ENDBRANCH   1   6
BRANCH   2  21
HETATM   21  C   UNL     1      39.623 -12.430   1.715  1.00  0.00     0.732 A 
HETATM   22  N   UNL     1      39.783 -13.466   0.954  1.00  0.00    -0.067 NA
HETATM   23  C   UNL     1      39.300 -13.363  -0.331  1.00  0.00     0.065 A 
HETATM   24  C   UNL     1      38.606 -12.309  -0.798  1.00  0.00     0.036 A 
HETATM   25  C   UNL     1      39.637 -14.534  -1.228  1.00  0.00     0.060 C 
HETATM   26  C   UNL     1      38.123 -12.170  -2.211  1.00  0.00     0.046 C 
HETATM   27  C   UNL     1      38.342 -11.188   0.134  1.00  0.00     0.268 A 
HETATM   28  C   UNL     1      38.811 -13.148  -3.164  1.00  0.00     0.005 C 
HETATM   29  C   UNL     1      38.878 -14.544  -2.556  1.00  0.00     0.006 C 
HETATM   30  O   UNL     1      37.641 -10.230  -0.171  1.00  0.00    -0.267 OA
HETATM   31  N   UNL     1      38.938 -11.302   1.350  1.00  0.00    -0.152 N 
HETATM   32  H   UNL     1      38.804 -10.568   2.036  1.00  0.00     0.188 HD
ENDBRANCH   2  21
BRANCH   4  33
HETATM   33  C   UNL     1      40.052 -10.494   6.130  1.00  0.00     0.105 A 
HETATM   34  O   UNL     1      40.776  -9.335   6.199  1.00  0.00    -0.320 OA
HETATM   35  C   UNL     1      40.392  -8.687   7.329  1.00  0.00     0.142 A 
HETATM   36  C   UNL     1      39.436  -9.411   7.999  1.00  0.00     0.027 A 
HETATM   37  C   UNL     1      39.219 -10.580   7.229  1.00  0.00     0.041 A 
ENDBRANCH   4  33
TORSDOF 5
ENDMDL
MODEL 7
REMARK VINA RESULT:      -9.0      2.810      5.626
REMARK  5 active torsions:
REMARK  status: ('A' for Active; 'I' for Inactive)
REMARK    1  A    between atoms: C_5  and  C_6 
REMARK    2  A    between atoms: C_6  and  C_7 
REMARK       I    between atoms: C_7  and  N_8 
REMARK    3  A    between atoms: N_8  and  C_9 
REMARK    4  A    between atoms: N_10  and  C_11 
REMARK    5  A    between atoms: C_23  and  C_24 
ROOT
HETATM    1  C   UNL     1      40.790 -13.066   5.246  1.00  0.00     0.152 C 
HETATM    2  N   UNL     1      40.484 -12.366   4.082  1.00  0.00    -0.044 N 
HETATM    3  N   UNL     1      40.077 -11.083   4.369  1.00  0.00    -0.148 NA
HETATM    4  C   UNL     1      40.006 -11.052   5.704  1.00  0.00     0.115 C 
HETATM    5  C   UNL     1      40.355 -12.285   6.291  1.00  0.00     0.087 C 
ENDROOT
BRANCH   1   6
HETATM    6  N   UNL     1      41.413 -14.304   5.329  1.00  0.00    -0.311 N 
HETATM    7  C   UNL     1      42.795 -14.354   5.472  1.00  0.00     0.227 C 
HETATM    8  O   UNL     1      43.524 -13.361   5.526  1.00  0.00    -0.273 OA
HETATM    9  H   UNL     1      40.893 -15.052   5.779  1.00  0.00     0.170 HD
BRANCH   7  10
HETATM   10  C   UNL     1      43.389 -15.750   5.578  1.00  0.00     0.142 C 
BRANCH  10  11
HETATM   11  C   UNL     1      43.413 -16.561   4.293  1.00  0.00    -0.038 A 
HETATM   12  C   UNL     1      43.619 -17.970   4.280  1.00  0.00    -0.019 A 
HETATM   13  C   UNL     1      43.573 -18.652   3.038  1.00  0.00    -0.025 A 
HETATM   14  C   UNL     1      43.855 -18.745   5.441  1.00  0.00     0.013 A 
HETATM   15  C   UNL     1      43.733 -20.047   2.993  1.00  0.00     0.012 A 
HETATM   16  C   UNL     1      43.365 -17.935   1.852  1.00  0.00     0.012 A 
HETATM   17  C   UNL     1      43.940 -20.784   4.158  1.00  0.00     0.001 A 
HETATM   18  C   UNL     1      44.003 -20.133   5.381  1.00  0.00     0.001 A 
HETATM   19  C   UNL     1      43.191 -16.554   1.872  1.00  0.00     0.001 A 
HETATM   20  C   UNL     1      43.211 -15.872   3.083  1.00  0.00     0.008 A 
ENDBRANCH  10  11
ENDBRANCH   7  10
ENDBRANCH   1   6
BRANCH   2  21
HETATM   21  C   UNL     1      40.422 -12.809   2.741  1.00  0.00     0.732 A 
HETATM   22  N   UNL     1      40.739 -12.091   1.710  1.00  0.00    -0.067 NA
HETATM   23  C   UNL     1      40.570 -12.679   0.477  1.00  0.00     0.065 A 
HETATM   24  C   UNL     1      40.194 -13.958   0.292  1.00  0.00     0.036 A 
HETATM   25  C   UNL     1      40.811 -11.759  -0.700  1.00  0.00     0.060 C 
HETATM   26  C   UNL     1      39.959 -14.587  -1.048  1.00  0.00     0.046 C 
HETATM   27  C   UNL     1      39.949 -14.787   1.496  1.00  0.00     0.268 A 
HETATM   28  C   UNL     1      39.816 -13.552  -2.165  1.00  0.00     0.005 C 
HETATM   29  C   UNL     1      40.888 -12.476  -2.049  1.00  0.00     0.006 C 
HETATM   30  O   UNL     1      39.695 -15.983   1.429  1.00  0.00    -0.267 OA
HETATM   31  N   UNL     1      40.026 -14.118   2.676  1.00  0.00    -0.152 N 
HETATM   32  H   UNL     1      39.864 -14.623   3.541  1.00  0.00     0.188 HD
ENDBRANCH   2  21
BRANCH   4  33
HETATM   33  C   UNL     1      39.643  -9.822   6.468  1.00  0.00     0.105 A 
HETATM   34  O   UNL     1      39.762  -9.692   7.824  1.00  0.00    -0.320 OA
HETATM   35  C   UNL     1      39.378  -8.429   8.144  1.00  0.00     0.142 A 
HETATM   36  C   UNL     1      39.004  -7.739   7.016  1.00  0.00     0.027 A 
HETATM   37  C   UNL     1      39.170  -8.639   5.935  1.00  0.00     0.041 A 
ENDBRANCH   4  33
TORSDOF 5
ENDMDL
MODEL 8
REMARK VINA RESULT:      -8.8      2.512      7.685
REMARK  5 active torsions:
REMARK  status: ('A' for Active; 'I' for Inactive)
REMARK    1  A    between atoms: C_5  and  C_6 
REMARK    2  A    between atoms: C_6  and  C_7 
REMARK       I    between atoms: C_7  and  N_8 
REMARK    3  A    between atoms: N_8  and  C_9 
REMARK    4  A    between atoms: N_10  and  C_11 
REMARK    5  A    between atoms: C_23  and  C_24 
ROOT
HETATM    1  C   UNL     1      41.241 -12.222   0.951  1.00  0.00     0.152 C 
HETATM    2  N   UNL     1      41.674 -11.065   1.594  1.00  0.00    -0.044 N 
HETATM    3  N   UNL     1      41.757 -10.010   0.713  1.00  0.00    -0.148 NA
HETATM    4  C   UNL     1      41.509 -10.561  -0.481  1.00  0.00     0.115 C 
HETATM    5  C   UNL     1      41.269 -11.947  -0.396  1.00  0.00     0.087 C 
ENDROOT
BRANCH   1   6
HETATM    6  N   UNL     1      40.857 -13.411   1.556  1.00  0.00    -0.311 N 
HETATM    7  C   UNL     1      41.813 -14.400   1.762  1.00  0.00     0.227 C 
HETATM    8  O   UNL     1      42.998 -14.299   1.437  1.00  0.00    -0.273 OA
HETATM    9  H   UNL     1      40.118 -13.358   2.249  1.00  0.00     0.170 HD
BRANCH   7  10
HETATM   10  C   UNL     1      41.310 -15.659   2.450  1.00  0.00     0.142 C 
BRANCH  10  11
HETATM   11  C   UNL     1      42.225 -16.249   3.509  1.00  0.00    -0.038 A 
HETATM   12  C   UNL     1      42.824 -17.534   3.375  1.00  0.00    -0.019 A 
HETATM   13  C   UNL     1      43.708 -17.981   4.390  1.00  0.00    -0.025 A 
HETATM   14  C   UNL     1      42.604 -18.398   2.275  1.00  0.00     0.013 A 
HETATM   15  C   UNL     1      44.346 -19.227   4.270  1.00  0.00     0.012 A 
HETATM   16  C   UNL     1      43.948 -17.179   5.513  1.00  0.00     0.012 A 
HETATM   17  C   UNL     1      44.125 -20.043   3.162  1.00  0.00     0.001 A 
HETATM   18  C   UNL     1      43.253 -19.630   2.167  1.00  0.00     0.001 A 
HETATM   19  C   UNL     1      43.336 -15.935   5.648  1.00  0.00     0.001 A 
HETATM   20  C   UNL     1      42.485 -15.472   4.653  1.00  0.00     0.008 A 
ENDBRANCH  10  11
ENDBRANCH   7  10
ENDBRANCH   1   6
BRANCH   2  21
HETATM   21  C   UNL     1      42.127 -10.872   2.919  1.00  0.00     0.732 A 
HETATM   22  N   UNL     1      42.996 -11.622   3.519  1.00  0.00    -0.067 NA
HETATM   23  C   UNL     1      43.279 -11.306   4.829  1.00  0.00     0.065 A 
HETATM   24  C   UNL     1      42.787 -10.232   5.473  1.00  0.00     0.036 A 
HETATM   25  C   UNL     1      44.184 -12.292   5.535  1.00  0.00     0.060 C 
HETATM   26  C   UNL     1      43.052  -9.911   6.913  1.00  0.00     0.046 C 
HETATM   27  C   UNL     1      41.883  -9.330   4.721  1.00  0.00     0.268 A 
HETATM   28  C   UNL     1      43.616 -11.105   7.685  1.00  0.00     0.005 C 
HETATM   29  C   UNL     1      44.711 -11.801   6.886  1.00  0.00     0.006 C 
HETATM   30  O   UNL     1      41.462  -8.280   5.192  1.00  0.00    -0.267 OA
HETATM   31  N   UNL     1      41.558  -9.757   3.473  1.00  0.00    -0.152 N 
HETATM   32  H   UNL     1      40.939  -9.190   2.903  1.00  0.00     0.188 HD
ENDBRANCH   2  21
BRANCH   4  33
HETATM   33  C   UNL     1      41.450  -9.766  -1.743  1.00  0.00     0.105 A 
HETATM   34  O   UNL     1      40.856 -10.194  -2.898  1.00  0.00    -0.320 OA
HETATM   35  C   UNL     1      40.966  -9.189  -3.805  1.00  0.00     0.142 A 
HETATM   36  C   UNL     1      41.630  -8.118  -3.259  1.00  0.00     0.027 A 
HETATM   37  C   UNL     1      41.948  -8.491  -1.930  1.00  0.00     0.041 A 
ENDBRANCH   4  33
TORSDOF 5
ENDMDL
MODEL 9
REMARK VINA RESULT:      -8.8      3.704      6.976
REMARK  5 active torsions:
REMARK  status: ('A' for Active; 'I' for Inactive)
REMARK    1  A    between atoms: C_5  and  C_6 
REMARK    2  A    between atoms: C_6  and  C_7 
REMARK       I    between atoms: C_7  and  N_8 
REMARK    3  A    between atoms: N_8  and  C_9 
REMARK    4  A    between atoms: N_10  and  C_11 
REMARK    5  A    between atoms: C_23  and  C_24 
ROOT
HETATM    1  C   UNL     1      40.704 -14.691   3.165  1.00  0.00     0.152 C 
HETATM    2  N   UNL     1      40.873 -14.944   1.806  1.00  0.00    -0.044 N 
HETATM    3  N   UNL     1      41.639 -16.070   1.604  1.00  0.00    -0.148 NA
HETATM    4  C   UNL     1      42.045 -16.414   2.831  1.00  0.00     0.115 C 
HETATM    5  C   UNL     1      41.564 -15.539   3.824  1.00  0.00     0.087 C 
ENDROOT
BRANCH   1   6
HETATM    6  N   UNL     1      39.839 -13.766   3.734  1.00  0.00    -0.311 N 
HETATM    7  C   UNL     1      40.304 -12.481   3.994  1.00  0.00     0.227 C 
HETATM    8  O   UNL     1      41.451 -12.096   3.757  1.00  0.00    -0.273 OA
HETATM    9  H   UNL     1      38.858 -13.841   3.487  1.00  0.00     0.170 HD
BRANCH   7  10
HETATM   10  C   UNL     1      39.283 -11.529   4.597  1.00  0.00     0.142 C 
BRANCH  10  11
HETATM   11  C   UNL     1      39.053 -10.234   3.838  1.00  0.00    -0.038 A 
HETATM   12  C   UNL     1      38.355 -10.187   2.597  1.00  0.00    -0.019 A 
HETATM   13  C   UNL     1      38.141  -8.926   1.985  1.00  0.00    -0.025 A 
HETATM   14  C   UNL     1      37.844 -11.329   1.934  1.00  0.00     0.013 A 
HETATM   15  C   UNL     1      37.423  -8.840   0.781  1.00  0.00     0.012 A 
HETATM   16  C   UNL     1      38.643  -7.763   2.583  1.00  0.00     0.012 A 
HETATM   17  C   UNL     1      36.912  -9.981   0.166  1.00  0.00     0.001 A 
HETATM   18  C   UNL     1      37.125 -11.225   0.741  1.00  0.00     0.001 A 
HETATM   19  C   UNL     1      39.347  -7.822   3.783  1.00  0.00     0.001 A 
HETATM   20  C   UNL     1      39.547  -9.047   4.408  1.00  0.00     0.008 A 
ENDBRANCH  10  11
ENDBRANCH   7  10
ENDBRANCH   1   6
BRANCH   2  21
HETATM   21  C   UNL     1      40.489 -14.179   0.681  1.00  0.00     0.732 A 
HETATM   22  N   UNL     1      40.813 -12.941   0.484  1.00  0.00    -0.067 NA
HETATM   23  C   UNL     1      40.306 -12.346  -0.650  1.00  0.00     0.065 A 
HETATM   24  C   UNL     1      39.590 -12.993  -1.589  1.00  0.00     0.036 A 
HETATM   25  C   UNL     1      40.586 -10.864  -0.765  1.00  0.00     0.060 C 
HETATM   26  C   UNL     1      38.994 -12.339  -2.799  1.00  0.00     0.046 C 
HETATM   27  C   UNL     1      39.334 -14.438  -1.389  1.00  0.00     0.268 A 
HETATM   28  C   UNL     1      38.946 -10.815  -2.679  1.00  0.00     0.005 C 
HETATM   29  C   UNL     1      40.263 -10.271  -2.139  1.00  0.00     0.006 C 
HETATM   30  O   UNL     1      38.774 -15.129  -2.232  1.00  0.00    -0.267 OA
HETATM   31  N   UNL     1      39.765 -14.937  -0.201  1.00  0.00    -0.152 N 
HETATM   32  H   UNL     1      39.618 -15.919   0.005  1.00  0.00     0.188 HD
ENDBRANCH   2  21
BRANCH   4  33
HETATM   33  C   UNL     1      42.877 -17.625   3.098  1.00  0.00     0.105 A 
HETATM   34  O   UNL     1      43.589 -17.834   4.248  1.00  0.00    -0.320 OA
HETATM   35  C   UNL     1      44.177 -19.053   4.141  1.00  0.00     0.142 A 
HETATM   36  C   UNL     1      43.864 -19.636   2.937  1.00  0.00     0.027 A 
HETATM   37  C   UNL     1      43.029 -18.713   2.261  1.00  0.00     0.041 A 
ENDBRANCH   4  33
TORSDOF 5
ENDMDL
MODEL 10
REMARK VINA RESULT:      -8.7      2.520      6.554
REMARK  5 active torsions:
REMARK  status: ('A' for Active; 'I' for Inactive)
REMARK    1  A    between atoms: C_5  and  C_6 
REMARK    2  A    between atoms: C_6  and  C_7 
REMARK       I    between atoms: C_7  and  N_8 
REMARK    3  A    between atoms: N_8  and  C_9 
REMARK    4  A    between atoms: N_10  and  C_11 
REMARK    5  A    between atoms: C_23  and  C_24 
ROOT
HETATM    1  C   UNL     1      42.478 -15.432   2.226  1.00  0.00     0.152 C 
HETATM    2  N   UNL     1      42.591 -15.171   3.590  1.00  0.00    -0.044 N 
HETATM    3  N   UNL     1      43.035 -16.282   4.271  1.00  0.00    -0.148 NA
HETATM    4  C   UNL     1      43.057 -17.247   3.345  1.00  0.00     0.115 C 
HETATM    5  C   UNL     1      42.637 -16.791   2.080  1.00  0.00     0.087 C 
ENDROOT
BRANCH   1   6
HETATM    6  N   UNL     1      42.252 -14.502   1.220  1.00  0.00    -0.311 N 
HETATM    7  C   UNL     1      40.945 -14.116   0.943  1.00  0.00     0.227 C 
HETATM    8  O   UNL     1      39.952 -14.551   1.531  1.00  0.00    -0.273 OA
HETATM    9  H   UNL     1      42.963 -13.791   1.082  1.00  0.00     0.170 HD
BRANCH   7  10
HETATM   10  C   UNL     1      40.792 -13.078  -0.158  1.00  0.00     0.142 C 
BRANCH  10  11
HETATM   11  C   UNL     1      39.687 -13.337  -1.167  1.00  0.00    -0.038 A 
HETATM   12  C   UNL     1      38.650 -12.396  -1.427  1.00  0.00    -0.019 A 
HETATM   13  C   UNL     1      37.690 -12.700  -2.425  1.00  0.00    -0.025 A 
HETATM   14  C   UNL     1      38.522 -11.156  -0.755  1.00  0.00     0.013 A 
HETATM   15  C   UNL     1      36.677 -11.778  -2.733  1.00  0.00     0.012 A 
HETATM   16  C   UNL     1      37.753 -13.922  -3.108  1.00  0.00     0.012 A 
HETATM   17  C   UNL     1      36.593 -10.555  -2.069  1.00  0.00     0.001 A 
HETATM   18  C   UNL     1      37.513 -10.246  -1.079  1.00  0.00     0.001 A 
HETATM   19  C   UNL     1      38.755 -14.847  -2.828  1.00  0.00     0.001 A 
HETATM   20  C   UNL     1      39.717 -14.556  -1.869  1.00  0.00     0.008 A 
ENDBRANCH  10  11
ENDBRANCH   7  10
ENDBRANCH   1   6
BRANCH   2  21
HETATM   21  C   UNL     1      42.217 -14.029   4.334  1.00  0.00     0.732 A 
HETATM   22  N   UNL     1      41.020 -13.788   4.767  1.00  0.00    -0.067 NA
HETATM   23  C   UNL     1      40.837 -12.598   5.436  1.00  0.00     0.065 A 
HETATM   24  C   UNL     1      41.828 -11.738   5.738  1.00  0.00     0.036 A 
HETATM   25  C   UNL     1      39.400 -12.290   5.794  1.00  0.00     0.060 C 
HETATM   26  C   UNL     1      41.626 -10.419   6.420  1.00  0.00     0.046 C 
HETATM   27  C   UNL     1      43.205 -12.099   5.327  1.00  0.00     0.268 A 
HETATM   28  C   UNL     1      40.165  -9.966   6.401  1.00  0.00     0.005 C 
HETATM   29  C   UNL     1      39.235 -11.117   6.763  1.00  0.00     0.006 C 
HETATM   30  O   UNL     1      44.181 -11.427   5.639  1.00  0.00    -0.267 OA
HETATM   31  N   UNL     1      43.301 -13.228   4.577  1.00  0.00    -0.152 N 
HETATM   32  H   UNL     1      44.214 -13.532   4.257  1.00  0.00     0.188 HD
ENDBRANCH   2  21
BRANCH   4  33
HETATM   33  C   UNL     1      43.527 -18.634   3.633  1.00  0.00     0.105 A 
HETATM   34  O   UNL     1      43.993 -19.055   4.849  1.00  0.00    -0.320 OA
HETATM   35  C   UNL     1      44.281 -20.377   4.735  1.00  0.00     0.142 A 
HETATM   36  C   UNL     1      44.017 -20.820   3.461  1.00  0.00     0.027 A 
HETATM   37  C   UNL     1      43.535 -19.695   2.748  1.00  0.00     0.041 A 
ENDBRANCH   4  33
TORSDOF 5
ENDMDL
