MODEL 1
REMARK VINA RESULT:      -9.4      0.000      0.000
REMARK  9 active torsions:
REMARK  status: ('A' for Active; 'I' for Inactive)
REMARK    1  A    between atoms: C_2  and  C_3 
REMARK    2  A    between atoms: C_4  and  N_5 
REMARK       I    between atoms: N_5  and  C_6 
REMARK    3  A    between atoms: C_6  and  C_7 
REMARK    4  A    between atoms: C_7  and  S_8 
REMARK    5  A    between atoms: S_8  and  C_9 
REMARK    6  A    between atoms: C_13  and  C_14 
REMARK       I    between atoms: C_14  and  N_15 
REMARK    7  A    between atoms: N_15  and  C_16 
REMARK    8  A    between atoms: C_17  and  O_18 
REMARK    9  A    between atoms: C_25  and  C_26 
ROOT
HETATM    1  C   UNL     1      42.619 -12.089   6.385  1.00  0.00     0.087 C 
HETATM    2  N   UNL     1      42.866 -13.181   7.198  1.00  0.00    -0.353 N 
HETATM    3  C   UNL     1      42.630 -14.490   6.820  1.00  0.00     0.019 C 
HETATM    4  C   UNL     1      43.311 -15.550   7.651  1.00  0.00     0.069 C 
HETATM    5  C   UNL     1      41.856 -14.734   5.739  1.00  0.00     0.046 C 
HETATM    6  C   UNL     1      41.208 -13.595   4.951  1.00  0.00     0.104 C 
HETATM    7  C   UNL     1      41.802 -12.224   5.309  1.00  0.00     0.055 C 
HETATM    8  C   UNL     1      41.590 -11.047   4.372  1.00  0.00     0.019 C 
HETATM    9  N   UNL     1      41.415 -10.070   3.595  1.00  0.00    -0.096 N 
HETATM   10  H   UNL     1      43.580 -13.020   7.905  1.00  0.00     0.166 HD
ENDROOT
BRANCH   1  11
HETATM   11  S   UNL     1      43.452 -10.579   6.742  1.00  0.00    -0.102 SA
BRANCH  11  12
HETATM   12  C   UNL     1      44.639 -11.204   7.986  1.00  0.00     0.184 C 
BRANCH  12  13
HETATM   13  C   UNL     1      45.661 -10.142   8.363  1.00  0.00     0.231 C 
HETATM   14  N   UNL     1      45.521  -9.431   9.533  1.00  0.00    -0.326 N 
HETATM   15  H   UNL     1      46.066  -8.577   9.471  1.00  0.00     0.169 HD
HETATM   16  O   UNL     1      46.630  -9.873   7.647  1.00  0.00    -0.272 OA
BRANCH  14  17
HETATM   17  C   UNL     1      44.388  -9.410  10.363  1.00  0.00     0.041 A 
HETATM   18  C   UNL     1      43.424  -8.385  10.333  1.00  0.00    -0.032 A 
HETATM   19  C   UNL     1      42.368  -8.435  11.263  1.00  0.00     0.009 A 
HETATM   20  C   UNL     1      42.251  -9.493  12.165  1.00  0.00     0.001 A 
HETATM   21  C   UNL     1      43.173 -10.534  12.137  1.00  0.00     0.002 A 
HETATM   22  C   UNL     1      44.230 -10.499  11.229  1.00  0.00     0.030 A 
BRANCH  18  23
HETATM   23  C   UNL     1      43.389  -7.294   9.285  1.00  0.00     0.036 C 
HETATM   24  C   UNL     1      42.931  -5.963   9.867  1.00  0.00     0.010 C 
ENDBRANCH  18  23
ENDBRANCH  14  17
ENDBRANCH  12  13
ENDBRANCH  11  12
ENDBRANCH   1  11
BRANCH   6  25
HETATM   25  C   UNL     1      41.199 -13.840   3.443  1.00  0.00    -0.044 A 
HETATM   26  C   UNL     1      39.986 -14.116   2.789  1.00  0.00     0.008 A 
HETATM   27  C   UNL     1      39.958 -14.344   1.414  1.00  0.00     0.001 A 
HETATM   28  C   UNL     1      41.136 -14.300   0.674  1.00  0.00     0.000 A 
HETATM   29  C   UNL     1      42.346 -14.025   1.308  1.00  0.00     0.001 A 
HETATM   30  C   UNL     1      42.380 -13.791   2.683  1.00  0.00     0.008 A 
ENDBRANCH   6  25
BRANCH   5  31
HETATM   31  C   UNL     1      41.800 -16.121   5.212  1.00  0.00     0.255 C 
HETATM   32  N   UNL     1      42.934 -16.491   4.533  1.00  0.00    -0.321 N 
HETATM   33  H   UNL     1      43.674 -15.810   4.403  1.00  0.00     0.169 HD
HETATM   34  O   UNL     1      40.772 -16.771   5.365  1.00  0.00    -0.268 OA
BRANCH  32  35
HETATM   35  C   UNL     1      43.185 -17.735   3.907  1.00  0.00     0.068 A 
HETATM   36  C   UNL     1      43.752 -18.754   4.700  1.00  0.00     0.095 A 
HETATM   37  C   UNL     1      44.023 -20.005   4.132  1.00  0.00     0.039 A 
HETATM   38  C   UNL     1      43.740 -20.243   2.786  1.00  0.00     0.003 A 
HETATM   39  C   UNL     1      43.181 -19.239   2.003  1.00  0.00     0.002 A 
HETATM   40  C   UNL     1      42.902 -17.990   2.562  1.00  0.00     0.032 A 
BRANCH  36  41
HETATM   41  O   UNL     1      43.997 -18.416   6.012  1.00  0.00    -0.354 OA
HETATM   42  C   UNL     1      43.352 -19.206   7.006  1.00  0.00     0.210 C 
ENDBRANCH  36  41
ENDBRANCH  32  35
ENDBRANCH   5  31
TORSDOF 9
ENDMDL
MODEL 2
REMARK VINA RESULT:      -9.4      1.956      2.491
REMARK  9 active torsions:
REMARK  status: ('A' for Active; 'I' for Inactive)
REMARK    1  A    between atoms: C_2  and  C_3 
REMARK    2  A    between atoms: C_4  and  N_5 
REMARK       I    between atoms: N_5  and  C_6 
REMARK    3  A    between atoms: C_6  and  C_7 
REMARK    4  A    between atoms: C_7  and  S_8 
REMARK    5  A    between atoms: S_8  and  C_9 
REMARK    6  A    between atoms: C_13  and  C_14 
REMARK       I    between atoms: C_14  and  N_15 
REMARK    7  A    between atoms: N_15  and  C_16 
REMARK    8  A    between atoms: C_17  and  O_18 
REMARK    9  A    between atoms: C_25  and  C_26 
ROOT
HETATM    1  C   UNL     1      40.892 -10.987   6.069  1.00  0.00     0.087 C 
HETATM    2  N   UNL     1      41.839 -11.805   6.657  1.00  0.00    -0.353 N 
HETATM    3  C   UNL     1      42.409 -12.897   6.028  1.00  0.00     0.019 C 
HETATM    4  C   UNL     1      43.680 -13.426   6.646  1.00  0.00     0.069 C 
HETATM    5  C   UNL     1      41.832 -13.388   4.909  1.00  0.00     0.046 C 
HETATM    6  C   UNL     1      40.543 -12.784   4.348  1.00  0.00     0.104 C 
HETATM    7  C   UNL     1      40.214 -11.422   4.975  1.00  0.00     0.055 C 
HETATM    8  C   UNL     1      39.229 -10.495   4.283  1.00  0.00     0.019 C 
HETATM    9  N   UNL     1      38.412  -9.726   3.708  1.00  0.00    -0.096 N 
HETATM   10  H   UNL     1      42.380 -11.355   7.393  1.00  0.00     0.166 HD
ENDROOT
BRANCH   1  11
HETATM   11  S   UNL     1      40.666  -9.368   6.725  1.00  0.00    -0.102 SA
BRANCH  11  12
HETATM   12  C   UNL     1      42.424  -8.909   6.943  1.00  0.00     0.184 C 
BRANCH  12  13
HETATM   13  C   UNL     1      42.566  -7.543   7.598  1.00  0.00     0.231 C 
HETATM   14  N   UNL     1      43.177  -7.425   8.825  1.00  0.00    -0.326 N 
HETATM   15  H   UNL     1      42.901  -6.546   9.251  1.00  0.00     0.169 HD
HETATM   16  O   UNL     1      42.139  -6.511   7.073  1.00  0.00    -0.272 OA
BRANCH  14  17
HETATM   17  C   UNL     1      43.516  -8.478   9.691  1.00  0.00     0.041 A 
HETATM   18  C   UNL     1      44.683  -9.250   9.552  1.00  0.00    -0.032 A 
HETATM   19  C   UNL     1      44.881 -10.327  10.438  1.00  0.00     0.009 A 
HETATM   20  C   UNL     1      43.967 -10.599  11.456  1.00  0.00     0.001 A 
HETATM   21  C   UNL     1      42.852  -9.785  11.624  1.00  0.00     0.002 A 
HETATM   22  C   UNL     1      42.636  -8.719  10.753  1.00  0.00     0.030 A 
BRANCH  18  23
HETATM   23  C   UNL     1      45.798  -8.923   8.582  1.00  0.00     0.036 C 
HETATM   24  C   UNL     1      46.164 -10.120   7.713  1.00  0.00     0.010 C 
ENDBRANCH  18  23
ENDBRANCH  14  17
ENDBRANCH  12  13
ENDBRANCH  11  12
ENDBRANCH   1  11
BRANCH   6  25
HETATM   25  C   UNL     1      40.521 -12.734   2.822  1.00  0.00    -0.044 A 
HETATM   26  C   UNL     1      39.809 -13.709   2.103  1.00  0.00     0.008 A 
HETATM   27  C   UNL     1      39.778 -13.681   0.708  1.00  0.00     0.001 A 
HETATM   28  C   UNL     1      40.456 -12.683   0.014  1.00  0.00     0.000 A 
HETATM   29  C   UNL     1      41.164 -11.708   0.714  1.00  0.00     0.001 A 
HETATM   30  C   UNL     1      41.195 -11.728   2.108  1.00  0.00     0.008 A 
ENDBRANCH   6  25
BRANCH   5  31
HETATM   31  C   UNL     1      42.575 -14.403   4.121  1.00  0.00     0.255 C 
HETATM   32  N   UNL     1      42.253 -15.695   4.455  1.00  0.00    -0.321 N 
HETATM   33  H   UNL     1      41.599 -15.858   5.213  1.00  0.00     0.169 HD
HETATM   34  O   UNL     1      43.419 -14.025   3.317  1.00  0.00    -0.268 OA
BRANCH  32  35
HETATM   35  C   UNL     1      42.791 -16.879   3.899  1.00  0.00     0.068 A 
HETATM   36  C   UNL     1      43.758 -17.569   4.660  1.00  0.00     0.095 A 
HETATM   37  C   UNL     1      44.325 -18.746   4.158  1.00  0.00     0.039 A 
HETATM   38  C   UNL     1      43.942 -19.236   2.908  1.00  0.00     0.003 A 
HETATM   39  C   UNL     1      42.988 -18.556   2.156  1.00  0.00     0.002 A 
HETATM   40  C   UNL     1      42.414 -17.384   2.651  1.00  0.00     0.032 A 
BRANCH  36  41
HETATM   41  O   UNL     1      44.069 -17.001   5.875  1.00  0.00    -0.354 OA
HETATM   42  C   UNL     1      43.506 -17.616   7.029  1.00  0.00     0.210 C 
ENDBRANCH  36  41
ENDBRANCH  32  35
ENDBRANCH   5  31
TORSDOF 9
ENDMDL
MODEL 3
REMARK VINA RESULT:      -9.3      2.224      2.984
REMARK  9 active torsions:
REMARK  status: ('A' for Active; 'I' for Inactive)
REMARK    1  A    between atoms: C_2  and  C_3 
REMARK    2  A    between atoms: C_4  and  N_5 
REMARK       I    between atoms: N_5  and  C_6 
REMARK    3  A    between atoms: C_6  and  C_7 
REMARK    4  A    between atoms: C_7  and  S_8 
REMARK    5  A    between atoms: S_8  and  C_9 
REMARK    6  A    between atoms: C_13  and  C_14 
REMARK       I    between atoms: C_14  and  N_15 
REMARK    7  A    between atoms: N_15  and  C_16 
REMARK    8  A    between atoms: C_17  and  O_18 
REMARK    9  A    between atoms: C_25  and  C_26 
ROOT
HETATM    1  C   UNL     1      40.547 -11.054   4.637  1.00  0.00     0.087 C 
HETATM    2  N   UNL     1      41.559 -11.646   5.372  1.00  0.00    -0.353 N 
HETATM    3  C   UNL     1      42.222 -12.796   4.981  1.00  0.00     0.019 C 
HETATM    4  C   UNL     1      43.530 -13.072   5.679  1.00  0.00     0.069 C 
HETATM    5  C   UNL     1      41.691 -13.561   4.001  1.00  0.00     0.046 C 
HETATM    6  C   UNL     1      40.358 -13.200   3.344  1.00  0.00     0.104 C 
HETATM    7  C   UNL     1      39.913 -11.767   3.672  1.00  0.00     0.055 C 
HETATM    8  C   UNL     1      38.855 -11.095   2.813  1.00  0.00     0.019 C 
HETATM    9  N   UNL     1      37.977 -10.537   2.100  1.00  0.00    -0.096 N 
HETATM   10  H   UNL     1      42.057 -11.006   5.987  1.00  0.00     0.166 HD
ENDROOT
BRANCH   1  11
HETATM   11  S   UNL     1      40.183  -9.357   4.938  1.00  0.00    -0.102 SA
BRANCH  11  12
HETATM   12  C   UNL     1      41.411  -9.039   6.256  1.00  0.00     0.184 C 
BRANCH  12  13
HETATM   13  C   UNL     1      40.943  -9.583   7.597  1.00  0.00     0.231 C 
HETATM   14  N   UNL     1      41.829  -9.703   8.643  1.00  0.00    -0.326 N 
HETATM   15  H   UNL     1      41.459 -10.362   9.320  1.00  0.00     0.169 HD
HETATM   16  O   UNL     1      39.778  -9.942   7.795  1.00  0.00    -0.272 OA
BRANCH  14  17
HETATM   17  C   UNL     1      43.227  -9.579   8.568  1.00  0.00     0.041 A 
HETATM   18  C   UNL     1      43.906  -8.358   8.723  1.00  0.00    -0.032 A 
HETATM   19  C   UNL     1      45.304  -8.345   8.555  1.00  0.00     0.009 A 
HETATM   20  C   UNL     1      46.008  -9.519   8.283  1.00  0.00     0.001 A 
HETATM   21  C   UNL     1      45.331 -10.731   8.199  1.00  0.00     0.002 A 
HETATM   22  C   UNL     1      43.946 -10.762   8.356  1.00  0.00     0.030 A 
BRANCH  18  23
HETATM   23  C   UNL     1      43.240  -7.076   9.176  1.00  0.00     0.036 C 
HETATM   24  C   UNL     1      42.877  -7.117  10.655  1.00  0.00     0.010 C 
ENDBRANCH  18  23
ENDBRANCH  14  17
ENDBRANCH  12  13
ENDBRANCH  11  12
ENDBRANCH   1  11
BRANCH   6  25
HETATM   25  C   UNL     1      40.337 -13.478   1.842  1.00  0.00    -0.044 A 
HETATM   26  C   UNL     1      40.852 -12.523   0.949  1.00  0.00     0.008 A 
HETATM   27  C   UNL     1      40.840 -12.759  -0.426  1.00  0.00     0.001 A 
HETATM   28  C   UNL     1      40.315 -13.947  -0.927  1.00  0.00     0.000 A 
HETATM   29  C   UNL     1      39.804 -14.905  -0.053  1.00  0.00     0.001 A 
HETATM   30  C   UNL     1      39.817 -14.677   1.323  1.00  0.00     0.008 A 
ENDBRANCH   6  25
BRANCH   5  31
HETATM   31  C   UNL     1      42.520 -14.655   3.436  1.00  0.00     0.255 C 
HETATM   32  N   UNL     1      42.202 -15.892   3.934  1.00  0.00    -0.321 N 
HETATM   33  H   UNL     1      41.491 -15.965   4.654  1.00  0.00     0.169 HD
HETATM   34  O   UNL     1      43.420 -14.370   2.653  1.00  0.00    -0.268 OA
BRANCH  32  35
HETATM   35  C   UNL     1      42.811 -17.127   3.606  1.00  0.00     0.068 A 
HETATM   36  C   UNL     1      43.713 -17.670   4.545  1.00  0.00     0.095 A 
HETATM   37  C   UNL     1      44.347 -18.889   4.272  1.00  0.00     0.039 A 
HETATM   38  C   UNL     1      44.092 -19.563   3.077  1.00  0.00     0.003 A 
HETATM   39  C   UNL     1      43.201 -19.029   2.151  1.00  0.00     0.002 A 
HETATM   40  C   UNL     1      42.561 -17.816   2.416  1.00  0.00     0.032 A 
BRANCH  36  41
HETATM   41  O   UNL     1      43.899 -16.925   5.687  1.00  0.00    -0.354 OA
HETATM   42  C   UNL     1      43.436 -17.500   6.905  1.00  0.00     0.210 C 
ENDBRANCH  36  41
ENDBRANCH  32  35
ENDBRANCH   5  31
TORSDOF 9
ENDMDL
MODEL 4
REMARK VINA RESULT:      -9.1      3.786      8.356
REMARK  9 active torsions:
REMARK  status: ('A' for Active; 'I' for Inactive)
REMARK    1  A    between atoms: C_2  and  C_3 
REMARK    2  A    between atoms: C_4  and  N_5 
REMARK       I    between atoms: N_5  and  C_6 
REMARK    3  A    between atoms: C_6  and  C_7 
REMARK    4  A    between atoms: C_7  and  S_8 
REMARK    5  A    between atoms: S_8  and  C_9 
REMARK    6  A    between atoms: C_13  and  C_14 
REMARK       I    between atoms: C_14  and  N_15 
REMARK    7  A    between atoms: N_15  and  C_16 
REMARK    8  A    between atoms: C_17  and  O_18 
REMARK    9  A    between atoms: C_25  and  C_26 
ROOT
HETATM    1  C   UNL     1      39.490 -11.705   1.898  1.00  0.00     0.087 C 
HETATM    2  N   UNL     1      39.477 -12.900   1.201  1.00  0.00    -0.353 N 
HETATM    3  C   UNL     1      40.462 -13.865   1.310  1.00  0.00     0.019 C 
HETATM    4  C   UNL     1      40.100 -15.238   0.801  1.00  0.00     0.069 C 
HETATM    5  C   UNL     1      41.643 -13.538   1.881  1.00  0.00     0.046 C 
HETATM    6  C   UNL     1      41.922 -12.118   2.374  1.00  0.00     0.104 C 
HETATM    7  C   UNL     1      40.647 -11.265   2.454  1.00  0.00     0.055 C 
HETATM    8  C   UNL     1      40.646  -9.992   3.284  1.00  0.00     0.019 C 
HETATM    9  N   UNL     1      40.646  -8.936   3.973  1.00  0.00    -0.096 N 
HETATM   10  H   UNL     1      38.548 -13.211   0.923  1.00  0.00     0.166 HD
ENDROOT
BRANCH   1  11
HETATM   11  S   UNL     1      37.968 -10.843   2.102  1.00  0.00    -0.102 SA
BRANCH  11  12
HETATM   12  C   UNL     1      37.121 -11.411   0.582  1.00  0.00     0.184 C 
BRANCH  12  13
HETATM   13  C   UNL     1      37.189 -10.362  -0.518  1.00  0.00     0.231 C 
HETATM   14  N   UNL     1      37.738 -10.677  -1.740  1.00  0.00    -0.326 N 
HETATM   15  H   UNL     1      38.001  -9.821  -2.217  1.00  0.00     0.169 HD
HETATM   16  O   UNL     1      36.775  -9.210  -0.360  1.00  0.00    -0.272 OA
BRANCH  14  17
HETATM   17  C   UNL     1      38.470 -11.835  -2.050  1.00  0.00     0.041 A 
HETATM   18  C   UNL     1      39.875 -11.892  -2.030  1.00  0.00    -0.032 A 
HETATM   19  C   UNL     1      40.500 -13.089  -2.430  1.00  0.00     0.009 A 
HETATM   20  C   UNL     1      39.749 -14.206  -2.797  1.00  0.00     0.001 A 
HETATM   21  C   UNL     1      38.361 -14.157  -2.747  1.00  0.00     0.002 A 
HETATM   22  C   UNL     1      37.723 -12.979  -2.360  1.00  0.00     0.030 A 
BRANCH  18  23
HETATM   23  C   UNL     1      40.755 -10.783  -1.493  1.00  0.00     0.036 C 
HETATM   24  C   UNL     1      41.083  -9.751  -2.564  1.00  0.00     0.010 C 
ENDBRANCH  18  23
ENDBRANCH  14  17
ENDBRANCH  12  13
ENDBRANCH  11  12
ENDBRANCH   1  11
BRANCH   6  25
HETATM   25  C   UNL     1      42.719 -12.083   3.677  1.00  0.00    -0.044 A 
HETATM   26  C   UNL     1      42.125 -12.532   4.869  1.00  0.00     0.008 A 
HETATM   27  C   UNL     1      42.836 -12.506   6.069  1.00  0.00     0.001 A 
HETATM   28  C   UNL     1      44.146 -12.034   6.095  1.00  0.00     0.000 A 
HETATM   29  C   UNL     1      44.748 -11.588   4.920  1.00  0.00     0.001 A 
HETATM   30  C   UNL     1      44.044 -11.615   3.717  1.00  0.00     0.008 A 
ENDBRANCH   6  25
BRANCH   5  31
HETATM   31  C   UNL     1      42.597 -14.630   2.199  1.00  0.00     0.255 C 
HETATM   32  N   UNL     1      42.076 -15.580   3.040  1.00  0.00    -0.321 N 
HETATM   33  H   UNL     1      41.140 -15.452   3.407  1.00  0.00     0.169 HD
HETATM   34  O   UNL     1      43.738 -14.566   1.754  1.00  0.00    -0.268 OA
BRANCH  32  35
HETATM   35  C   UNL     1      42.731 -16.733   3.535  1.00  0.00     0.068 A 
HETATM   36  C   UNL     1      42.868 -16.846   4.935  1.00  0.00     0.095 A 
HETATM   37  C   UNL     1      43.509 -17.964   5.481  1.00  0.00     0.039 A 
HETATM   38  C   UNL     1      44.016 -18.962   4.647  1.00  0.00     0.003 A 
HETATM   39  C   UNL     1      43.881 -18.852   3.266  1.00  0.00     0.002 A 
HETATM   40  C   UNL     1      43.239 -17.742   2.713  1.00  0.00     0.032 A 
BRANCH  36  41
HETATM   41  O   UNL     1      42.339 -15.807   5.667  1.00  0.00    -0.354 OA
HETATM   42  C   UNL     1      42.008 -16.086   7.023  1.00  0.00     0.210 C 
ENDBRANCH  36  41
ENDBRANCH  32  35
ENDBRANCH   5  31
TORSDOF 9
ENDMDL
MODEL 5
REMARK VINA RESULT:      -8.7      2.464      2.879
REMARK  9 active torsions:
REMARK  status: ('A' for Active; 'I' for Inactive)
REMARK    1  A    between atoms: C_2  and  C_3 
REMARK    2  A    between atoms: C_4  and  N_5 
REMARK       I    between atoms: N_5  and  C_6 
REMARK    3  A    between atoms: C_6  and  C_7 
REMARK    4  A    between atoms: C_7  and  S_8 
REMARK    5  A    between atoms: S_8  and  C_9 
REMARK    6  A    between atoms: C_13  and  C_14 
REMARK       I    between atoms: C_14  and  N_15 
REMARK    7  A    between atoms: N_15  and  C_16 
REMARK    8  A    between atoms: C_17  and  O_18 
REMARK    9  A    between atoms: C_25  and  C_26 
ROOT
HETATM    1  C   UNL     1      40.693 -10.740   5.903  1.00  0.00     0.087 C 
HETATM    2  N   UNL     1      41.631 -11.507   6.571  1.00  0.00    -0.353 N 
HETATM    3  C   UNL     1      42.247 -12.618   6.023  1.00  0.00     0.019 C 
HETATM    4  C   UNL     1      43.501 -13.087   6.718  1.00  0.00     0.069 C 
HETATM    5  C   UNL     1      41.724 -13.178   4.909  1.00  0.00     0.046 C 
HETATM    6  C   UNL     1      40.448 -12.631   4.268  1.00  0.00     0.104 C 
HETATM    7  C   UNL     1      40.069 -11.245   4.809  1.00  0.00     0.055 C 
HETATM    8  C   UNL     1      39.095 -10.377   4.030  1.00  0.00     0.019 C 
HETATM    9  N   UNL     1      38.287  -9.656   3.384  1.00  0.00    -0.096 N 
HETATM   10  H   UNL     1      42.133 -11.008   7.302  1.00  0.00     0.166 HD
ENDROOT
BRANCH   1  11
HETATM   11  S   UNL     1      40.410  -9.095   6.464  1.00  0.00    -0.102 SA
BRANCH  11  12
HETATM   12  C   UNL     1      40.936  -9.301   8.205  1.00  0.00     0.184 C 
BRANCH  12  13
HETATM   13  C   UNL     1      39.741  -9.492   9.128  1.00  0.00     0.231 C 
HETATM   14  N   UNL     1      39.825  -9.126  10.452  1.00  0.00    -0.326 N 
HETATM   15  H   UNL     1      39.102  -9.606  10.977  1.00  0.00     0.169 HD
HETATM   16  O   UNL     1      38.677  -9.982   8.740  1.00  0.00    -0.272 OA
BRANCH  14  17
HETATM   17  C   UNL     1      40.996  -8.776  11.146  1.00  0.00     0.041 A 
HETATM   18  C   UNL     1      41.468  -7.456  11.253  1.00  0.00    -0.032 A 
HETATM   19  C   UNL     1      42.693  -7.236  11.914  1.00  0.00     0.009 A 
HETATM   20  C   UNL     1      43.402  -8.293  12.486  1.00  0.00     0.001 A 
HETATM   21  C   UNL     1      42.889  -9.584  12.431  1.00  0.00     0.002 A 
HETATM   22  C   UNL     1      41.682  -9.822  11.776  1.00  0.00     0.030 A 
BRANCH  18  23
HETATM   23  C   UNL     1      40.683  -6.242  10.805  1.00  0.00     0.036 C 
HETATM   24  C   UNL     1      41.577  -5.021  10.631  1.00  0.00     0.010 C 
ENDBRANCH  18  23
ENDBRANCH  14  17
ENDBRANCH  12  13
ENDBRANCH  11  12
ENDBRANCH   1  11
BRANCH   6  25
HETATM   25  C   UNL     1      40.487 -12.661   2.741  1.00  0.00    -0.044 A 
HETATM   26  C   UNL     1      39.799 -13.671   2.046  1.00  0.00     0.008 A 
HETATM   27  C   UNL     1      39.824 -13.716   0.652  1.00  0.00     0.001 A 
HETATM   28  C   UNL     1      40.533 -12.756  -0.065  1.00  0.00     0.000 A 
HETATM   29  C   UNL     1      41.217 -11.748   0.610  1.00  0.00     0.001 A 
HETATM   30  C   UNL     1      41.193 -11.695   2.004  1.00  0.00     0.008 A 
ENDBRANCH   6  25
BRANCH   5  31
HETATM   31  C   UNL     1      42.518 -14.217   4.206  1.00  0.00     0.255 C 
HETATM   32  N   UNL     1      42.097 -15.496   4.471  1.00  0.00    -0.321 N 
HETATM   33  H   UNL     1      41.343 -15.638   5.134  1.00  0.00     0.169 HD
HETATM   34  O   UNL     1      43.476 -13.869   3.526  1.00  0.00    -0.268 OA
BRANCH  32  35
HETATM   35  C   UNL     1      42.649 -16.697   3.967  1.00  0.00     0.068 A 
HETATM   36  C   UNL     1      43.428 -17.471   4.853  1.00  0.00     0.095 A 
HETATM   37  C   UNL     1      44.000 -18.669   4.408  1.00  0.00     0.039 A 
HETATM   38  C   UNL     1      43.807 -19.096   3.093  1.00  0.00     0.003 A 
HETATM   39  C   UNL     1      43.039 -18.334   2.219  1.00  0.00     0.002 A 
HETATM   40  C   UNL     1      42.460 -17.140   2.655  1.00  0.00     0.032 A 
BRANCH  36  41
HETATM   41  O   UNL     1      43.561 -16.960   6.125  1.00  0.00    -0.354 OA
HETATM   42  C   UNL     1      44.839 -16.438   6.471  1.00  0.00     0.210 C 
ENDBRANCH  36  41
ENDBRANCH  32  35
ENDBRANCH   5  31
TORSDOF 9
ENDMDL
MODEL 6
REMARK VINA RESULT:      -8.7      4.491      9.281
REMARK  9 active torsions:
REMARK  status: ('A' for Active; 'I' for Inactive)
REMARK    1  A    between atoms: C_2  and  C_3 
REMARK    2  A    between atoms: C_4  and  N_5 
REMARK       I    between atoms: N_5  and  C_6 
REMARK    3  A    between atoms: C_6  and  C_7 
REMARK    4  A    between atoms: C_7  and  S_8 
REMARK    5  A    between atoms: S_8  and  C_9 
REMARK    6  A    between atoms: C_13  and  C_14 
REMARK       I    between atoms: C_14  and  N_15 
REMARK    7  A    between atoms: N_15  and  C_16 
REMARK    8  A    between atoms: C_17  and  O_18 
REMARK    9  A    between atoms: C_25  and  C_26 
ROOT
HETATM    1  C   UNL     1      40.066 -14.667   3.031  1.00  0.00     0.087 C 
HETATM    2  N   UNL     1      39.865 -14.779   1.667  1.00  0.00    -0.353 N 
HETATM    3  C   UNL     1      39.710 -13.695   0.821  1.00  0.00     0.019 C 
HETATM    4  C   UNL     1      39.896 -13.975  -0.650  1.00  0.00     0.069 C 
HETATM    5  C   UNL     1      39.444 -12.480   1.350  1.00  0.00     0.046 C 
HETATM    6  C   UNL     1      39.277 -12.288   2.857  1.00  0.00     0.104 C 
HETATM    7  C   UNL     1      39.768 -13.502   3.660  1.00  0.00     0.055 C 
HETATM    8  C   UNL     1      40.060 -13.352   5.144  1.00  0.00     0.019 C 
HETATM    9  N   UNL     1      40.302 -13.227   6.375  1.00  0.00    -0.096 N 
HETATM   10  H   UNL     1      40.226 -15.640   1.261  1.00  0.00     0.166 HD
ENDROOT
BRANCH   1  11
HETATM   11  S   UNL     1      40.786 -16.031   3.882  1.00  0.00    -0.102 SA
BRANCH  11  12
HETATM   12  C   UNL     1      41.481 -16.921   2.442  1.00  0.00     0.184 C 
BRANCH  12  13
HETATM   13  C   UNL     1      42.900 -16.464   2.137  1.00  0.00     0.231 C 
HETATM   14  N   UNL     1      43.968 -17.282   2.429  1.00  0.00    -0.326 N 
HETATM   15  H   UNL     1      44.813 -16.722   2.477  1.00  0.00     0.169 HD
HETATM   16  O   UNL     1      43.148 -15.362   1.638  1.00  0.00    -0.272 OA
BRANCH  14  17
HETATM   17  C   UNL     1      43.931 -18.454   3.202  1.00  0.00     0.041 A 
HETATM   18  C   UNL     1      44.075 -18.464   4.601  1.00  0.00    -0.032 A 
HETATM   19  C   UNL     1      44.092 -19.708   5.261  1.00  0.00     0.009 A 
HETATM   20  C   UNL     1      43.929 -20.901   4.555  1.00  0.00     0.001 A 
HETATM   21  C   UNL     1      43.719 -20.871   3.182  1.00  0.00     0.002 A 
HETATM   22  C   UNL     1      43.705 -19.650   2.509  1.00  0.00     0.030 A 
BRANCH  18  23
HETATM   23  C   UNL     1      44.095 -17.215   5.454  1.00  0.00     0.036 C 
HETATM   24  C   UNL     1      43.203 -17.351   6.681  1.00  0.00     0.010 C 
ENDBRANCH  18  23
ENDBRANCH  14  17
ENDBRANCH  12  13
ENDBRANCH  11  12
ENDBRANCH   1  11
BRANCH   6  25
HETATM   25  C   UNL     1      39.882 -10.981   3.365  1.00  0.00    -0.044 A 
HETATM   26  C   UNL     1      41.278 -10.852   3.465  1.00  0.00     0.008 A 
HETATM   27  C   UNL     1      41.850  -9.666   3.928  1.00  0.00     0.001 A 
HETATM   28  C   UNL     1      41.038  -8.596   4.295  1.00  0.00     0.000 A 
HETATM   29  C   UNL     1      39.653  -8.708   4.197  1.00  0.00     0.001 A 
HETATM   30  C   UNL     1      39.076  -9.890   3.731  1.00  0.00     0.008 A 
ENDBRANCH   6  25
BRANCH   5  31
HETATM   31  C   UNL     1      39.509 -11.295   0.457  1.00  0.00     0.255 C 
HETATM   32  N   UNL     1      40.785 -10.974   0.071  1.00  0.00    -0.321 N 
HETATM   33  H   UNL     1      41.561 -11.511   0.442  1.00  0.00     0.169 HD
HETATM   34  O   UNL     1      38.473 -10.692   0.200  1.00  0.00    -0.268 OA
BRANCH  32  35
HETATM   35  C   UNL     1      41.180  -9.901  -0.763  1.00  0.00     0.068 A 
HETATM   36  C   UNL     1      40.960 -10.045  -2.149  1.00  0.00     0.095 A 
HETATM   37  C   UNL     1      41.332  -9.015  -3.021  1.00  0.00     0.039 A 
HETATM   38  C   UNL     1      41.922  -7.851  -2.525  1.00  0.00     0.003 A 
HETATM   39  C   UNL     1      42.139  -7.707  -1.158  1.00  0.00     0.002 A 
HETATM   40  C   UNL     1      41.767  -8.727  -0.280  1.00  0.00     0.032 A 
BRANCH  36  41
HETATM   41  O   UNL     1      40.378 -11.231  -2.535  1.00  0.00    -0.354 OA
HETATM   42  C   UNL     1      41.199 -12.137  -3.264  1.00  0.00     0.210 C 
ENDBRANCH  36  41
ENDBRANCH  32  35
ENDBRANCH   5  31
TORSDOF 9
ENDMDL
MODEL 7
REMARK VINA RESULT:      -8.4      2.601      9.752
REMARK  9 active torsions:
REMARK  status: ('A' for Active; 'I' for Inactive)
REMARK    1  A    between atoms: C_2  and  C_3 
REMARK    2  A    between atoms: C_4  and  N_5 
REMARK       I    between atoms: N_5  and  C_6 
REMARK    3  A    between atoms: C_6  and  C_7 
REMARK    4  A    between atoms: C_7  and  S_8 
REMARK    5  A    between atoms: S_8  and  C_9 
REMARK    6  A    between atoms: C_13  and  C_14 
REMARK       I    between atoms: C_14  and  N_15 
REMARK    7  A    between atoms: N_15  and  C_16 
REMARK    8  A    between atoms: C_17  and  O_18 
REMARK    9  A    between atoms: C_25  and  C_26 
ROOT
HETATM    1  C   UNL     1      41.590 -10.883   5.483  1.00  0.00     0.087 C 
HETATM    2  N   UNL     1      42.741 -11.151   6.201  1.00  0.00    -0.353 N 
HETATM    3  C   UNL     1      43.241 -10.323   7.191  1.00  0.00     0.019 C 
HETATM    4  C   UNL     1      44.253 -10.944   8.121  1.00  0.00     0.069 C 
HETATM    5  C   UNL     1      42.780  -9.056   7.284  1.00  0.00     0.046 C 
HETATM    6  C   UNL     1      41.746  -8.511   6.296  1.00  0.00     0.104 C 
HETATM    7  C   UNL     1      41.086  -9.623   5.467  1.00  0.00     0.055 C 
HETATM    8  C   UNL     1      39.780  -9.343   4.742  1.00  0.00     0.019 C 
HETATM    9  N   UNL     1      38.697  -9.111   4.141  1.00  0.00    -0.096 N 
HETATM   10  H   UNL     1      42.978 -12.139   6.256  1.00  0.00     0.166 HD
ENDROOT
BRANCH   1  11
HETATM   11  S   UNL     1      40.777 -12.224   4.682  1.00  0.00    -0.102 SA
BRANCH  11  12
HETATM   12  C   UNL     1      41.695 -13.606   5.453  1.00  0.00     0.184 C 
BRANCH  12  13
HETATM   13  C   UNL     1      40.751 -14.666   6.002  1.00  0.00     0.231 C 
HETATM   14  N   UNL     1      40.902 -15.984   5.636  1.00  0.00    -0.326 N 
HETATM   15  H   UNL     1      40.034 -16.479   5.809  1.00  0.00     0.169 HD
HETATM   16  O   UNL     1      39.824 -14.391   6.770  1.00  0.00    -0.272 OA
BRANCH  14  17
HETATM   17  C   UNL     1      41.725 -16.472   4.608  1.00  0.00     0.041 A 
HETATM   18  C   UNL     1      41.383 -16.409   3.245  1.00  0.00    -0.032 A 
HETATM   19  C   UNL     1      42.256 -16.997   2.310  1.00  0.00     0.009 A 
HETATM   20  C   UNL     1      43.452 -17.592   2.715  1.00  0.00     0.001 A 
HETATM   21  C   UNL     1      43.809 -17.587   4.058  1.00  0.00     0.002 A 
HETATM   22  C   UNL     1      42.955 -17.015   5.000  1.00  0.00     0.030 A 
BRANCH  18  23
HETATM   23  C   UNL     1      40.191 -15.644   2.712  1.00  0.00     0.036 C 
HETATM   24  C   UNL     1      39.825 -16.078   1.298  1.00  0.00     0.010 C 
ENDBRANCH  18  23
ENDBRANCH  14  17
ENDBRANCH  12  13
ENDBRANCH  11  12
ENDBRANCH   1  11
BRANCH   6  25
HETATM   25  C   UNL     1      40.715  -7.596   6.954  1.00  0.00    -0.044 A 
HETATM   26  C   UNL     1      40.789  -6.207   6.756  1.00  0.00     0.008 A 
HETATM   27  C   UNL     1      39.858  -5.355   7.350  1.00  0.00     0.001 A 
HETATM   28  C   UNL     1      38.843  -5.876   8.147  1.00  0.00     0.000 A 
HETATM   29  C   UNL     1      38.755  -7.252   8.350  1.00  0.00     0.001 A 
HETATM   30  C   UNL     1      39.681  -8.109   7.756  1.00  0.00     0.008 A 
ENDBRANCH   6  25
BRANCH   5  31
HETATM   31  C   UNL     1      43.149  -8.259   8.480  1.00  0.00     0.255 C 
HETATM   32  N   UNL     1      42.383  -8.544   9.582  1.00  0.00    -0.321 N 
HETATM   33  H   UNL     1      41.624  -9.210   9.494  1.00  0.00     0.169 HD
HETATM   34  O   UNL     1      44.026  -7.408   8.376  1.00  0.00    -0.268 OA
BRANCH  32  35
HETATM   35  C   UNL     1      42.479  -7.952  10.864  1.00  0.00     0.068 A 
HETATM   36  C   UNL     1      43.081  -8.716  11.885  1.00  0.00     0.095 A 
HETATM   37  C   UNL     1      43.201  -8.181  13.173  1.00  0.00     0.039 A 
HETATM   38  C   UNL     1      42.723  -6.898  13.450  1.00  0.00     0.003 A 
HETATM   39  C   UNL     1      42.129  -6.143  12.443  1.00  0.00     0.002 A 
HETATM   40  C   UNL     1      42.010  -6.667  11.154  1.00  0.00     0.032 A 
BRANCH  36  41
HETATM   41  O   UNL     1      43.514  -9.968  11.510  1.00  0.00    -0.354 OA
HETATM   42  C   UNL     1      43.199 -11.041  12.390  1.00  0.00     0.210 C 
ENDBRANCH  36  41
ENDBRANCH  32  35
ENDBRANCH   5  31
TORSDOF 9
ENDMDL
MODEL 8
REMARK VINA RESULT:      -8.4      2.371      3.433
REMARK  9 active torsions:
REMARK  status: ('A' for Active; 'I' for Inactive)
REMARK    1  A    between atoms: C_2  and  C_3 
REMARK    2  A    between atoms: C_4  and  N_5 
REMARK       I    between atoms: N_5  and  C_6 
REMARK    3  A    between atoms: C_6  and  C_7 
REMARK    4  A    between atoms: C_7  and  S_8 
REMARK    5  A    between atoms: S_8  and  C_9 
REMARK    6  A    between atoms: C_13  and  C_14 
REMARK       I    between atoms: C_14  and  N_15 
REMARK    7  A    between atoms: N_15  and  C_16 
REMARK    8  A    between atoms: C_17  and  O_18 
REMARK    9  A    between atoms: C_25  and  C_26 
ROOT
HETATM    1  C   UNL     1      41.850 -10.064   7.269  1.00  0.00     0.087 C 
HETATM    2  N   UNL     1      42.964 -10.864   7.451  1.00  0.00    -0.353 N 
HETATM    3  C   UNL     1      43.300 -11.917   6.619  1.00  0.00     0.019 C 
HETATM    4  C   UNL     1      44.720 -12.416   6.727  1.00  0.00     0.069 C 
HETATM    5  C   UNL     1      42.374 -12.398   5.760  1.00  0.00     0.046 C 
HETATM    6  C   UNL     1      40.957 -11.826   5.716  1.00  0.00     0.104 C 
HETATM    7  C   UNL     1      40.839 -10.494   6.471  1.00  0.00     0.055 C 
HETATM    8  C   UNL     1      39.650  -9.585   6.209  1.00  0.00     0.019 C 
HETATM    9  N   UNL     1      38.663  -8.831   5.991  1.00  0.00    -0.096 N 
HETATM   10  H   UNL     1      43.720 -10.415   7.964  1.00  0.00     0.166 HD
ENDROOT
BRANCH   1  11
HETATM   11  S   UNL     1      41.833  -8.474   8.024  1.00  0.00    -0.102 SA
BRANCH  11  12
HETATM   12  C   UNL     1      41.603  -8.995   9.764  1.00  0.00     0.184 C 
BRANCH  12  13
HETATM   13  C   UNL     1      42.921  -8.990  10.525  1.00  0.00     0.231 C 
HETATM   14  N   UNL     1      43.014  -8.354  11.742  1.00  0.00    -0.326 N 
HETATM   15  H   UNL     1      43.990  -8.162  11.944  1.00  0.00     0.169 HD
HETATM   16  O   UNL     1      43.939  -9.533  10.088  1.00  0.00    -0.272 OA
BRANCH  14  17
HETATM   17  C   UNL     1      42.061  -7.487  12.302  1.00  0.00     0.041 A 
HETATM   18  C   UNL     1      41.069  -7.907  13.207  1.00  0.00    -0.032 A 
HETATM   19  C   UNL     1      40.124  -6.960  13.647  1.00  0.00     0.009 A 
HETATM   20  C   UNL     1      40.190  -5.629  13.233  1.00  0.00     0.001 A 
HETATM   21  C   UNL     1      41.217  -5.214  12.393  1.00  0.00     0.002 A 
HETATM   22  C   UNL     1      42.158  -6.138  11.941  1.00  0.00     0.030 A 
BRANCH  18  23
HETATM   23  C   UNL     1      41.025  -9.286  13.828  1.00  0.00     0.036 C 
HETATM   24  C   UNL     1      40.059 -10.208  13.095  1.00  0.00     0.010 C 
ENDBRANCH  18  23
ENDBRANCH  14  17
ENDBRANCH  12  13
ENDBRANCH  11  12
ENDBRANCH   1  11
BRANCH   6  25
HETATM   25  C   UNL     1      40.392 -11.736   4.300  1.00  0.00    -0.044 A 
HETATM   26  C   UNL     1      40.841 -10.724   3.434  1.00  0.00     0.008 A 
HETATM   27  C   UNL     1      40.336 -10.624   2.137  1.00  0.00     0.001 A 
HETATM   28  C   UNL     1      39.379 -11.530   1.688  1.00  0.00     0.000 A 
HETATM   29  C   UNL     1      38.926 -12.540   2.535  1.00  0.00     0.001 A 
HETATM   30  C   UNL     1      39.431 -12.647   3.831  1.00  0.00     0.008 A 
ENDBRANCH   6  25
BRANCH   5  31
HETATM   31  C   UNL     1      42.813 -13.364   4.721  1.00  0.00     0.255 C 
HETATM   32  N   UNL     1      42.519 -14.667   5.031  1.00  0.00    -0.321 N 
HETATM   33  H   UNL     1      42.088 -14.875   5.925  1.00  0.00     0.169 HD
HETATM   34  O   UNL     1      43.427 -12.945   3.747  1.00  0.00    -0.268 OA
BRANCH  32  35
HETATM   35  C   UNL     1      42.814 -15.815   4.258  1.00  0.00     0.068 A 
HETATM   36  C   UNL     1      43.696 -16.762   4.819  1.00  0.00     0.095 A 
HETATM   37  C   UNL     1      44.025 -17.916   4.098  1.00  0.00     0.039 A 
HETATM   38  C   UNL     1      43.487 -18.130   2.828  1.00  0.00     0.003 A 
HETATM   39  C   UNL     1      42.615 -17.198   2.274  1.00  0.00     0.002 A 
HETATM   40  C   UNL     1      42.278 -16.046   2.987  1.00  0.00     0.032 A 
BRANCH  36  41
HETATM   41  O   UNL     1      44.175 -16.455   6.073  1.00  0.00    -0.354 OA
HETATM   42  C   UNL     1      43.674 -17.231   7.155  1.00  0.00     0.210 C 
ENDBRANCH  36  41
ENDBRANCH  32  35
ENDBRANCH   5  31
TORSDOF 9
ENDMDL
MODEL 9
REMARK VINA RESULT:      -8.2      2.771      9.640
REMARK  9 active torsions:
REMARK  status: ('A' for Active; 'I' for Inactive)
REMARK    1  A    between atoms: C_2  and  C_3 
REMARK    2  A    between atoms: C_4  and  N_5 
REMARK       I    between atoms: N_5  and  C_6 
REMARK    3  A    between atoms: C_6  and  C_7 
REMARK    4  A    between atoms: C_7  and  S_8 
REMARK    5  A    between atoms: S_8  and  C_9 
REMARK    6  A    between atoms: C_13  and  C_14 
REMARK       I    between atoms: C_14  and  N_15 
REMARK    7  A    between atoms: N_15  and  C_16 
REMARK    8  A    between atoms: C_17  and  O_18 
REMARK    9  A    between atoms: C_25  and  C_26 
ROOT
HETATM    1  C   UNL     1      42.229 -11.139   4.975  1.00  0.00     0.087 C 
HETATM    2  N   UNL     1      40.961 -10.587   5.006  1.00  0.00    -0.353 N 
HETATM    3  C   UNL     1      40.479  -9.824   6.055  1.00  0.00     0.019 C 
HETATM    4  C   UNL     1      39.258  -8.990   5.758  1.00  0.00     0.069 C 
HETATM    5  C   UNL     1      41.133  -9.844   7.238  1.00  0.00     0.046 C 
HETATM    6  C   UNL     1      42.370 -10.718   7.448  1.00  0.00     0.104 C 
HETATM    7  C   UNL     1      42.938 -11.257   6.127  1.00  0.00     0.055 C 
HETATM    8  C   UNL     1      44.359 -11.793   6.083  1.00  0.00     0.019 C 
HETATM    9  N   UNL     1      45.539 -12.236   6.048  1.00  0.00    -0.096 N 
HETATM   10  H   UNL     1      40.553 -10.428   4.087  1.00  0.00     0.166 HD
ENDROOT
BRANCH   1  11
HETATM   11  S   UNL     1      42.902 -11.593   3.412  1.00  0.00    -0.102 SA
BRANCH  11  12
HETATM   12  C   UNL     1      42.790 -13.412   3.580  1.00  0.00     0.184 C 
BRANCH  12  13
HETATM   13  C   UNL     1      41.358 -13.900   3.411  1.00  0.00     0.231 C 
HETATM   14  N   UNL     1      41.051 -15.226   3.611  1.00  0.00    -0.326 N 
HETATM   15  H   UNL     1      40.171 -15.437   3.152  1.00  0.00     0.169 HD
HETATM   16  O   UNL     1      40.437 -13.146   3.084  1.00  0.00    -0.272 OA
BRANCH  14  17
HETATM   17  C   UNL     1      41.969 -16.280   3.752  1.00  0.00     0.041 A 
HETATM   18  C   UNL     1      42.452 -16.726   4.996  1.00  0.00    -0.032 A 
HETATM   19  C   UNL     1      43.425 -17.744   5.009  1.00  0.00     0.009 A 
HETATM   20  C   UNL     1      43.871 -18.329   3.823  1.00  0.00     0.001 A 
HETATM   21  C   UNL     1      43.334 -17.926   2.606  1.00  0.00     0.002 A 
HETATM   22  C   UNL     1      42.375 -16.915   2.572  1.00  0.00     0.030 A 
BRANCH  18  23
HETATM   23  C   UNL     1      41.905 -16.258   6.328  1.00  0.00     0.036 C 
HETATM   24  C   UNL     1      43.015 -15.834   7.280  1.00  0.00     0.010 C 
ENDBRANCH  18  23
ENDBRANCH  14  17
ENDBRANCH  12  13
ENDBRANCH  11  12
ENDBRANCH   1  11
BRANCH   6  25
HETATM   25  C   UNL     1      43.443 -10.042   8.300  1.00  0.00    -0.044 A 
HETATM   26  C   UNL     1      43.848 -10.633   9.509  1.00  0.00     0.008 A 
HETATM   27  C   UNL     1      44.825 -10.030  10.301  1.00  0.00     0.001 A 
HETATM   28  C   UNL     1      45.409  -8.832   9.899  1.00  0.00     0.000 A 
HETATM   29  C   UNL     1      45.018  -8.235   8.702  1.00  0.00     0.001 A 
HETATM   30  C   UNL     1      44.046  -8.836   7.903  1.00  0.00     0.008 A 
ENDBRANCH   6  25
BRANCH   5  31
HETATM   31  C   UNL     1      40.745  -8.853   8.272  1.00  0.00     0.255 C 
HETATM   32  N   UNL     1      40.134  -9.416   9.364  1.00  0.00    -0.321 N 
HETATM   33  H   UNL     1      39.955 -10.414   9.366  1.00  0.00     0.169 HD
HETATM   34  O   UNL     1      40.937  -7.662   8.052  1.00  0.00    -0.268 OA
BRANCH  32  35
HETATM   35  C   UNL     1      39.640  -8.744  10.507  1.00  0.00     0.068 A 
HETATM   36  C   UNL     1      40.213  -9.080  11.751  1.00  0.00     0.095 A 
HETATM   37  C   UNL     1      39.762  -8.447  12.916  1.00  0.00     0.039 A 
HETATM   38  C   UNL     1      38.747  -7.491  12.850  1.00  0.00     0.003 A 
HETATM   39  C   UNL     1      38.182  -7.158  11.623  1.00  0.00     0.002 A 
HETATM   40  C   UNL     1      38.628  -7.780  10.455  1.00  0.00     0.032 A 
BRANCH  36  41
HETATM   41  O   UNL     1      41.202 -10.037  11.708  1.00  0.00    -0.354 OA
HETATM   42  C   UNL     1      42.112 -10.063  12.802  1.00  0.00     0.210 C 
ENDBRANCH  36  41
ENDBRANCH  32  35
ENDBRANCH   5  31
TORSDOF 9
ENDMDL
MODEL 10
REMARK VINA RESULT:      -8.1      2.643      9.065
REMARK  9 active torsions:
REMARK  status: ('A' for Active; 'I' for Inactive)
REMARK    1  A    between atoms: C_2  and  C_3 
REMARK    2  A    between atoms: C_4  and  N_5 
REMARK       I    between atoms: N_5  and  C_6 
REMARK    3  A    between atoms: C_6  and  C_7 
REMARK    4  A    between atoms: C_7  and  S_8 
REMARK    5  A    between atoms: S_8  and  C_9 
REMARK    6  A    between atoms: C_13  and  C_14 
REMARK       I    between atoms: C_14  and  N_15 
REMARK    7  A    between atoms: N_15  and  C_16 
REMARK    8  A    between atoms: C_17  and  O_18 
REMARK    9  A    between atoms: C_25  and  C_26 
ROOT
HETATM    1  C   UNL     1      41.091 -11.652   4.513  1.00  0.00     0.087 C 
HETATM    2  N   UNL     1      42.110 -12.232   5.246  1.00  0.00    -0.353 N 
HETATM    3  C   UNL     1      42.761 -11.603   6.292  1.00  0.00     0.019 C 
HETATM    4  C   UNL     1      43.548 -12.500   7.215  1.00  0.00     0.069 C 
HETATM    5  C   UNL     1      42.627 -10.266   6.441  1.00  0.00     0.046 C 
HETATM    6  C   UNL     1      41.802  -9.435   5.458  1.00  0.00     0.104 C 
HETATM    7  C   UNL     1      40.919 -10.305   4.552  1.00  0.00     0.055 C 
HETATM    8  C   UNL     1      39.753  -9.674   3.809  1.00  0.00     0.019 C 
HETATM    9  N   UNL     1      38.787  -9.150   3.192  1.00  0.00    -0.096 N 
HETATM   10  H   UNL     1      42.090 -13.250   5.254  1.00  0.00     0.166 HD
ENDROOT
BRANCH   1  11
HETATM   11  S   UNL     1      40.001 -12.707   3.619  1.00  0.00    -0.102 SA
BRANCH  11  12
HETATM   12  C   UNL     1      41.165 -14.076   3.270  1.00  0.00     0.184 C 
BRANCH  12  13
HETATM   13  C   UNL     1      40.441 -15.410   3.167  1.00  0.00     0.231 C 
HETATM   14  N   UNL     1      40.785 -16.450   4.000  1.00  0.00    -0.326 N 
HETATM   15  H   UNL     1      40.460 -17.322   3.596  1.00  0.00     0.169 HD
HETATM   16  O   UNL     1      39.544 -15.614   2.344  1.00  0.00    -0.272 OA
BRANCH  14  17
HETATM   17  C   UNL     1      41.915 -16.511   4.832  1.00  0.00     0.041 A 
HETATM   18  C   UNL     1      43.171 -16.975   4.401  1.00  0.00    -0.032 A 
HETATM   19  C   UNL     1      44.212 -17.057   5.346  1.00  0.00     0.009 A 
HETATM   20  C   UNL     1      44.021 -16.650   6.667  1.00  0.00     0.001 A 
HETATM   21  C   UNL     1      42.794 -16.129   7.062  1.00  0.00     0.002 A 
HETATM   22  C   UNL     1      41.749 -16.046   6.143  1.00  0.00     0.030 A 
BRANCH  18  23
HETATM   23  C   UNL     1      43.504 -17.282   2.958  1.00  0.00     0.036 C 
HETATM   24  C   UNL     1      43.532 -18.781   2.688  1.00  0.00     0.010 C 
ENDBRANCH  18  23
ENDBRANCH  14  17
ENDBRANCH  12  13
ENDBRANCH  11  12
ENDBRANCH   1  11
BRANCH   6  25
HETATM   25  C   UNL     1      41.007  -8.321   6.137  1.00  0.00    -0.044 A 
HETATM   26  C   UNL     1      39.824  -8.632   6.830  1.00  0.00     0.008 A 
HETATM   27  C   UNL     1      39.084  -7.629   7.455  1.00  0.00     0.001 A 
HETATM   28  C   UNL     1      39.511  -6.305   7.397  1.00  0.00     0.000 A 
HETATM   29  C   UNL     1      40.683  -5.983   6.715  1.00  0.00     0.001 A 
HETATM   30  C   UNL     1      41.431  -6.982   6.092  1.00  0.00     0.008 A 
ENDBRANCH   6  25
BRANCH   5  31
HETATM   31  C   UNL     1      43.136  -9.643   7.689  1.00  0.00     0.255 C 
HETATM   32  N   UNL     1      42.348  -9.894   8.784  1.00  0.00    -0.321 N 
HETATM   33  H   UNL     1      41.490 -10.421   8.662  1.00  0.00     0.169 HD
HETATM   34  O   UNL     1      44.137  -8.938   7.631  1.00  0.00    -0.268 OA
BRANCH  32  35
HETATM   35  C   UNL     1      42.555  -9.436  10.106  1.00  0.00     0.068 A 
HETATM   36  C   UNL     1      41.409  -9.125  10.868  1.00  0.00     0.095 A 
HETATM   37  C   UNL     1      41.554  -8.666  12.183  1.00  0.00     0.039 A 
HETATM   38  C   UNL     1      42.825  -8.511  12.739  1.00  0.00     0.003 A 
HETATM   39  C   UNL     1      43.956  -8.819  11.989  1.00  0.00     0.002 A 
HETATM   40  C   UNL     1      43.821  -9.282  10.678  1.00  0.00     0.032 A 
BRANCH  36  41
HETATM   41  O   UNL     1      40.205  -9.306  10.226  1.00  0.00    -0.354 OA
HETATM   42  C   UNL     1      39.275 -10.184  10.851  1.00  0.00     0.210 C 
ENDBRANCH  36  41
ENDBRANCH  32  35
ENDBRANCH   5  31
TORSDOF 9
ENDMDL
