MODEL 1
REMARK VINA RESULT:      -8.1      0.000      0.000
REMARK  6 active torsions:
REMARK  status: ('A' for Active; 'I' for Inactive)
REMARK    1  A    between atoms: C_2  and  O_3 
REMARK    2  A    between atoms: O_3  and  C_4 
REMARK    3  A    between atoms: C_7  and  C_8 
REMARK    4  A    between atoms: C_8  and  N_9 
REMARK       I    between atoms: N_9  and  C_10 
REMARK    5  A    between atoms: C_10  and  C_11 
REMARK    6  A    between atoms: C_15  and  C_16 
ROOT
HETATM    1  N   UNL     1      42.266 -13.069   4.804  1.00  0.00    -0.347 N 
HETATM    2  C   UNL     1      42.862 -13.116   3.562  1.00  0.00     0.272 C 
HETATM    3  O   UNL     1      43.173 -12.116   2.920  1.00  0.00    -0.266 OA
HETATM    4  H   UNL     1      41.985 -13.966   5.187  1.00  0.00     0.163 HD
ENDROOT
BRANCH   2   5
HETATM    5  C   UNL     1      43.061 -14.477   3.046  1.00  0.00     0.146 A 
HETATM    6  N   UNL     1      43.305 -14.738   1.748  1.00  0.00    -0.169 NA
HETATM    7  N   UNL     1      43.481 -16.072   1.717  1.00  0.00    -0.277 N 
HETATM    8  H   UNL     1      43.709 -16.497   0.826  1.00  0.00     0.189 HD
HETATM    9  C   UNL     1      43.349 -16.701   2.931  1.00  0.00     0.063 A 
HETATM   10  C   UNL     1      43.069 -15.671   3.810  1.00  0.00     0.071 A 
BRANCH   9  11
HETATM   11  C   UNL     1      43.518 -18.142   3.150  1.00  0.00    -0.008 A 
HETATM   12  C   UNL     1      44.013 -18.613   4.378  1.00  0.00     0.014 A 
HETATM   13  C   UNL     1      44.188 -19.980   4.610  1.00  0.00     0.001 A 
HETATM   14  C   UNL     1      43.871 -20.902   3.618  1.00  0.00     0.000 A 
HETATM   15  C   UNL     1      43.377 -20.456   2.396  1.00  0.00     0.001 A 
HETATM   16  C   UNL     1      43.200 -19.086   2.163  1.00  0.00     0.014 A 
ENDBRANCH   9  11
ENDBRANCH   2   5
BRANCH   1  17
HETATM   17  C   UNL     1      41.726 -11.838   5.335  1.00  0.00     0.114 C 
HETATM   18  C   UNL     1      40.359 -12.084   5.983  1.00  0.00     0.037 C 
BRANCH  17  19
HETATM   19  C   UNL     1      42.699 -11.172   6.288  1.00  0.00    -0.036 A 
HETATM   20  C   UNL     1      42.452  -9.859   6.718  1.00  0.00     0.012 A 
HETATM   21  C   UNL     1      43.286  -9.245   7.655  1.00  0.00     0.037 A 
HETATM   22  C   UNL     1      44.376  -9.931   8.185  1.00  0.00     0.068 A 
HETATM   23  C   UNL     1      44.670 -11.214   7.724  1.00  0.00     0.037 A 
HETATM   24  C   UNL     1      43.836 -11.830   6.781  1.00  0.00     0.012 A 
BRANCH  22  25
HETATM   25  O   UNL     1      45.092  -9.248   9.129  1.00  0.00    -0.352 OA
BRANCH  25  26
HETATM   26  C   UNL     1      45.120  -9.838  10.429  1.00  0.00     0.171 C 
HETATM   27  C   UNL     1      44.014  -9.203  11.253  1.00  0.00     0.034 C 
ENDBRANCH  25  26
ENDBRANCH  22  25
ENDBRANCH  17  19
ENDBRANCH   1  17
TORSDOF 6
ENDMDL
MODEL 2
REMARK VINA RESULT:      -7.9      3.292     10.345
REMARK  6 active torsions:
REMARK  status: ('A' for Active; 'I' for Inactive)
REMARK    1  A    between atoms: C_2  and  O_3 
REMARK    2  A    between atoms: O_3  and  C_4 
REMARK    3  A    between atoms: C_7  and  C_8 
REMARK    4  A    between atoms: C_8  and  N_9 
REMARK       I    between atoms: N_9  and  C_10 
REMARK    5  A    between atoms: C_10  and  C_11 
REMARK    6  A    between atoms: C_15  and  C_16 
ROOT
HETATM    1  N   UNL     1      43.566 -11.440   7.908  1.00  0.00    -0.347 N 
HETATM    2  C   UNL     1      43.534 -10.162   8.425  1.00  0.00     0.272 C 
HETATM    3  O   UNL     1      43.642  -9.149   7.739  1.00  0.00    -0.266 OA
HETATM    4  H   UNL     1      43.550 -12.188   8.593  1.00  0.00     0.163 HD
ENDROOT
BRANCH   2   5
HETATM    5  C   UNL     1      43.399 -10.113   9.887  1.00  0.00     0.146 A 
HETATM    6  N   UNL     1      43.832 -11.099  10.695  1.00  0.00    -0.169 NA
HETATM    7  N   UNL     1      43.575 -10.635  11.932  1.00  0.00    -0.277 N 
HETATM    8  H   UNL     1      43.850 -11.212  12.719  1.00  0.00     0.189 HD
HETATM    9  C   UNL     1      42.980  -9.398  11.974  1.00  0.00     0.063 A 
HETATM   10  C   UNL     1      42.854  -9.045  10.643  1.00  0.00     0.071 A 
BRANCH   9  11
HETATM   11  C   UNL     1      42.627  -8.680  13.204  1.00  0.00    -0.008 A 
HETATM   12  C   UNL     1      43.315  -7.506  13.555  1.00  0.00     0.014 A 
HETATM   13  C   UNL     1      43.001  -6.806  14.724  1.00  0.00     0.001 A 
HETATM   14  C   UNL     1      41.993  -7.268  15.563  1.00  0.00     0.000 A 
HETATM   15  C   UNL     1      41.298  -8.427  15.232  1.00  0.00     0.001 A 
HETATM   16  C   UNL     1      41.611  -9.128  14.060  1.00  0.00     0.014 A 
ENDBRANCH   9  11
ENDBRANCH   2   5
BRANCH   1  17
HETATM   17  C   UNL     1      43.986 -11.693   6.549  1.00  0.00     0.114 C 
HETATM   18  C   UNL     1      45.500 -11.497   6.407  1.00  0.00     0.037 C 
BRANCH  17  19
HETATM   19  C   UNL     1      43.541 -13.063   6.076  1.00  0.00    -0.036 A 
HETATM   20  C   UNL     1      42.992 -13.203   4.792  1.00  0.00     0.012 A 
HETATM   21  C   UNL     1      42.644 -14.462   4.299  1.00  0.00     0.037 A 
HETATM   22  C   UNL     1      42.844 -15.603   5.072  1.00  0.00     0.068 A 
HETATM   23  C   UNL     1      43.332 -15.475   6.372  1.00  0.00     0.037 A 
HETATM   24  C   UNL     1      43.678 -14.211   6.870  1.00  0.00     0.012 A 
BRANCH  22  25
HETATM   25  O   UNL     1      42.511 -16.784   4.467  1.00  0.00    -0.352 OA
BRANCH  25  26
HETATM   26  C   UNL     1      42.263 -16.709   3.063  1.00  0.00     0.171 C 
HETATM   27  C   UNL     1      43.117 -17.765   2.382  1.00  0.00     0.034 C 
ENDBRANCH  25  26
ENDBRANCH  22  25
ENDBRANCH  17  19
ENDBRANCH   1  17
TORSDOF 6
ENDMDL
MODEL 3
REMARK VINA RESULT:      -7.5      2.472      8.647
REMARK  6 active torsions:
REMARK  status: ('A' for Active; 'I' for Inactive)
REMARK    1  A    between atoms: C_2  and  O_3 
REMARK    2  A    between atoms: O_3  and  C_4 
REMARK    3  A    between atoms: C_7  and  C_8 
REMARK    4  A    between atoms: C_8  and  N_9 
REMARK       I    between atoms: N_9  and  C_10 
REMARK    5  A    between atoms: C_10  and  C_11 
REMARK    6  A    between atoms: C_15  and  C_16 
ROOT
HETATM    1  N   UNL     1      41.494 -13.823   4.141  1.00  0.00    -0.347 N 
HETATM    2  C   UNL     1      40.556 -12.908   4.568  1.00  0.00     0.272 C 
HETATM    3  O   UNL     1      39.396 -12.886   4.165  1.00  0.00    -0.266 OA
HETATM    4  H   UNL     1      42.436 -13.678   4.489  1.00  0.00     0.163 HD
ENDROOT
BRANCH   2   5
HETATM    5  C   UNL     1      41.076 -11.924   5.526  1.00  0.00     0.146 A 
HETATM    6  N   UNL     1      40.280 -11.196   6.332  1.00  0.00    -0.169 NA
HETATM    7  N   UNL     1      41.144 -10.481   7.076  1.00  0.00    -0.277 N 
HETATM    8  H   UNL     1      40.761  -9.869   7.787  1.00  0.00     0.189 HD
HETATM    9  C   UNL     1      42.470 -10.695   6.787  1.00  0.00     0.063 A 
HETATM   10  C   UNL     1      42.442 -11.632   5.772  1.00  0.00     0.071 A 
BRANCH   9  11
HETATM   11  C   UNL     1      43.591 -10.049   7.479  1.00  0.00    -0.008 A 
HETATM   12  C   UNL     1      44.850 -10.673   7.512  1.00  0.00     0.014 A 
HETATM   13  C   UNL     1      45.933 -10.082   8.169  1.00  0.00     0.001 A 
HETATM   14  C   UNL     1      45.778  -8.855   8.804  1.00  0.00     0.000 A 
HETATM   15  C   UNL     1      44.540  -8.219   8.780  1.00  0.00     0.001 A 
HETATM   16  C   UNL     1      43.455  -8.810   8.121  1.00  0.00     0.014 A 
ENDBRANCH   9  11
ENDBRANCH   2   5
BRANCH   1  17
HETATM   17  C   UNL     1      41.253 -14.669   2.993  1.00  0.00     0.114 C 
HETATM   18  C   UNL     1      41.474 -13.888   1.693  1.00  0.00     0.037 C 
BRANCH  17  19
HETATM   19  C   UNL     1      42.090 -15.932   3.049  1.00  0.00    -0.036 A 
HETATM   20  C   UNL     1      43.034 -16.087   4.076  1.00  0.00     0.012 A 
HETATM   21  C   UNL     1      43.765 -17.270   4.201  1.00  0.00     0.037 A 
HETATM   22  C   UNL     1      43.562 -18.321   3.311  1.00  0.00     0.068 A 
HETATM   23  C   UNL     1      42.672 -18.161   2.250  1.00  0.00     0.037 A 
HETATM   24  C   UNL     1      41.941 -16.973   2.120  1.00  0.00     0.012 A 
BRANCH  22  25
HETATM   25  O   UNL     1      44.299 -19.447   3.560  1.00  0.00    -0.352 OA
BRANCH  25  26
HETATM   26  C   UNL     1      44.428 -19.808   4.936  1.00  0.00     0.171 C 
HETATM   27  C   UNL     1      43.738 -21.147   5.133  1.00  0.00     0.034 C 
ENDBRANCH  25  26
ENDBRANCH  22  25
ENDBRANCH  17  19
ENDBRANCH   1  17
TORSDOF 6
ENDMDL
MODEL 4
REMARK VINA RESULT:      -7.4      4.220      7.328
REMARK  6 active torsions:
REMARK  status: ('A' for Active; 'I' for Inactive)
REMARK    1  A    between atoms: C_2  and  O_3 
REMARK    2  A    between atoms: O_3  and  C_4 
REMARK    3  A    between atoms: C_7  and  C_8 
REMARK    4  A    between atoms: C_8  and  N_9 
REMARK       I    between atoms: N_9  and  C_10 
REMARK    5  A    between atoms: C_10  and  C_11 
REMARK    6  A    between atoms: C_15  and  C_16 
ROOT
HETATM    1  N   UNL     1      42.487 -13.200   3.728  1.00  0.00    -0.347 N 
HETATM    2  C   UNL     1      42.801 -12.091   2.973  1.00  0.00     0.272 C 
HETATM    3  O   UNL     1      43.703 -11.308   3.260  1.00  0.00    -0.266 OA
HETATM    4  H   UNL     1      41.666 -13.716   3.426  1.00  0.00     0.163 HD
ENDROOT
BRANCH   2   5
HETATM    5  C   UNL     1      41.933 -11.898   1.804  1.00  0.00     0.146 A 
HETATM    6  N   UNL     1      41.786 -10.709   1.190  1.00  0.00    -0.169 NA
HETATM    7  N   UNL     1      40.971 -10.981   0.155  1.00  0.00    -0.277 N 
HETATM    8  H   UNL     1      40.740 -10.223  -0.476  1.00  0.00     0.189 HD
HETATM    9  C   UNL     1      40.564 -12.290   0.068  1.00  0.00     0.063 A 
HETATM   10  C   UNL     1      41.181 -12.902   1.143  1.00  0.00     0.071 A 
BRANCH   9  11
HETATM   11  C   UNL     1      39.695 -12.828  -0.985  1.00  0.00    -0.008 A 
HETATM   12  C   UNL     1      38.409 -12.295  -1.177  1.00  0.00     0.014 A 
HETATM   13  C   UNL     1      37.560 -12.794  -2.169  1.00  0.00     0.001 A 
HETATM   14  C   UNL     1      37.982 -13.835  -2.988  1.00  0.00     0.000 A 
HETATM   15  C   UNL     1      39.253 -14.376  -2.816  1.00  0.00     0.001 A 
HETATM   16  C   UNL     1      40.105 -13.875  -1.823  1.00  0.00     0.014 A 
ENDBRANCH   9  11
ENDBRANCH   2   5
BRANCH   1  17
HETATM   17  C   UNL     1      43.027 -13.386   5.056  1.00  0.00     0.114 C 
HETATM   18  C   UNL     1      42.167 -12.656   6.095  1.00  0.00     0.037 C 
BRANCH  17  19
HETATM   19  C   UNL     1      43.195 -14.856   5.386  1.00  0.00    -0.036 A 
HETATM   20  C   UNL     1      43.010 -15.813   4.376  1.00  0.00     0.012 A 
HETATM   21  C   UNL     1      43.233 -17.168   4.628  1.00  0.00     0.037 A 
HETATM   22  C   UNL     1      43.653 -17.592   5.886  1.00  0.00     0.068 A 
HETATM   23  C   UNL     1      43.784 -16.662   6.916  1.00  0.00     0.037 A 
HETATM   24  C   UNL     1      43.556 -15.301   6.667  1.00  0.00     0.012 A 
BRANCH  22  25
HETATM   25  O   UNL     1      43.886 -18.936   6.002  1.00  0.00    -0.352 OA
BRANCH  25  26
HETATM   26  C   UNL     1      44.318 -19.591   4.809  1.00  0.00     0.171 C 
HETATM   27  C   UNL     1      43.948 -21.060   4.925  1.00  0.00     0.034 C 
ENDBRANCH  25  26
ENDBRANCH  22  25
ENDBRANCH  17  19
ENDBRANCH   1  17
TORSDOF 6
ENDMDL
MODEL 5
REMARK VINA RESULT:      -7.4      2.649      5.160
REMARK  6 active torsions:
REMARK  status: ('A' for Active; 'I' for Inactive)
REMARK    1  A    between atoms: C_2  and  O_3 
REMARK    2  A    between atoms: O_3  and  C_4 
REMARK    3  A    between atoms: C_7  and  C_8 
REMARK    4  A    between atoms: C_8  and  N_9 
REMARK       I    between atoms: N_9  and  C_10 
REMARK    5  A    between atoms: C_10  and  C_11 
REMARK    6  A    between atoms: C_15  and  C_16 
ROOT
HETATM    1  N   UNL     1      43.702 -10.437   8.711  1.00  0.00    -0.347 N 
HETATM    2  C   UNL     1      44.492 -11.225   7.903  1.00  0.00     0.272 C 
HETATM    3  O   UNL     1      45.720 -11.224   7.946  1.00  0.00    -0.266 OA
HETATM    4  H   UNL     1      42.706 -10.471   8.517  1.00  0.00     0.163 HD
ENDROOT
BRANCH   2   5
HETATM    5  C   UNL     1      43.737 -12.045   6.947  1.00  0.00     0.146 A 
HETATM    6  N   UNL     1      42.543 -11.673   6.447  1.00  0.00    -0.169 NA
HETATM    7  N   UNL     1      42.237 -12.658   5.583  1.00  0.00    -0.277 N 
HETATM    8  H   UNL     1      41.374 -12.574   5.058  1.00  0.00     0.189 HD
HETATM    9  C   UNL     1      43.166 -13.667   5.503  1.00  0.00     0.063 A 
HETATM   10  C   UNL     1      44.151 -13.282   6.393  1.00  0.00     0.071 A 
BRANCH   9  11
HETATM   11  C   UNL     1      43.062 -14.832   4.617  1.00  0.00    -0.008 A 
HETATM   12  C   UNL     1      42.886 -14.651   3.234  1.00  0.00     0.014 A 
HETATM   13  C   UNL     1      42.779 -15.744   2.369  1.00  0.00     0.001 A 
HETATM   14  C   UNL     1      42.847 -17.039   2.872  1.00  0.00     0.000 A 
HETATM   15  C   UNL     1      43.024 -17.240   4.237  1.00  0.00     0.001 A 
HETATM   16  C   UNL     1      43.133 -16.145   5.104  1.00  0.00     0.014 A 
ENDBRANCH   9  11
ENDBRANCH   2   5
BRANCH   1  17
HETATM   17  C   UNL     1      44.263  -9.359   9.495  1.00  0.00     0.114 C 
HETATM   18  C   UNL     1      44.277  -8.056   8.688  1.00  0.00     0.037 C 
BRANCH  17  19
HETATM   19  C   UNL     1      43.543  -9.203  10.820  1.00  0.00    -0.036 A 
HETATM   20  C   UNL     1      43.240 -10.345  11.577  1.00  0.00     0.012 A 
HETATM   21  C   UNL     1      42.647 -10.230  12.836  1.00  0.00     0.037 A 
HETATM   22  C   UNL     1      42.353  -8.976  13.365  1.00  0.00     0.068 A 
HETATM   23  C   UNL     1      42.593  -7.835  12.601  1.00  0.00     0.037 A 
HETATM   24  C   UNL     1      43.184  -7.948  11.336  1.00  0.00     0.012 A 
BRANCH  22  25
HETATM   25  O   UNL     1      41.819  -8.985  14.625  1.00  0.00    -0.352 OA
BRANCH  25  26
HETATM   26  C   UNL     1      41.143  -7.790  15.017  1.00  0.00     0.171 C 
HETATM   27  C   UNL     1      41.958  -7.133  16.118  1.00  0.00     0.034 C 
ENDBRANCH  25  26
ENDBRANCH  22  25
ENDBRANCH  17  19
ENDBRANCH   1  17
TORSDOF 6
ENDMDL
MODEL 6
REMARK VINA RESULT:      -7.4      1.763      2.313
REMARK  6 active torsions:
REMARK  status: ('A' for Active; 'I' for Inactive)
REMARK    1  A    between atoms: C_2  and  O_3 
REMARK    2  A    between atoms: O_3  and  C_4 
REMARK    3  A    between atoms: C_7  and  C_8 
REMARK    4  A    between atoms: C_8  and  N_9 
REMARK       I    between atoms: N_9  and  C_10 
REMARK    5  A    between atoms: C_10  and  C_11 
REMARK    6  A    between atoms: C_15  and  C_16 
ROOT
HETATM    1  N   UNL     1      43.463 -12.542   4.778  1.00  0.00    -0.347 N 
HETATM    2  C   UNL     1      42.696 -13.473   5.445  1.00  0.00     0.272 C 
HETATM    3  O   UNL     1      41.654 -13.197   6.035  1.00  0.00    -0.266 OA
HETATM    4  H   UNL     1      44.342 -12.887   4.405  1.00  0.00     0.163 HD
ENDROOT
BRANCH   2   5
HETATM    5  C   UNL     1      43.254 -14.831   5.426  1.00  0.00     0.146 A 
HETATM    6  N   UNL     1      44.078 -15.297   6.384  1.00  0.00    -0.169 NA
HETATM    7  N   UNL     1      44.300 -16.574   6.022  1.00  0.00    -0.277 N 
HETATM    8  H   UNL     1      44.884 -17.141   6.626  1.00  0.00     0.189 HD
HETATM    9  C   UNL     1      43.673 -16.964   4.864  1.00  0.00     0.063 A 
HETATM   10  C   UNL     1      42.988 -15.833   4.460  1.00  0.00     0.071 A 
BRANCH   9  11
HETATM   11  C   UNL     1      43.746 -18.311   4.286  1.00  0.00    -0.008 A 
HETATM   12  C   UNL     1      43.544 -18.496   2.907  1.00  0.00     0.014 A 
HETATM   13  C   UNL     1      43.603 -19.769   2.332  1.00  0.00     0.001 A 
HETATM   14  C   UNL     1      43.867 -20.880   3.125  1.00  0.00     0.000 A 
HETATM   15  C   UNL     1      44.073 -20.718   4.492  1.00  0.00     0.001 A 
HETATM   16  C   UNL     1      44.015 -19.443   5.068  1.00  0.00     0.014 A 
ENDBRANCH   9  11
ENDBRANCH   2   5
BRANCH   1  17
HETATM   17  C   UNL     1      43.236 -11.123   4.939  1.00  0.00     0.114 C 
HETATM   18  C   UNL     1      41.814 -10.752   4.504  1.00  0.00     0.037 C 
BRANCH  17  19
HETATM   19  C   UNL     1      43.537 -10.670   6.354  1.00  0.00    -0.036 A 
HETATM   20  C   UNL     1      44.726 -11.087   6.972  1.00  0.00     0.012 A 
HETATM   21  C   UNL     1      45.069 -10.625   8.244  1.00  0.00     0.037 A 
HETATM   22  C   UNL     1      44.238  -9.734   8.919  1.00  0.00     0.068 A 
HETATM   23  C   UNL     1      43.025  -9.357   8.345  1.00  0.00     0.037 A 
HETATM   24  C   UNL     1      42.677  -9.823   7.069  1.00  0.00     0.012 A 
BRANCH  22  25
HETATM   25  O   UNL     1      44.700  -9.313  10.136  1.00  0.00    -0.352 OA
BRANCH  25  26
HETATM   26  C   UNL     1      43.954  -9.762  11.268  1.00  0.00     0.171 C 
HETATM   27  C   UNL     1      43.525  -8.538  12.058  1.00  0.00     0.034 C 
ENDBRANCH  25  26
ENDBRANCH  22  25
ENDBRANCH  17  19
ENDBRANCH   1  17
TORSDOF 6
ENDMDL
MODEL 7
REMARK VINA RESULT:      -7.4      2.216      3.536
REMARK  6 active torsions:
REMARK  status: ('A' for Active; 'I' for Inactive)
REMARK    1  A    between atoms: C_2  and  O_3 
REMARK    2  A    between atoms: O_3  and  C_4 
REMARK    3  A    between atoms: C_7  and  C_8 
REMARK    4  A    between atoms: C_8  and  N_9 
REMARK       I    between atoms: N_9  and  C_10 
REMARK    5  A    between atoms: C_10  and  C_11 
REMARK    6  A    between atoms: C_15  and  C_16 
ROOT
HETATM    1  N   UNL     1      42.692 -11.419   7.250  1.00  0.00    -0.347 N 
HETATM    2  C   UNL     1      43.687 -12.316   6.925  1.00  0.00     0.272 C 
HETATM    3  O   UNL     1      44.876 -12.125   7.165  1.00  0.00    -0.266 OA
HETATM    4  H   UNL     1      41.762 -11.660   6.921  1.00  0.00     0.163 HD
ENDROOT
BRANCH   2   5
HETATM    5  C   UNL     1      43.206 -13.513   6.224  1.00  0.00     0.146 A 
HETATM    6  N   UNL     1      41.923 -13.676   5.850  1.00  0.00    -0.169 NA
HETATM    7  N   UNL     1      41.925 -14.854   5.199  1.00  0.00    -0.277 N 
HETATM    8  H   UNL     1      41.052 -15.173   4.797  1.00  0.00     0.189 HD
HETATM    9  C   UNL     1      43.147 -15.479   5.141  1.00  0.00     0.063 A 
HETATM   10  C   UNL     1      43.994 -14.617   5.812  1.00  0.00     0.071 A 
BRANCH   9  11
HETATM   11  C   UNL     1      43.401 -16.758   4.468  1.00  0.00    -0.008 A 
HETATM   12  C   UNL     1      42.952 -16.961   3.152  1.00  0.00     0.014 A 
HETATM   13  C   UNL     1      43.177 -18.171   2.489  1.00  0.00     0.001 A 
HETATM   14  C   UNL     1      43.856 -19.201   3.132  1.00  0.00     0.000 A 
HETATM   15  C   UNL     1      44.311 -19.019   4.434  1.00  0.00     0.001 A 
HETATM   16  C   UNL     1      44.087 -17.806   5.097  1.00  0.00     0.014 A 
ENDBRANCH   9  11
ENDBRANCH   2   5
BRANCH   1  17
HETATM   17  C   UNL     1      42.999 -10.070   7.668  1.00  0.00     0.114 C 
HETATM   18  C   UNL     1      42.091  -9.064   6.953  1.00  0.00     0.037 C 
BRANCH  17  19
HETATM   19  C   UNL     1      42.934  -9.927   9.176  1.00  0.00    -0.036 A 
HETATM   20  C   UNL     1      41.831  -9.286   9.760  1.00  0.00     0.012 A 
HETATM   21  C   UNL     1      41.703  -9.207  11.148  1.00  0.00     0.037 A 
HETATM   22  C   UNL     1      42.668  -9.772  11.978  1.00  0.00     0.068 A 
HETATM   23  C   UNL     1      43.800 -10.360  11.414  1.00  0.00     0.037 A 
HETATM   24  C   UNL     1      43.932 -10.437  10.021  1.00  0.00     0.012 A 
BRANCH  22  25
HETATM   25  O   UNL     1      42.413  -9.676  13.319  1.00  0.00    -0.352 OA
BRANCH  25  26
HETATM   26  C   UNL     1      42.241  -8.350  13.820  1.00  0.00     0.171 C 
HETATM   27  C   UNL     1      41.513  -8.446  15.150  1.00  0.00     0.034 C 
ENDBRANCH  25  26
ENDBRANCH  22  25
ENDBRANCH  17  19
ENDBRANCH   1  17
TORSDOF 6
ENDMDL
MODEL 8
REMARK VINA RESULT:      -7.4      2.731      3.592
REMARK  6 active torsions:
REMARK  status: ('A' for Active; 'I' for Inactive)
REMARK    1  A    between atoms: C_2  and  O_3 
REMARK    2  A    between atoms: O_3  and  C_4 
REMARK    3  A    between atoms: C_7  and  C_8 
REMARK    4  A    between atoms: C_8  and  N_9 
REMARK       I    between atoms: N_9  and  C_10 
REMARK    5  A    between atoms: C_10  and  C_11 
REMARK    6  A    between atoms: C_15  and  C_16 
ROOT
HETATM    1  N   UNL     1      43.018 -13.114   5.328  1.00  0.00    -0.347 N 
HETATM    2  C   UNL     1      43.498 -13.793   6.427  1.00  0.00     0.272 C 
HETATM    3  O   UNL     1      43.815 -13.243   7.479  1.00  0.00    -0.266 OA
HETATM    4  H   UNL     1      42.874 -13.676   4.496  1.00  0.00     0.163 HD
ENDROOT
BRANCH   2   5
HETATM    5  C   UNL     1      43.639 -15.240   6.220  1.00  0.00     0.146 A 
HETATM    6  N   UNL     1      43.768 -16.115   7.236  1.00  0.00    -0.169 NA
HETATM    7  N   UNL     1      43.806 -17.313   6.624  1.00  0.00    -0.277 N 
HETATM    8  H   UNL     1      43.874 -18.139   7.207  1.00  0.00     0.189 HD
HETATM    9  C   UNL     1      43.722 -17.265   5.254  1.00  0.00     0.063 A 
HETATM   10  C   UNL     1      43.617 -15.915   4.974  1.00  0.00     0.071 A 
BRANCH   9  11
HETATM   11  C   UNL     1      43.720 -18.439   4.374  1.00  0.00    -0.008 A 
HETATM   12  C   UNL     1      43.402 -18.297   3.012  1.00  0.00     0.014 A 
HETATM   13  C   UNL     1      43.387 -19.401   2.154  1.00  0.00     0.001 A 
HETATM   14  C   UNL     1      43.690 -20.667   2.642  1.00  0.00     0.000 A 
HETATM   15  C   UNL     1      44.010 -20.829   3.987  1.00  0.00     0.001 A 
HETATM   16  C   UNL     1      44.026 -19.723   4.847  1.00  0.00     0.014 A 
ENDBRANCH   9  11
ENDBRANCH   2   5
BRANCH   1  17
HETATM   17  C   UNL     1      43.093 -11.672   5.240  1.00  0.00     0.114 C 
HETATM   18  C   UNL     1      43.105 -11.222   3.776  1.00  0.00     0.037 C 
BRANCH  17  19
HETATM   19  C   UNL     1      41.982 -11.010   6.032  1.00  0.00    -0.036 A 
HETATM   20  C   UNL     1      40.664 -11.466   5.882  1.00  0.00     0.012 A 
HETATM   21  C   UNL     1      39.631 -10.930   6.654  1.00  0.00     0.037 A 
HETATM   22  C   UNL     1      39.895  -9.937   7.593  1.00  0.00     0.068 A 
HETATM   23  C   UNL     1      41.189  -9.431   7.713  1.00  0.00     0.037 A 
HETATM   24  C   UNL     1      42.226  -9.965   6.936  1.00  0.00     0.012 A 
BRANCH  22  25
HETATM   25  O   UNL     1      38.815  -9.522   8.324  1.00  0.00    -0.352 OA
BRANCH  25  26
HETATM   26  C   UNL     1      39.046  -9.344   9.721  1.00  0.00     0.171 C 
HETATM   27  C   UNL     1      38.695  -7.909  10.073  1.00  0.00     0.034 C 
ENDBRANCH  25  26
ENDBRANCH  22  25
ENDBRANCH  17  19
ENDBRANCH   1  17
TORSDOF 6
ENDMDL
MODEL 9
REMARK VINA RESULT:      -7.1      3.510      4.799
REMARK  6 active torsions:
REMARK  status: ('A' for Active; 'I' for Inactive)
REMARK    1  A    between atoms: C_2  and  O_3 
REMARK    2  A    between atoms: O_3  and  C_4 
REMARK    3  A    between atoms: C_7  and  C_8 
REMARK    4  A    between atoms: C_8  and  N_9 
REMARK       I    between atoms: N_9  and  C_10 
REMARK    5  A    between atoms: C_10  and  C_11 
REMARK    6  A    between atoms: C_15  and  C_16 
ROOT
HETATM    1  N   UNL     1      44.639 -10.534   7.082  1.00  0.00    -0.347 N 
HETATM    2  C   UNL     1      44.093 -11.787   6.903  1.00  0.00     0.272 C 
HETATM    3  O   UNL     1      44.077 -12.652   7.775  1.00  0.00    -0.266 OA
HETATM    4  H   UNL     1      44.661  -9.945   6.256  1.00  0.00     0.163 HD
ENDROOT
BRANCH   2   5
HETATM    5  C   UNL     1      43.560 -12.018   5.554  1.00  0.00     0.146 A 
HETATM    6  N   UNL     1      43.935 -11.291   4.485  1.00  0.00    -0.169 NA
HETATM    7  N   UNL     1      43.270 -11.858   3.461  1.00  0.00    -0.277 N 
HETATM    8  H   UNL     1      43.425 -11.484   2.533  1.00  0.00     0.189 HD
HETATM    9  C   UNL     1      42.465 -12.915   3.810  1.00  0.00     0.063 A 
HETATM   10  C   UNL     1      42.640 -13.029   5.177  1.00  0.00     0.071 A 
BRANCH   9  11
HETATM   11  C   UNL     1      41.664 -13.704   2.868  1.00  0.00    -0.008 A 
HETATM   12  C   UNL     1      40.836 -14.736   3.341  1.00  0.00     0.014 A 
HETATM   13  C   UNL     1      40.066 -15.506   2.463  1.00  0.00     0.001 A 
HETATM   14  C   UNL     1      40.111 -15.257   1.096  1.00  0.00     0.000 A 
HETATM   15  C   UNL     1      40.923 -14.237   0.607  1.00  0.00     0.001 A 
HETATM   16  C   UNL     1      41.693 -13.465   1.486  1.00  0.00     0.014 A 
ENDBRANCH   9  11
ENDBRANCH   2   5
BRANCH   1  17
HETATM   17  C   UNL     1      45.466 -10.229   8.228  1.00  0.00     0.114 C 
HETATM   18  C   UNL     1      46.669  -9.375   7.813  1.00  0.00     0.037 C 
BRANCH  17  19
HETATM   19  C   UNL     1      44.661  -9.582   9.337  1.00  0.00    -0.036 A 
HETATM   20  C   UNL     1      44.074  -8.326   9.119  1.00  0.00     0.012 A 
HETATM   21  C   UNL     1      43.263  -7.738  10.091  1.00  0.00     0.037 A 
HETATM   22  C   UNL     1      43.016  -8.395  11.294  1.00  0.00     0.068 A 
HETATM   23  C   UNL     1      43.639  -9.615  11.552  1.00  0.00     0.037 A 
HETATM   24  C   UNL     1      44.457 -10.205  10.578  1.00  0.00     0.012 A 
BRANCH  22  25
HETATM   25  O   UNL     1      42.168  -7.745  12.150  1.00  0.00    -0.352 OA
BRANCH  25  26
HETATM   26  C   UNL     1      42.766  -7.240  13.344  1.00  0.00     0.171 C 
HETATM   27  C   UNL     1      42.206  -8.028  14.516  1.00  0.00     0.034 C 
ENDBRANCH  25  26
ENDBRANCH  22  25
ENDBRANCH  17  19
ENDBRANCH   1  17
TORSDOF 6
ENDMDL
MODEL 10
REMARK VINA RESULT:      -7.1      3.493      8.833
REMARK  6 active torsions:
REMARK  status: ('A' for Active; 'I' for Inactive)
REMARK    1  A    between atoms: C_2  and  O_3 
REMARK    2  A    between atoms: O_3  and  C_4 
REMARK    3  A    between atoms: C_7  and  C_8 
REMARK    4  A    between atoms: C_8  and  N_9 
REMARK       I    between atoms: N_9  and  C_10 
REMARK    5  A    between atoms: C_10  and  C_11 
REMARK    6  A    between atoms: C_15  and  C_16 
ROOT
HETATM    1  N   UNL     1      41.888 -14.393   3.568  1.00  0.00    -0.347 N 
HETATM    2  C   UNL     1      42.919 -14.787   4.393  1.00  0.00     0.272 C 
HETATM    3  O   UNL     1      43.581 -15.806   4.212  1.00  0.00    -0.266 OA
HETATM    4  H   UNL     1      41.368 -13.578   3.878  1.00  0.00     0.163 HD
ENDROOT
BRANCH   2   5
HETATM    5  C   UNL     1      43.138 -13.899   5.542  1.00  0.00     0.146 A 
HETATM    6  N   UNL     1      42.776 -14.224   6.797  1.00  0.00    -0.169 NA
HETATM    7  N   UNL     1      43.203 -13.182   7.534  1.00  0.00    -0.277 N 
HETATM    8  H   UNL     1      43.060 -13.223   8.537  1.00  0.00     0.189 HD
HETATM    9  C   UNL     1      43.816 -12.182   6.820  1.00  0.00     0.063 A 
HETATM   10  C   UNL     1      43.777 -12.634   5.514  1.00  0.00     0.071 A 
BRANCH   9  11
HETATM   11  C   UNL     1      44.383 -10.962   7.406  1.00  0.00    -0.008 A 
HETATM   12  C   UNL     1      45.763 -10.715   7.319  1.00  0.00     0.014 A 
HETATM   13  C   UNL     1      46.329  -9.563   7.873  1.00  0.00     0.001 A 
HETATM   14  C   UNL     1      45.523  -8.636   8.525  1.00  0.00     0.000 A 
HETATM   15  C   UNL     1      44.153  -8.860   8.620  1.00  0.00     0.001 A 
HETATM   16  C   UNL     1      43.586 -10.013   8.063  1.00  0.00     0.014 A 
ENDBRANCH   9  11
ENDBRANCH   2   5
BRANCH   1  17
HETATM   17  C   UNL     1      41.337 -15.284   2.572  1.00  0.00     0.114 C 
HETATM   18  C   UNL     1      40.235 -16.159   3.180  1.00  0.00     0.037 C 
BRANCH  17  19
HETATM   19  C   UNL     1      40.854 -14.522   1.353  1.00  0.00    -0.036 A 
HETATM   20  C   UNL     1      41.277 -13.199   1.156  1.00  0.00     0.012 A 
HETATM   21  C   UNL     1      40.913 -12.496   0.006  1.00  0.00     0.037 A 
HETATM   22  C   UNL     1      40.127 -13.102  -0.971  1.00  0.00     0.068 A 
HETATM   23  C   UNL     1      39.649 -14.395  -0.764  1.00  0.00     0.037 A 
HETATM   24  C   UNL     1      40.010 -15.100   0.392  1.00  0.00     0.012 A 
BRANCH  22  25
HETATM   25  O   UNL     1      39.874 -12.334  -2.075  1.00  0.00    -0.352 OA
BRANCH  25  26
HETATM   26  C   UNL     1      41.018 -11.968  -2.847  1.00  0.00     0.171 C 
HETATM   27  C   UNL     1      40.863 -10.511  -3.247  1.00  0.00     0.034 C 
ENDBRANCH  25  26
ENDBRANCH  22  25
ENDBRANCH  17  19
ENDBRANCH   1  17
TORSDOF 6
ENDMDL
