MODEL 1
REMARK VINA RESULT:      -9.7      0.000      0.000
REMARK  7 active torsions:
REMARK  status: ('A' for Active; 'I' for Inactive)
REMARK    1  A    between atoms: N_2  and  C_4 
REMARK    2  A    between atoms: N_2  and  C_27 
REMARK    3  A    between atoms: C_4  and  C_5 
REMARK       I    between atoms: C_5  and  N_6 
REMARK    4  A    between atoms: N_6  and  N_7 
REMARK    5  A    between atoms: C_11  and  C_12 
REMARK    6  A    between atoms: C_11  and  C_18 
REMARK    7  A    between atoms: C_27  and  C_28 
ROOT
HETATM    1  N   UNL     1      42.439 -12.469   4.494  1.00  0.00    -0.167 N 
HETATM    2  C   UNL     1      43.393 -12.278   3.536  1.00  0.00     0.346 C 
HETATM    3  O   UNL     1      44.052 -11.269   3.357  1.00  0.00    -0.245 OA
HETATM    4  N   UNL     1      43.451 -13.398   2.752  1.00  0.00    -0.315 N 
HETATM    5  C   UNL     1      42.404 -14.379   3.031  1.00  0.00     0.173 C 
HETATM    6  C   UNL     1      41.711 -13.602   4.217  1.00  0.00     0.285 C 
HETATM    7  O   UNL     1      40.701 -13.923   4.840  1.00  0.00    -0.267 OA
HETATM    8  H   UNL     1      44.072 -13.424   1.956  1.00  0.00     0.166 HD
ENDROOT
BRANCH   1   9
HETATM    9  N   UNL     1      41.913 -11.385   5.192  1.00  0.00    -0.255 N 
HETATM   10  C   UNL     1      42.438 -10.868   6.342  1.00  0.00     0.262 C 
HETATM   11  O   UNL     1      42.001  -9.801   6.780  1.00  0.00    -0.270 OA
HETATM   12  H   UNL     1      41.249 -10.806   4.678  1.00  0.00     0.191 HD
BRANCH  10  13
HETATM   13  C   UNL     1      43.557 -11.621   7.072  1.00  0.00     0.338 C 
BRANCH  13  14
HETATM   14  N   UNL     1      44.899 -10.875   7.150  1.00  0.00    -0.061 N 
HETATM   15  C   UNL     1      45.849 -11.256   6.060  1.00  0.00     0.270 C 
HETATM   16  H   UNL     1      44.649  -9.882   7.021  1.00  0.00     0.280 HD
BRANCH  14  17
HETATM   17  C   UNL     1      45.538 -10.903   8.535  1.00  0.00     0.301 C 
BRANCH  17  18
HETATM   18  C   UNL     1      44.662 -10.214   9.541  1.00  0.00     0.102 A 
HETATM   19  S   UNL     1      44.238  -8.570   9.363  1.00  0.00    -0.071 SA
HETATM   20  C   UNL     1      43.331  -8.650  10.825  1.00  0.00     0.035 A 
HETATM   21  C   UNL     1      43.417  -9.945  11.345  1.00  0.00     0.074 A 
HETATM   22  C   UNL     1      42.596  -7.640  11.466  1.00  0.00     0.021 A 
HETATM   23  N   UNL     1      44.184 -10.834  10.601  1.00  0.00    -0.243 NA
HETATM   24  C   UNL     1      42.745 -10.239  12.547  1.00  0.00     0.033 A 
HETATM   25  C   UNL     1      42.010  -9.240  13.194  1.00  0.00     0.002 A 
HETATM   26  C   UNL     1      41.939  -7.958  12.657  1.00  0.00     0.002 A 
ENDBRANCH  17  18
ENDBRANCH  14  17
ENDBRANCH  13  14
ENDBRANCH  10  13
ENDBRANCH   1   9
BRANCH   5  27
HETATM   27  C   UNL     1      43.028 -15.708   3.478  1.00  0.00    -0.016 A 
HETATM   28  C   UNL     1      43.329 -15.968   4.828  1.00  0.00     0.010 A 
HETATM   29  C   UNL     1      43.874 -17.194   5.225  1.00  0.00     0.001 A 
HETATM   30  C   UNL     1      44.116 -18.190   4.286  1.00  0.00     0.000 A 
HETATM   31  C   UNL     1      43.804 -17.967   2.949  1.00  0.00     0.001 A 
HETATM   32  C   UNL     1      43.259 -16.745   2.550  1.00  0.00     0.010 A 
ENDBRANCH   5  27
BRANCH   5  33
HETATM   33  C   UNL     1      41.445 -14.554   1.845  1.00  0.00    -0.016 A 
HETATM   34  C   UNL     1      40.571 -15.654   1.744  1.00  0.00     0.010 A 
HETATM   35  C   UNL     1      39.699 -15.789   0.659  1.00  0.00     0.001 A 
HETATM   36  C   UNL     1      39.671 -14.826  -0.343  1.00  0.00     0.000 A 
HETATM   37  C   UNL     1      40.505 -13.718  -0.256  1.00  0.00     0.001 A 
HETATM   38  C   UNL     1      41.375 -13.580   0.829  1.00  0.00     0.010 A 
ENDBRANCH   5  33
TORSDOF 7
ENDMDL
MODEL 2
REMARK VINA RESULT:      -9.7      3.034      5.233
REMARK  7 active torsions:
REMARK  status: ('A' for Active; 'I' for Inactive)
REMARK    1  A    between atoms: N_2  and  C_4 
REMARK    2  A    between atoms: N_2  and  C_27 
REMARK    3  A    between atoms: C_4  and  C_5 
REMARK       I    between atoms: C_5  and  N_6 
REMARK    4  A    between atoms: N_6  and  N_7 
REMARK    5  A    between atoms: C_11  and  C_12 
REMARK    6  A    between atoms: C_11  and  C_18 
REMARK    7  A    between atoms: C_27  and  C_28 
ROOT
HETATM    1  N   UNL     1      41.593 -15.354   1.343  1.00  0.00    -0.167 N 
HETATM    2  C   UNL     1      40.495 -15.837   1.994  1.00  0.00     0.346 C 
HETATM    3  O   UNL     1      39.329 -15.659   1.683  1.00  0.00    -0.245 OA
HETATM    4  N   UNL     1      40.911 -16.513   3.107  1.00  0.00    -0.315 N 
HETATM    5  C   UNL     1      42.342 -16.393   3.380  1.00  0.00     0.173 C 
HETATM    6  C   UNL     1      42.712 -15.507   2.128  1.00  0.00     0.285 C 
HETATM    7  O   UNL     1      43.807 -15.027   1.841  1.00  0.00    -0.267 OA
HETATM    8  H   UNL     1      40.231 -16.905   3.744  1.00  0.00     0.166 HD
ENDROOT
BRANCH   1   9
HETATM    9  N   UNL     1      41.465 -14.339   0.399  1.00  0.00    -0.255 N 
HETATM   10  C   UNL     1      41.106 -13.051   0.682  1.00  0.00     0.262 C 
HETATM   11  O   UNL     1      41.196 -12.192  -0.198  1.00  0.00    -0.270 OA
HETATM   12  H   UNL     1      41.898 -14.517  -0.506  1.00  0.00     0.191 HD
BRANCH  10  13
HETATM   13  C   UNL     1      40.597 -12.694   2.084  1.00  0.00     0.338 C 
BRANCH  13  14
HETATM   14  N   UNL     1      41.253 -11.457   2.718  1.00  0.00    -0.061 N 
HETATM   15  C   UNL     1      40.768 -10.168   2.135  1.00  0.00     0.270 C 
HETATM   16  H   UNL     1      40.957 -11.488   3.707  1.00  0.00     0.280 HD
BRANCH  14  17
HETATM   17  C   UNL     1      42.773 -11.540   2.800  1.00  0.00     0.301 C 
BRANCH  17  18
HETATM   18  C   UNL     1      43.248 -11.282   4.201  1.00  0.00     0.102 A 
HETATM   19  S   UNL     1      42.173 -10.737   5.410  1.00  0.00    -0.071 SA
HETATM   20  C   UNL     1      43.468 -10.715   6.546  1.00  0.00     0.035 A 
HETATM   21  C   UNL     1      44.640 -11.136   5.909  1.00  0.00     0.074 A 
HETATM   22  C   UNL     1      43.450 -10.353   7.902  1.00  0.00     0.021 A 
HETATM   23  N   UNL     1      44.502 -11.457   4.564  1.00  0.00    -0.243 NA
HETATM   24  C   UNL     1      45.833 -11.196   6.655  1.00  0.00     0.033 A 
HETATM   25  C   UNL     1      45.825 -10.837   8.007  1.00  0.00     0.002 A 
HETATM   26  C   UNL     1      44.647 -10.420   8.619  1.00  0.00     0.002 A 
ENDBRANCH  17  18
ENDBRANCH  14  17
ENDBRANCH  13  14
ENDBRANCH  10  13
ENDBRANCH   1   9
BRANCH   5  27
HETATM   27  C   UNL     1      43.007 -17.776   3.345  1.00  0.00    -0.016 A 
HETATM   28  C   UNL     1      43.597 -18.343   4.490  1.00  0.00     0.010 A 
HETATM   29  C   UNL     1      44.176 -19.615   4.451  1.00  0.00     0.001 A 
HETATM   30  C   UNL     1      44.166 -20.354   3.273  1.00  0.00     0.000 A 
HETATM   31  C   UNL     1      43.567 -19.827   2.134  1.00  0.00     0.001 A 
HETATM   32  C   UNL     1      42.986 -18.557   2.171  1.00  0.00     0.010 A 
ENDBRANCH   5  27
BRANCH   5  33
HETATM   33  C   UNL     1      42.620 -15.645   4.692  1.00  0.00    -0.016 A 
HETATM   34  C   UNL     1      41.631 -14.884   5.345  1.00  0.00     0.010 A 
HETATM   35  C   UNL     1      41.903 -14.218   6.544  1.00  0.00     0.001 A 
HETATM   36  C   UNL     1      43.163 -14.306   7.125  1.00  0.00     0.000 A 
HETATM   37  C   UNL     1      44.150 -15.070   6.515  1.00  0.00     0.001 A 
HETATM   38  C   UNL     1      43.879 -15.738   5.318  1.00  0.00     0.010 A 
ENDBRANCH   5  33
TORSDOF 7
ENDMDL
MODEL 3
REMARK VINA RESULT:      -9.4      3.178      8.127
REMARK  7 active torsions:
REMARK  status: ('A' for Active; 'I' for Inactive)
REMARK    1  A    between atoms: N_2  and  C_4 
REMARK    2  A    between atoms: N_2  and  C_27 
REMARK    3  A    between atoms: C_4  and  C_5 
REMARK       I    between atoms: C_5  and  N_6 
REMARK    4  A    between atoms: N_6  and  N_7 
REMARK    5  A    between atoms: C_11  and  C_12 
REMARK    6  A    between atoms: C_11  and  C_18 
REMARK    7  A    between atoms: C_27  and  C_28 
ROOT
HETATM    1  N   UNL     1      41.672 -10.300   4.095  1.00  0.00    -0.167 N 
HETATM    2  C   UNL     1      40.951  -9.939   5.195  1.00  0.00     0.346 C 
HETATM    3  O   UNL     1      40.095  -9.072   5.252  1.00  0.00    -0.245 OA
HETATM    4  N   UNL     1      41.391 -10.672   6.263  1.00  0.00    -0.315 N 
HETATM    5  C   UNL     1      42.577 -11.480   5.986  1.00  0.00     0.173 C 
HETATM    6  C   UNL     1      42.732 -11.095   4.464  1.00  0.00     0.285 C 
HETATM    7  O   UNL     1      43.619 -11.438   3.686  1.00  0.00    -0.267 OA
HETATM    8  H   UNL     1      41.003 -10.508   7.182  1.00  0.00     0.166 HD
ENDROOT
BRANCH   1   9
HETATM    9  N   UNL     1      41.698  -9.482   2.968  1.00  0.00    -0.255 N 
HETATM   10  C   UNL     1      40.892  -9.634   1.874  1.00  0.00     0.262 C 
HETATM   11  O   UNL     1      40.872  -8.753   1.012  1.00  0.00    -0.270 OA
HETATM   12  H   UNL     1      42.173  -8.587   3.079  1.00  0.00     0.191 HD
BRANCH  10  13
HETATM   13  C   UNL     1      40.031 -10.895   1.734  1.00  0.00     0.338 C 
BRANCH  13  14
HETATM   14  N   UNL     1      39.556 -11.203   0.305  1.00  0.00    -0.061 N 
HETATM   15  C   UNL     1      38.119 -11.611   0.236  1.00  0.00     0.270 C 
HETATM   16  H   UNL     1      39.656 -10.307  -0.197  1.00  0.00     0.280 HD
BRANCH  14  17
HETATM   17  C   UNL     1      40.480 -12.143  -0.460  1.00  0.00     0.301 C 
BRANCH  17  18
HETATM   18  C   UNL     1      40.935 -13.275   0.415  1.00  0.00     0.102 A 
HETATM   19  S   UNL     1      40.062 -14.740   0.488  1.00  0.00    -0.071 SA
HETATM   20  C   UNL     1      41.202 -15.357   1.623  1.00  0.00     0.035 A 
HETATM   21  C   UNL     1      42.180 -14.387   1.861  1.00  0.00     0.074 A 
HETATM   22  C   UNL     1      41.229 -16.609   2.258  1.00  0.00     0.021 A 
HETATM   23  N   UNL     1      42.017 -13.196   1.164  1.00  0.00    -0.243 NA
HETATM   24  C   UNL     1      43.220 -14.680   2.764  1.00  0.00     0.033 A 
HETATM   25  C   UNL     1      43.256 -15.925   3.402  1.00  0.00     0.002 A 
HETATM   26  C   UNL     1      42.271 -16.875   3.149  1.00  0.00     0.002 A 
ENDBRANCH  17  18
ENDBRANCH  14  17
ENDBRANCH  13  14
ENDBRANCH  10  13
ENDBRANCH   1   9
BRANCH   5  27
HETATM   27  C   UNL     1      42.265 -12.968   6.192  1.00  0.00    -0.016 A 
HETATM   28  C   UNL     1      43.165 -13.831   6.845  1.00  0.00     0.010 A 
HETATM   29  C   UNL     1      42.856 -15.179   7.049  1.00  0.00     0.001 A 
HETATM   30  C   UNL     1      41.637 -15.692   6.619  1.00  0.00     0.000 A 
HETATM   31  C   UNL     1      40.720 -14.855   5.994  1.00  0.00     0.001 A 
HETATM   32  C   UNL     1      41.025 -13.507   5.790  1.00  0.00     0.010 A 
ENDBRANCH   5  27
BRANCH   5  33
HETATM   33  C   UNL     1      43.794 -11.021   6.802  1.00  0.00    -0.016 A 
HETATM   34  C   UNL     1      45.115 -11.285   6.393  1.00  0.00     0.010 A 
HETATM   35  C   UNL     1      46.209 -10.849   7.148  1.00  0.00     0.001 A 
HETATM   36  C   UNL     1      46.010 -10.130   8.321  1.00  0.00     0.000 A 
HETATM   37  C   UNL     1      44.717  -9.835   8.736  1.00  0.00     0.001 A 
HETATM   38  C   UNL     1      43.623 -10.267   7.981  1.00  0.00     0.010 A 
ENDBRANCH   5  33
TORSDOF 7
ENDMDL
MODEL 4
REMARK VINA RESULT:      -9.4      4.109      9.404
REMARK  7 active torsions:
REMARK  status: ('A' for Active; 'I' for Inactive)
REMARK    1  A    between atoms: N_2  and  C_4 
REMARK    2  A    between atoms: N_2  and  C_27 
REMARK    3  A    between atoms: C_4  and  C_5 
REMARK       I    between atoms: C_5  and  N_6 
REMARK    4  A    between atoms: N_6  and  N_7 
REMARK    5  A    between atoms: C_11  and  C_12 
REMARK    6  A    between atoms: C_11  and  C_18 
REMARK    7  A    between atoms: C_27  and  C_28 
ROOT
HETATM    1  N   UNL     1      40.007  -8.161   9.429  1.00  0.00    -0.167 N 
HETATM    2  C   UNL     1      39.914  -9.465   9.821  1.00  0.00     0.346 C 
HETATM    3  O   UNL     1      38.985 -10.225   9.605  1.00  0.00    -0.245 OA
HETATM    4  N   UNL     1      41.021  -9.777  10.563  1.00  0.00    -0.315 N 
HETATM    5  C   UNL     1      41.877  -8.632  10.867  1.00  0.00     0.173 C 
HETATM    6  C   UNL     1      41.044  -7.543  10.088  1.00  0.00     0.285 C 
HETATM    7  O   UNL     1      41.254  -6.333  10.028  1.00  0.00    -0.267 OA
HETATM    8  H   UNL     1      41.107 -10.693  10.980  1.00  0.00     0.166 HD
ENDROOT
BRANCH   1   9
HETATM    9  N   UNL     1      38.880  -7.477   8.983  1.00  0.00    -0.255 N 
HETATM   10  C   UNL     1      38.686  -7.044   7.701  1.00  0.00     0.262 C 
HETATM   11  O   UNL     1      37.581  -6.607   7.372  1.00  0.00    -0.270 OA
HETATM   12  H   UNL     1      38.063  -7.522   9.591  1.00  0.00     0.191 HD
BRANCH  10  13
HETATM   13  C   UNL     1      39.842  -7.103   6.696  1.00  0.00     0.338 C 
BRANCH  13  14
HETATM   14  N   UNL     1      39.690  -8.162   5.592  1.00  0.00    -0.061 N 
HETATM   15  C   UNL     1      38.892  -7.683   4.421  1.00  0.00     0.270 C 
HETATM   16  H   UNL     1      40.654  -8.336   5.268  1.00  0.00     0.280 HD
BRANCH  14  17
HETATM   17  C   UNL     1      39.237  -9.524   6.105  1.00  0.00     0.301 C 
BRANCH  17  18
HETATM   18  C   UNL     1      40.391 -10.482   6.169  1.00  0.00     0.102 A 
HETATM   19  S   UNL     1      40.198 -12.126   5.754  1.00  0.00    -0.071 SA
HETATM   20  C   UNL     1      41.862 -12.406   6.103  1.00  0.00     0.035 A 
HETATM   21  C   UNL     1      42.450 -11.205   6.511  1.00  0.00     0.074 A 
HETATM   22  C   UNL     1      42.594 -13.601   6.021  1.00  0.00     0.021 A 
HETATM   23  N   UNL     1      41.597 -10.108   6.547  1.00  0.00    -0.243 NA
HETATM   24  C   UNL     1      43.817 -11.200   6.849  1.00  0.00     0.033 A 
HETATM   25  C   UNL     1      44.556 -12.385   6.771  1.00  0.00     0.002 A 
HETATM   26  C   UNL     1      43.949 -13.569   6.362  1.00  0.00     0.002 A 
ENDBRANCH  17  18
ENDBRANCH  14  17
ENDBRANCH  13  14
ENDBRANCH  10  13
ENDBRANCH   1   9
BRANCH   5  27
HETATM   27  C   UNL     1      43.277  -8.844  10.274  1.00  0.00    -0.016 A 
HETATM   28  C   UNL     1      44.119  -9.882  10.715  1.00  0.00     0.010 A 
HETATM   29  C   UNL     1      45.381 -10.080  10.147  1.00  0.00     0.001 A 
HETATM   30  C   UNL     1      45.824  -9.257   9.117  1.00  0.00     0.000 A 
HETATM   31  C   UNL     1      45.001  -8.240   8.646  1.00  0.00     0.001 A 
HETATM   32  C   UNL     1      43.739  -8.040   9.211  1.00  0.00     0.010 A 
ENDBRANCH   5  27
BRANCH   5  33
HETATM   33  C   UNL     1      41.922  -8.328  12.372  1.00  0.00    -0.016 A 
HETATM   34  C   UNL     1      41.053  -8.951  13.289  1.00  0.00     0.010 A 
HETATM   35  C   UNL     1      41.118  -8.665  14.656  1.00  0.00     0.001 A 
HETATM   36  C   UNL     1      42.057  -7.762  15.141  1.00  0.00     0.000 A 
HETATM   37  C   UNL     1      42.942  -7.151  14.262  1.00  0.00     0.001 A 
HETATM   38  C   UNL     1      42.881  -7.437  12.896  1.00  0.00     0.010 A 
ENDBRANCH   5  33
TORSDOF 7
ENDMDL
MODEL 5
REMARK VINA RESULT:      -9.2      4.105      7.137
REMARK  7 active torsions:
REMARK  status: ('A' for Active; 'I' for Inactive)
REMARK    1  A    between atoms: N_2  and  C_4 
REMARK    2  A    between atoms: N_2  and  C_27 
REMARK    3  A    between atoms: C_4  and  C_5 
REMARK       I    between atoms: C_5  and  N_6 
REMARK    4  A    between atoms: N_6  and  N_7 
REMARK    5  A    between atoms: C_11  and  C_12 
REMARK    6  A    between atoms: C_11  and  C_18 
REMARK    7  A    between atoms: C_27  and  C_28 
ROOT
HETATM    1  N   UNL     1      41.754 -13.645   5.580  1.00  0.00    -0.167 N 
HETATM    2  C   UNL     1      42.750 -13.054   4.859  1.00  0.00     0.346 C 
HETATM    3  O   UNL     1      43.234 -11.951   5.053  1.00  0.00    -0.245 OA
HETATM    4  N   UNL     1      43.087 -13.882   3.823  1.00  0.00    -0.315 N 
HETATM    5  C   UNL     1      42.209 -15.041   3.675  1.00  0.00     0.173 C 
HETATM    6  C   UNL     1      41.272 -14.744   4.908  1.00  0.00     0.285 C 
HETATM    7  O   UNL     1      40.278 -15.370   5.268  1.00  0.00    -0.267 OA
HETATM    8  H   UNL     1      43.780 -13.590   3.149  1.00  0.00     0.166 HD
ENDROOT
BRANCH   1   9
HETATM    9  N   UNL     1      40.975 -12.892   6.455  1.00  0.00    -0.255 N 
HETATM   10  C   UNL     1      39.839 -12.219   6.107  1.00  0.00     0.262 C 
HETATM   11  O   UNL     1      39.129 -11.732   6.991  1.00  0.00    -0.270 OA
HETATM   12  H   UNL     1      41.135 -13.060   7.448  1.00  0.00     0.191 HD
BRANCH  10  13
HETATM   13  C   UNL     1      39.464 -12.074   4.627  1.00  0.00     0.338 C 
BRANCH  13  14
HETATM   14  N   UNL     1      39.860 -10.736   3.983  1.00  0.00    -0.061 N 
HETATM   15  C   UNL     1      40.485  -9.780   4.948  1.00  0.00     0.270 C 
HETATM   16  H   UNL     1      40.574 -10.991   3.282  1.00  0.00     0.280 HD
BRANCH  14  17
HETATM   17  C   UNL     1      38.752 -10.103   3.149  1.00  0.00     0.301 C 
BRANCH  17  18
HETATM   18  C   UNL     1      38.894 -10.476   1.702  1.00  0.00     0.102 A 
HETATM   19  S   UNL     1      40.217  -9.926   0.774  1.00  0.00    -0.071 SA
HETATM   20  C   UNL     1      39.593 -10.755  -0.601  1.00  0.00     0.035 A 
HETATM   21  C   UNL     1      38.407 -11.404  -0.243  1.00  0.00     0.074 A 
HETATM   22  C   UNL     1      40.114 -10.828  -1.902  1.00  0.00     0.021 A 
HETATM   23  N   UNL     1      38.014 -11.236   1.080  1.00  0.00    -0.243 NA
HETATM   24  C   UNL     1      37.720 -12.149  -1.220  1.00  0.00     0.033 A 
HETATM   25  C   UNL     1      38.231 -12.228  -2.520  1.00  0.00     0.002 A 
HETATM   26  C   UNL     1      39.413 -11.574  -2.853  1.00  0.00     0.002 A 
ENDBRANCH  17  18
ENDBRANCH  14  17
ENDBRANCH  13  14
ENDBRANCH  10  13
ENDBRANCH   1   9
BRANCH   5  27
HETATM   27  C   UNL     1      43.012 -16.339   3.840  1.00  0.00    -0.016 A 
HETATM   28  C   UNL     1      43.465 -16.775   5.099  1.00  0.00     0.010 A 
HETATM   29  C   UNL     1      44.174 -17.972   5.239  1.00  0.00     0.001 A 
HETATM   30  C   UNL     1      44.432 -18.767   4.127  1.00  0.00     0.000 A 
HETATM   31  C   UNL     1      43.974 -18.372   2.876  1.00  0.00     0.001 A 
HETATM   32  C   UNL     1      43.265 -17.176   2.733  1.00  0.00     0.010 A 
ENDBRANCH   5  27
BRANCH   5  33
HETATM   33  C   UNL     1      41.422 -15.006   2.357  1.00  0.00    -0.016 A 
HETATM   34  C   UNL     1      40.424 -15.952   2.054  1.00  0.00     0.010 A 
HETATM   35  C   UNL     1      39.713 -15.895   0.851  1.00  0.00     0.001 A 
HETATM   36  C   UNL     1      39.973 -14.888  -0.071  1.00  0.00     0.000 A 
HETATM   37  C   UNL     1      40.936 -13.927   0.212  1.00  0.00     0.001 A 
HETATM   38  C   UNL     1      41.645 -13.981   1.415  1.00  0.00     0.010 A 
ENDBRANCH   5  33
TORSDOF 7
ENDMDL
MODEL 6
REMARK VINA RESULT:      -9.2      3.534      7.158
REMARK  7 active torsions:
REMARK  status: ('A' for Active; 'I' for Inactive)
REMARK    1  A    between atoms: N_2  and  C_4 
REMARK    2  A    between atoms: N_2  and  C_27 
REMARK    3  A    between atoms: C_4  and  C_5 
REMARK       I    between atoms: C_5  and  N_6 
REMARK    4  A    between atoms: N_6  and  N_7 
REMARK    5  A    between atoms: C_11  and  C_12 
REMARK    6  A    between atoms: C_11  and  C_18 
REMARK    7  A    between atoms: C_27  and  C_28 
ROOT
HETATM    1  N   UNL     1      41.531 -13.194   5.291  1.00  0.00    -0.167 N 
HETATM    2  C   UNL     1      40.519 -14.050   5.616  1.00  0.00     0.346 C 
HETATM    3  O   UNL     1      39.815 -14.000   6.610  1.00  0.00    -0.245 OA
HETATM    4  N   UNL     1      40.458 -15.032   4.665  1.00  0.00    -0.315 N 
HETATM    5  C   UNL     1      41.554 -14.997   3.698  1.00  0.00     0.173 C 
HETATM    6  C   UNL     1      42.283 -13.719   4.266  1.00  0.00     0.285 C 
HETATM    7  O   UNL     1      43.336 -13.218   3.880  1.00  0.00    -0.267 OA
HETATM    8  H   UNL     1      39.795 -15.788   4.763  1.00  0.00     0.166 HD
ENDROOT
BRANCH   1   9
HETATM    9  N   UNL     1      42.055 -12.326   6.245  1.00  0.00    -0.255 N 
HETATM   10  C   UNL     1      41.782 -10.989   6.318  1.00  0.00     0.262 C 
HETATM   11  O   UNL     1      42.155 -10.349   7.304  1.00  0.00    -0.270 OA
HETATM   12  H   UNL     1      42.466 -12.766   7.068  1.00  0.00     0.191 HD
BRANCH  10  13
HETATM   13  C   UNL     1      41.022 -10.305   5.175  1.00  0.00     0.338 C 
BRANCH  13  14
HETATM   14  N   UNL     1      39.729  -9.586   5.593  1.00  0.00    -0.061 N 
HETATM   15  C   UNL     1      38.646 -10.522   6.024  1.00  0.00     0.270 C 
HETATM   16  H   UNL     1      40.004  -9.020   6.412  1.00  0.00     0.280 HD
BRANCH  14  17
HETATM   17  C   UNL     1      39.252  -8.544   4.587  1.00  0.00     0.301 C 
BRANCH  17  18
HETATM   18  C   UNL     1      39.112  -9.148   3.220  1.00  0.00     0.102 A 
HETATM   19  S   UNL     1      40.171  -8.717   1.952  1.00  0.00    -0.071 SA
HETATM   20  C   UNL     1      39.329  -9.783   0.892  1.00  0.00     0.035 A 
HETATM   21  C   UNL     1      38.290 -10.400   1.596  1.00  0.00     0.074 A 
HETATM   22  C   UNL     1      39.569 -10.054  -0.464  1.00  0.00     0.021 A 
HETATM   23  N   UNL     1      38.174 -10.027   2.930  1.00  0.00    -0.243 NA
HETATM   24  C   UNL     1      37.464 -11.319   0.920  1.00  0.00     0.033 A 
HETATM   25  C   UNL     1      37.696 -11.596  -0.431  1.00  0.00     0.002 A 
HETATM   26  C   UNL     1      38.736 -10.969  -1.112  1.00  0.00     0.002 A 
ENDBRANCH  17  18
ENDBRANCH  14  17
ENDBRANCH  13  14
ENDBRANCH  10  13
ENDBRANCH   1   9
BRANCH   5  27
HETATM   27  C   UNL     1      41.004 -14.786   2.281  1.00  0.00    -0.016 A 
HETATM   28  C   UNL     1      41.399 -13.693   1.489  1.00  0.00     0.010 A 
HETATM   29  C   UNL     1      40.910 -13.526   0.189  1.00  0.00     0.001 A 
HETATM   30  C   UNL     1      40.027 -14.455  -0.352  1.00  0.00     0.000 A 
HETATM   31  C   UNL     1      39.641 -15.558   0.401  1.00  0.00     0.001 A 
HETATM   32  C   UNL     1      40.129 -15.727   1.699  1.00  0.00     0.010 A 
ENDBRANCH   5  27
BRANCH   5  33
HETATM   33  C   UNL     1      42.451 -16.239   3.797  1.00  0.00    -0.016 A 
HETATM   34  C   UNL     1      42.871 -16.765   5.034  1.00  0.00     0.010 A 
HETATM   35  C   UNL     1      43.682 -17.903   5.100  1.00  0.00     0.001 A 
HETATM   36  C   UNL     1      44.081 -18.549   3.936  1.00  0.00     0.000 A 
HETATM   37  C   UNL     1      43.661 -18.066   2.702  1.00  0.00     0.001 A 
HETATM   38  C   UNL     1      42.849 -16.930   2.634  1.00  0.00     0.010 A 
ENDBRANCH   5  33
TORSDOF 7
ENDMDL
MODEL 7
REMARK VINA RESULT:      -9.2      4.187      5.603
REMARK  7 active torsions:
REMARK  status: ('A' for Active; 'I' for Inactive)
REMARK    1  A    between atoms: N_2  and  C_4 
REMARK    2  A    between atoms: N_2  and  C_27 
REMARK    3  A    between atoms: C_4  and  C_5 
REMARK       I    between atoms: C_5  and  N_6 
REMARK    4  A    between atoms: N_6  and  N_7 
REMARK    5  A    between atoms: C_11  and  C_12 
REMARK    6  A    between atoms: C_11  and  C_18 
REMARK    7  A    between atoms: C_27  and  C_28 
ROOT
HETATM    1  N   UNL     1      40.336 -10.509   1.309  1.00  0.00    -0.167 N 
HETATM    2  C   UNL     1      41.367 -10.651   0.426  1.00  0.00     0.346 C 
HETATM    3  O   UNL     1      42.125  -9.775   0.046  1.00  0.00    -0.245 OA
HETATM    4  N   UNL     1      41.380 -11.943  -0.023  1.00  0.00    -0.315 N 
HETATM    5  C   UNL     1      40.232 -12.739   0.410  1.00  0.00     0.173 C 
HETATM    6  C   UNL     1      39.530 -11.624   1.278  1.00  0.00     0.285 C 
HETATM    7  O   UNL     1      38.455 -11.694   1.869  1.00  0.00    -0.267 OA
HETATM    8  H   UNL     1      42.051 -12.227  -0.724  1.00  0.00     0.166 HD
ENDROOT
BRANCH   1   9
HETATM    9  N   UNL     1      39.861  -9.243   1.642  1.00  0.00    -0.255 N 
HETATM   10  C   UNL     1      40.029  -8.641   2.857  1.00  0.00     0.262 C 
HETATM   11  O   UNL     1      39.726  -7.453   2.990  1.00  0.00    -0.270 OA
HETATM   12  H   UNL     1      39.590  -8.650   0.858  1.00  0.00     0.191 HD
BRANCH  10  13
HETATM   13  C   UNL     1      40.587  -9.449   4.035  1.00  0.00     0.338 C 
BRANCH  13  14
HETATM   14  N   UNL     1      39.555 -10.310   4.780  1.00  0.00    -0.061 N 
HETATM   15  C   UNL     1      38.173  -9.738   4.743  1.00  0.00     0.270 C 
HETATM   16  H   UNL     1      39.542 -11.202   4.262  1.00  0.00     0.280 HD
BRANCH  14  17
HETATM   17  C   UNL     1      39.993 -10.719   6.182  1.00  0.00     0.301 C 
BRANCH  17  18
HETATM   18  C   UNL     1      40.637 -12.075   6.166  1.00  0.00     0.102 A 
HETATM   19  S   UNL     1      42.317 -12.251   5.922  1.00  0.00    -0.071 SA
HETATM   20  C   UNL     1      42.152 -13.961   6.041  1.00  0.00     0.035 A 
HETATM   21  C   UNL     1      40.808 -14.275   6.265  1.00  0.00     0.074 A 
HETATM   22  C   UNL     1      43.139 -14.955   5.942  1.00  0.00     0.021 A 
HETATM   23  N   UNL     1      39.947 -13.186   6.333  1.00  0.00    -0.243 NA
HETATM   24  C   UNL     1      40.440 -15.628   6.395  1.00  0.00     0.033 A 
HETATM   25  C   UNL     1      41.416 -16.625   6.298  1.00  0.00     0.002 A 
HETATM   26  C   UNL     1      42.748 -16.289   6.074  1.00  0.00     0.002 A 
ENDBRANCH  17  18
ENDBRANCH  14  17
ENDBRANCH  13  14
ENDBRANCH  10  13
ENDBRANCH   1   9
BRANCH   5  27
HETATM   27  C   UNL     1      40.703 -13.934   1.249  1.00  0.00    -0.016 A 
HETATM   28  C   UNL     1      39.792 -14.789   1.898  1.00  0.00     0.010 A 
HETATM   29  C   UNL     1      40.234 -15.890   2.638  1.00  0.00     0.001 A 
HETATM   30  C   UNL     1      41.592 -16.170   2.735  1.00  0.00     0.000 A 
HETATM   31  C   UNL     1      42.512 -15.357   2.083  1.00  0.00     0.001 A 
HETATM   32  C   UNL     1      42.073 -14.257   1.341  1.00  0.00     0.010 A 
ENDBRANCH   5  27
BRANCH   5  33
HETATM   33  C   UNL     1      39.347 -13.166  -0.769  1.00  0.00    -0.016 A 
HETATM   34  C   UNL     1      38.257 -12.390  -1.208  1.00  0.00     0.010 A 
HETATM   35  C   UNL     1      37.469 -12.795  -2.290  1.00  0.00     0.001 A 
HETATM   36  C   UNL     1      37.757 -13.974  -2.966  1.00  0.00     0.000 A 
HETATM   37  C   UNL     1      38.842 -14.747  -2.570  1.00  0.00     0.001 A 
HETATM   38  C   UNL     1      39.632 -14.344  -1.490  1.00  0.00     0.010 A 
ENDBRANCH   5  33
TORSDOF 7
ENDMDL
MODEL 8
REMARK VINA RESULT:      -9.1      2.330      4.573
REMARK  7 active torsions:
REMARK  status: ('A' for Active; 'I' for Inactive)
REMARK    1  A    between atoms: N_2  and  C_4 
REMARK    2  A    between atoms: N_2  and  C_27 
REMARK    3  A    between atoms: C_4  and  C_5 
REMARK       I    between atoms: C_5  and  N_6 
REMARK    4  A    between atoms: N_6  and  N_7 
REMARK    5  A    between atoms: C_11  and  C_12 
REMARK    6  A    between atoms: C_11  and  C_18 
REMARK    7  A    between atoms: C_27  and  C_28 
ROOT
HETATM    1  N   UNL     1      41.641 -13.218   5.261  1.00  0.00    -0.167 N 
HETATM    2  C   UNL     1      40.591 -14.035   5.564  1.00  0.00     0.346 C 
HETATM    3  O   UNL     1      39.882 -13.972   6.554  1.00  0.00    -0.245 OA
HETATM    4  N   UNL     1      40.495 -14.996   4.595  1.00  0.00    -0.315 N 
HETATM    5  C   UNL     1      41.598 -14.992   3.636  1.00  0.00     0.173 C 
HETATM    6  C   UNL     1      42.378 -13.756   4.231  1.00  0.00     0.285 C 
HETATM    7  O   UNL     1      43.455 -13.295   3.861  1.00  0.00    -0.267 OA
HETATM    8  H   UNL     1      39.799 -15.724   4.674  1.00  0.00     0.166 HD
ENDROOT
BRANCH   1   9
HETATM    9  N   UNL     1      42.195 -12.390   6.234  1.00  0.00    -0.255 N 
HETATM   10  C   UNL     1      41.965 -11.048   6.341  1.00  0.00     0.262 C 
HETATM   11  O   UNL     1      42.361 -10.444   7.341  1.00  0.00    -0.270 OA
HETATM   12  H   UNL     1      42.596 -12.863   7.044  1.00  0.00     0.191 HD
BRANCH  10  13
HETATM   13  C   UNL     1      41.222 -10.312   5.219  1.00  0.00     0.338 C 
BRANCH  13  14
HETATM   14  N   UNL     1      39.688 -10.371   5.307  1.00  0.00    -0.061 N 
HETATM   15  C   UNL     1      39.045 -10.880   4.057  1.00  0.00     0.270 C 
HETATM   16  H   UNL     1      39.500 -11.051   6.061  1.00  0.00     0.280 HD
BRANCH  14  17
HETATM   17  C   UNL     1      39.052  -9.085   5.824  1.00  0.00     0.301 C 
BRANCH  17  18
HETATM   18  C   UNL     1      39.357  -8.886   7.280  1.00  0.00     0.102 A 
HETATM   19  S   UNL     1      40.129  -7.468   7.834  1.00  0.00    -0.071 SA
HETATM   20  C   UNL     1      40.073  -8.072   9.447  1.00  0.00     0.035 A 
HETATM   21  C   UNL     1      39.456  -9.327   9.442  1.00  0.00     0.074 A 
HETATM   22  C   UNL     1      40.541  -7.479  10.630  1.00  0.00     0.021 A 
HETATM   23  N   UNL     1      39.050  -9.785   8.194  1.00  0.00    -0.243 NA
HETATM   24  C   UNL     1      39.302 -10.011  10.664  1.00  0.00     0.033 A 
HETATM   25  C   UNL     1      39.765  -9.429  11.848  1.00  0.00     0.002 A 
HETATM   26  C   UNL     1      40.376  -8.179  11.828  1.00  0.00     0.002 A 
ENDBRANCH  17  18
ENDBRANCH  14  17
ENDBRANCH  13  14
ENDBRANCH  10  13
ENDBRANCH   1   9
BRANCH   5  27
HETATM   27  C   UNL     1      41.068 -14.731   2.219  1.00  0.00    -0.016 A 
HETATM   28  C   UNL     1      40.202 -15.634   1.576  1.00  0.00     0.010 A 
HETATM   29  C   UNL     1      39.705 -15.372   0.294  1.00  0.00     0.001 A 
HETATM   30  C   UNL     1      40.051 -14.198  -0.365  1.00  0.00     0.000 A 
HETATM   31  C   UNL     1      40.886 -13.277   0.260  1.00  0.00     0.001 A 
HETATM   32  C   UNL     1      41.382 -13.536   1.540  1.00  0.00     0.010 A 
ENDBRANCH   5  27
BRANCH   5  33
HETATM   33  C   UNL     1      42.440 -16.273   3.718  1.00  0.00    -0.016 A 
HETATM   34  C   UNL     1      42.845 -16.978   2.568  1.00  0.00     0.010 A 
HETATM   35  C   UNL     1      43.620 -18.139   2.666  1.00  0.00     0.001 A 
HETATM   36  C   UNL     1      44.018 -18.614   3.910  1.00  0.00     0.000 A 
HETATM   37  C   UNL     1      43.653 -17.924   5.059  1.00  0.00     0.001 A 
HETATM   38  C   UNL     1      42.881 -16.763   4.964  1.00  0.00     0.010 A 
ENDBRANCH   5  33
TORSDOF 7
ENDMDL
MODEL 9
REMARK VINA RESULT:      -8.9      3.928      7.516
REMARK  7 active torsions:
REMARK  status: ('A' for Active; 'I' for Inactive)
REMARK    1  A    between atoms: N_2  and  C_4 
REMARK    2  A    between atoms: N_2  and  C_27 
REMARK    3  A    between atoms: C_4  and  C_5 
REMARK       I    between atoms: C_5  and  N_6 
REMARK    4  A    between atoms: N_6  and  N_7 
REMARK    5  A    between atoms: C_11  and  C_12 
REMARK    6  A    between atoms: C_11  and  C_18 
REMARK    7  A    between atoms: C_27  and  C_28 
ROOT
HETATM    1  N   UNL     1      41.525 -10.707   3.431  1.00  0.00    -0.167 N 
HETATM    2  C   UNL     1      40.536 -11.102   4.284  1.00  0.00     0.346 C 
HETATM    3  O   UNL     1      40.569 -11.069   5.503  1.00  0.00    -0.245 OA
HETATM    4  N   UNL     1      39.503 -11.611   3.545  1.00  0.00    -0.315 N 
HETATM    5  C   UNL     1      39.798 -11.747   2.120  1.00  0.00     0.173 C 
HETATM    6  C   UNL     1      41.258 -11.152   2.158  1.00  0.00     0.285 C 
HETATM    7  O   UNL     1      42.058 -11.057   1.230  1.00  0.00    -0.267 OA
HETATM    8  H   UNL     1      38.694 -11.999   4.010  1.00  0.00     0.166 HD
ENDROOT
BRANCH   1   9
HETATM    9  N   UNL     1      42.819 -10.493   3.902  1.00  0.00    -0.255 N 
HETATM   10  C   UNL     1      43.680 -11.479   4.292  1.00  0.00     0.262 C 
HETATM   11  O   UNL     1      44.858 -11.196   4.522  1.00  0.00    -0.270 OA
HETATM   12  H   UNL     1      43.214  -9.573   3.711  1.00  0.00     0.191 HD
BRANCH  10  13
HETATM   13  C   UNL     1      43.172 -12.918   4.441  1.00  0.00     0.338 C 
BRANCH  13  14
HETATM   14  N   UNL     1      42.749 -13.315   5.864  1.00  0.00    -0.061 N 
HETATM   15  C   UNL     1      43.908 -13.544   6.781  1.00  0.00     0.270 C 
HETATM   16  H   UNL     1      42.225 -12.497   6.214  1.00  0.00     0.280 HD
BRANCH  14  17
HETATM   17  C   UNL     1      41.721 -14.440   5.909  1.00  0.00     0.301 C 
BRANCH  17  18
HETATM   18  C   UNL     1      42.327 -15.735   5.453  1.00  0.00     0.102 A 
HETATM   19  S   UNL     1      42.854 -16.907   6.576  1.00  0.00    -0.071 SA
HETATM   20  C   UNL     1      43.351 -17.924   5.277  1.00  0.00     0.035 A 
HETATM   21  C   UNL     1      43.070 -17.285   4.065  1.00  0.00     0.074 A 
HETATM   22  C   UNL     1      43.948 -19.194   5.325  1.00  0.00     0.021 A 
HETATM   23  N   UNL     1      42.483 -16.030   4.177  1.00  0.00    -0.243 NA
HETATM   24  C   UNL     1      43.396 -17.940   2.861  1.00  0.00     0.033 A 
HETATM   25  C   UNL     1      43.990 -19.205   2.899  1.00  0.00     0.002 A 
HETATM   26  C   UNL     1      44.262 -19.821   4.117  1.00  0.00     0.002 A 
ENDBRANCH  17  18
ENDBRANCH  14  17
ENDBRANCH  13  14
ENDBRANCH  10  13
ENDBRANCH   1   9
BRANCH   5  27
HETATM   27  C   UNL     1      38.829 -10.889   1.294  1.00  0.00    -0.016 A 
HETATM   28  C   UNL     1      39.283  -9.834   0.481  1.00  0.00     0.010 A 
HETATM   29  C   UNL     1      38.393  -9.077  -0.286  1.00  0.00     0.001 A 
HETATM   30  C   UNL     1      37.032  -9.365  -0.270  1.00  0.00     0.000 A 
HETATM   31  C   UNL     1      36.561 -10.419   0.506  1.00  0.00     0.001 A 
HETATM   32  C   UNL     1      37.449 -11.178   1.273  1.00  0.00     0.010 A 
ENDBRANCH   5  27
BRANCH   5  33
HETATM   33  C   UNL     1      39.806 -13.215   1.669  1.00  0.00    -0.016 A 
HETATM   34  C   UNL     1      39.860 -13.581   0.310  1.00  0.00     0.010 A 
HETATM   35  C   UNL     1      39.875 -14.925  -0.078  1.00  0.00     0.001 A 
HETATM   36  C   UNL     1      39.851 -15.932   0.880  1.00  0.00     0.000 A 
HETATM   37  C   UNL     1      39.823 -15.599   2.229  1.00  0.00     0.001 A 
HETATM   38  C   UNL     1      39.809 -14.257   2.618  1.00  0.00     0.010 A 
ENDBRANCH   5  33
TORSDOF 7
ENDMDL
MODEL 10
REMARK VINA RESULT:      -8.8      2.431      3.419
REMARK  7 active torsions:
REMARK  status: ('A' for Active; 'I' for Inactive)
REMARK    1  A    between atoms: N_2  and  C_4 
REMARK    2  A    between atoms: N_2  and  C_27 
REMARK    3  A    between atoms: C_4  and  C_5 
REMARK       I    between atoms: C_5  and  N_6 
REMARK    4  A    between atoms: N_6  and  N_7 
REMARK    5  A    between atoms: C_11  and  C_12 
REMARK    6  A    between atoms: C_11  and  C_18 
REMARK    7  A    between atoms: C_27  and  C_28 
ROOT
HETATM    1  N   UNL     1      41.736 -14.046   5.485  1.00  0.00    -0.167 N 
HETATM    2  C   UNL     1      42.784 -13.456   4.841  1.00  0.00     0.346 C 
HETATM    3  O   UNL     1      43.343 -12.420   5.156  1.00  0.00    -0.245 OA
HETATM    4  N   UNL     1      43.078 -14.192   3.725  1.00  0.00    -0.315 N 
HETATM    5  C   UNL     1      42.121 -15.262   3.445  1.00  0.00     0.173 C 
HETATM    6  C   UNL     1      41.187 -15.029   4.695  1.00  0.00     0.285 C 
HETATM    7  O   UNL     1      40.144 -15.615   4.977  1.00  0.00    -0.267 OA
HETATM    8  H   UNL     1      43.802 -13.882   3.092  1.00  0.00     0.166 HD
ENDROOT
BRANCH   1   9
HETATM    9  N   UNL     1      40.998 -13.336   6.429  1.00  0.00    -0.255 N 
HETATM   10  C   UNL     1      40.007 -12.443   6.135  1.00  0.00     0.262 C 
HETATM   11  O   UNL     1      39.299 -12.004   7.044  1.00  0.00    -0.270 OA
HETATM   12  H   UNL     1      41.044 -13.688   7.385  1.00  0.00     0.191 HD
BRANCH  10  13
HETATM   13  C   UNL     1      39.790 -11.999   4.683  1.00  0.00     0.338 C 
BRANCH  13  14
HETATM   14  N   UNL     1      39.711 -10.478   4.473  1.00  0.00    -0.061 N 
HETATM   15  C   UNL     1      38.675 -10.074   3.474  1.00  0.00     0.270 C 
HETATM   16  H   UNL     1      39.426 -10.107   5.393  1.00  0.00     0.280 HD
BRANCH  14  17
HETATM   17  C   UNL     1      41.064  -9.820   4.228  1.00  0.00     0.301 C 
BRANCH  17  18
HETATM   18  C   UNL     1      41.508  -9.047   5.436  1.00  0.00     0.102 A 
HETATM   19  S   UNL     1      41.081  -7.406   5.639  1.00  0.00    -0.071 SA
HETATM   20  C   UNL     1      41.945  -7.371   7.130  1.00  0.00     0.035 A 
HETATM   21  C   UNL     1      42.499  -8.633   7.366  1.00  0.00     0.074 A 
HETATM   22  C   UNL     1      42.120  -6.304   8.025  1.00  0.00     0.021 A 
HETATM   23  N   UNL     1      42.243  -9.586   6.388  1.00  0.00    -0.243 NA
HETATM   24  C   UNL     1      43.253  -8.833   8.538  1.00  0.00     0.033 A 
HETATM   25  C   UNL     1      43.434  -7.777   9.437  1.00  0.00     0.002 A 
HETATM   26  C   UNL     1      42.873  -6.529   9.180  1.00  0.00     0.002 A 
ENDBRANCH  17  18
ENDBRANCH  14  17
ENDBRANCH  13  14
ENDBRANCH  10  13
ENDBRANCH   1   9
BRANCH   5  27
HETATM   27  C   UNL     1      42.825 -16.625   3.477  1.00  0.00    -0.016 A 
HETATM   28  C   UNL     1      42.758 -17.519   2.393  1.00  0.00     0.010 A 
HETATM   29  C   UNL     1      43.426 -18.747   2.425  1.00  0.00     0.001 A 
HETATM   30  C   UNL     1      44.187 -19.102   3.533  1.00  0.00     0.000 A 
HETATM   31  C   UNL     1      44.291 -18.226   4.607  1.00  0.00     0.001 A 
HETATM   32  C   UNL     1      43.625 -16.998   4.578  1.00  0.00     0.010 A 
ENDBRANCH   5  27
BRANCH   5  33
HETATM   33  C   UNL     1      41.361 -15.028   2.131  1.00  0.00    -0.016 A 
HETATM   34  C   UNL     1      40.376 -15.921   1.666  1.00  0.00     0.010 A 
HETATM   35  C   UNL     1      39.690 -15.684   0.471  1.00  0.00     0.001 A 
HETATM   36  C   UNL     1      39.962 -14.546  -0.280  1.00  0.00     0.000 A 
HETATM   37  C   UNL     1      40.911 -13.637   0.167  1.00  0.00     0.001 A 
HETATM   38  C   UNL     1      41.596 -13.870   1.363  1.00  0.00     0.010 A 
ENDBRANCH   5  33
TORSDOF 7
ENDMDL
