MODEL 1
REMARK VINA RESULT:      -8.2      0.000      0.000
REMARK  3 active torsions:
REMARK  status: ('A' for Active; 'I' for Inactive)
REMARK    1  A    between atoms: C_7  and  C_8 
REMARK    2  A    between atoms: N_9  and  C_11 
REMARK    3  A    between atoms: C_11  and  C_12 
ROOT
HETATM    1  C   UNL     1      42.707 -14.346   6.395  1.00  0.00     0.238 C 
HETATM    2  N   UNL     1      41.885 -13.630   5.337  1.00  0.00    -0.056 N 
HETATM    3  H   UNL     1      42.458 -13.668   4.488  1.00  0.00     0.281 HD
HETATM    4  C   UNL     1      41.672 -12.164   5.641  1.00  0.00     0.236 C 
HETATM    5  C   UNL     1      43.006 -11.459   5.805  1.00  0.00     0.028 C 
HETATM    6  C   UNL     1      43.808 -12.098   6.926  1.00  0.00     0.004 C 
HETATM    7  C   UNL     1      44.020 -13.577   6.643  1.00  0.00     0.040 C 
ENDROOT
BRANCH   2   8
HETATM    8  C   UNL     1      40.582 -14.325   4.956  1.00  0.00     0.294 C 
BRANCH   8   9
HETATM    9  C   UNL     1      40.496 -14.782   3.552  1.00  0.00     0.061 A 
HETATM   10  N   UNL     1      40.107 -14.001   2.481  1.00  0.00    -0.305 N 
HETATM   11  C   UNL     1      40.222 -14.786   1.360  1.00  0.00     0.151 A 
HETATM   12  C   UNL     1      39.676 -12.691   2.355  1.00  0.00     0.118 A 
HETATM   13  C   UNL     1      39.939 -14.206   0.075  1.00  0.00     0.167 A 
HETATM   14  N   UNL     1      40.579 -16.017   1.638  1.00  0.00    -0.239 NA
HETATM   15  N   UNL     1      39.569 -12.959  -0.038  1.00  0.00    -0.268 NA
HETATM   16  C   UNL     1      39.421 -12.219   1.121  1.00  0.00     0.134 A 
HETATM   17  C   UNL     1      40.695 -16.039   2.999  1.00  0.00     0.146 A 
ENDBRANCH   8   9
ENDBRANCH   2   8
BRANCH   1  18
HETATM   18  C   UNL     1      43.056 -15.743   5.983  1.00  0.00     0.041 A 
HETATM   19  N   UNL     1      42.831 -16.823   6.811  1.00  0.00    -0.357 N 
HETATM   20  C   UNL     1      43.275 -17.983   6.221  1.00  0.00     0.042 A 
HETATM   21  H   UNL     1      42.415 -16.796   7.735  1.00  0.00     0.166 HD
HETATM   22  C   UNL     1      43.834 -17.638   4.993  1.00  0.00    -0.008 A 
HETATM   23  C   UNL     1      43.246 -19.302   6.690  1.00  0.00     0.030 A 
HETATM   24  C   UNL     1      44.395 -18.647   4.190  1.00  0.00     0.014 A 
HETATM   25  C   UNL     1      43.700 -16.230   4.857  1.00  0.00     0.040 A 
HETATM   26  C   UNL     1      44.376 -19.971   4.644  1.00  0.00     0.001 A 
HETATM   27  C   UNL     1      43.809 -20.290   5.876  1.00  0.00     0.002 A 
ENDBRANCH   1  18
TORSDOF 3
ENDMDL
MODEL 2
REMARK VINA RESULT:      -8.1      2.028      6.678
REMARK  3 active torsions:
REMARK  status: ('A' for Active; 'I' for Inactive)
REMARK    1  A    between atoms: C_7  and  C_8 
REMARK    2  A    between atoms: N_9  and  C_11 
REMARK    3  A    between atoms: C_11  and  C_12 
ROOT
HETATM    1  C   UNL     1      40.780 -12.689   3.232  1.00  0.00     0.238 C 
HETATM    2  N   UNL     1      41.551 -13.769   3.972  1.00  0.00    -0.056 N 
HETATM    3  H   UNL     1      41.011 -14.627   3.820  1.00  0.00     0.281 HD
HETATM    4  C   UNL     1      41.593 -13.551   5.467  1.00  0.00     0.236 C 
HETATM    5  C   UNL     1      40.185 -13.463   6.028  1.00  0.00     0.028 C 
HETATM    6  C   UNL     1      39.424 -12.324   5.372  1.00  0.00     0.004 C 
HETATM    7  C   UNL     1      39.384 -12.520   3.864  1.00  0.00     0.040 C 
ENDROOT
BRANCH   2   8
HETATM    8  C   UNL     1      42.933 -14.075   3.404  1.00  0.00     0.294 C 
BRANCH   8   9
HETATM    9  C   UNL     1      43.166 -15.488   3.035  1.00  0.00     0.061 A 
HETATM   10  N   UNL     1      43.496 -16.499   3.917  1.00  0.00    -0.305 N 
HETATM   11  C   UNL     1      43.563 -17.656   3.181  1.00  0.00     0.151 A 
HETATM   12  C   UNL     1      43.733 -16.543   5.281  1.00  0.00     0.118 A 
HETATM   13  C   UNL     1      43.830 -18.896   3.859  1.00  0.00     0.167 A 
HETATM   14  N   UNL     1      43.377 -17.452   1.899  1.00  0.00    -0.239 NA
HETATM   15  N   UNL     1      44.016 -18.934   5.151  1.00  0.00    -0.268 NA
HETATM   16  C   UNL     1      43.986 -17.738   5.846  1.00  0.00     0.134 A 
HETATM   17  C   UNL     1      43.188 -16.103   1.792  1.00  0.00     0.146 A 
ENDBRANCH   8   9
ENDBRANCH   2   8
BRANCH   1  18
HETATM   18  C   UNL     1      40.598 -13.021   1.784  1.00  0.00     0.041 A 
HETATM   19  N   UNL     1      41.054 -12.188   0.783  1.00  0.00    -0.357 N 
HETATM   20  C   UNL     1      40.728 -12.695  -0.453  1.00  0.00     0.042 A 
HETATM   21  H   UNL     1      41.548 -11.312   0.909  1.00  0.00     0.166 HD
HETATM   22  C   UNL     1      40.011 -13.871  -0.243  1.00  0.00    -0.008 A 
HETATM   23  C   UNL     1      40.991 -12.193  -1.733  1.00  0.00     0.030 A 
HETATM   24  C   UNL     1      39.527 -14.583  -1.356  1.00  0.00     0.014 A 
HETATM   25  C   UNL     1      39.926 -14.061   1.162  1.00  0.00     0.040 A 
HETATM   26  C   UNL     1      39.779 -14.094  -2.642  1.00  0.00     0.001 A 
HETATM   27  C   UNL     1      40.502 -12.916  -2.824  1.00  0.00     0.002 A 
ENDBRANCH   1  18
TORSDOF 3
ENDMDL
MODEL 3
REMARK VINA RESULT:      -7.9      1.950      3.101
REMARK  3 active torsions:
REMARK  status: ('A' for Active; 'I' for Inactive)
REMARK    1  A    between atoms: C_7  and  C_8 
REMARK    2  A    between atoms: N_9  and  C_11 
REMARK    3  A    between atoms: C_11  and  C_12 
ROOT
HETATM    1  C   UNL     1      41.053 -14.009   4.307  1.00  0.00     0.238 C 
HETATM    2  N   UNL     1      41.836 -12.728   4.082  1.00  0.00    -0.056 N 
HETATM    3  H   UNL     1      42.601 -12.763   4.764  1.00  0.00     0.281 HD
HETATM    4  C   UNL     1      41.042 -11.481   4.400  1.00  0.00     0.236 C 
HETATM    5  C   UNL     1      40.544 -11.522   5.833  1.00  0.00     0.028 C 
HETATM    6  C   UNL     1      39.675 -12.748   6.056  1.00  0.00     0.004 C 
HETATM    7  C   UNL     1      40.455 -14.011   5.729  1.00  0.00     0.040 C 
ENDROOT
BRANCH   2   8
HETATM    8  C   UNL     1      42.531 -12.628   2.728  1.00  0.00     0.294 C 
BRANCH   8   9
HETATM    9  C   UNL     1      41.719 -12.039   1.642  1.00  0.00     0.061 A 
HETATM   10  N   UNL     1      40.947 -12.752   0.745  1.00  0.00    -0.305 N 
HETATM   11  C   UNL     1      40.315 -11.829  -0.051  1.00  0.00     0.151 A 
HETATM   12  C   UNL     1      40.714 -14.102   0.541  1.00  0.00     0.118 A 
HETATM   13  C   UNL     1      39.387 -12.290  -1.047  1.00  0.00     0.167 A 
HETATM   14  N   UNL     1      40.679 -10.597   0.216  1.00  0.00    -0.239 NA
HETATM   15  N   UNL     1      39.145 -13.563  -1.208  1.00  0.00    -0.268 NA
HETATM   16  C   UNL     1      39.838 -14.460  -0.415  1.00  0.00     0.134 A 
HETATM   17  C   UNL     1      41.592 -10.722   1.225  1.00  0.00     0.146 A 
ENDBRANCH   8   9
ENDBRANCH   2   8
BRANCH   1  18
HETATM   18  C   UNL     1      41.913 -15.226   4.163  1.00  0.00     0.041 A 
HETATM   19  N   UNL     1      41.777 -16.091   3.097  1.00  0.00    -0.357 N 
HETATM   20  C   UNL     1      42.651 -17.146   3.217  1.00  0.00     0.042 A 
HETATM   21  H   UNL     1      41.123 -15.999   2.327  1.00  0.00     0.166 HD
HETATM   22  C   UNL     1      43.347 -16.975   4.412  1.00  0.00    -0.008 A 
HETATM   23  C   UNL     1      42.860 -18.245   2.376  1.00  0.00     0.030 A 
HETATM   24  C   UNL     1      44.294 -17.942   4.794  1.00  0.00     0.014 A 
HETATM   25  C   UNL     1      42.870 -15.774   5.002  1.00  0.00     0.040 A 
HETATM   26  C   UNL     1      44.514 -19.048   3.966  1.00  0.00     0.001 A 
HETATM   27  C   UNL     1      43.806 -19.193   2.774  1.00  0.00     0.002 A 
ENDBRANCH   1  18
TORSDOF 3
ENDMDL
MODEL 4
REMARK VINA RESULT:      -7.8      2.161      3.410
REMARK  3 active torsions:
REMARK  status: ('A' for Active; 'I' for Inactive)
REMARK    1  A    between atoms: C_7  and  C_8 
REMARK    2  A    between atoms: N_9  and  C_11 
REMARK    3  A    between atoms: C_11  and  C_12 
ROOT
HETATM    1  C   UNL     1      40.731 -14.158   3.373  1.00  0.00     0.238 C 
HETATM    2  N   UNL     1      41.368 -12.973   2.668  1.00  0.00    -0.056 N 
HETATM    3  H   UNL     1      42.195 -12.747   3.230  1.00  0.00     0.281 HD
HETATM    4  C   UNL     1      40.498 -11.737   2.677  1.00  0.00     0.236 C 
HETATM    5  C   UNL     1      40.148 -11.347   4.101  1.00  0.00     0.028 C 
HETATM    6  C   UNL     1      39.421 -12.483   4.798  1.00  0.00     0.004 C 
HETATM    7  C   UNL     1      40.277 -13.740   4.787  1.00  0.00     0.040 C 
ENDROOT
BRANCH   2   8
HETATM    8  C   UNL     1      41.915 -13.272   1.277  1.00  0.00     0.294 C 
BRANCH   8   9
HETATM    9  C   UNL     1      40.897 -13.445   0.219  1.00  0.00     0.061 A 
HETATM   10  N   UNL     1      40.610 -12.526  -0.771  1.00  0.00    -0.305 N 
HETATM   11  C   UNL     1      39.654 -13.098  -1.574  1.00  0.00     0.151 A 
HETATM   12  C   UNL     1      41.083 -11.259  -1.070  1.00  0.00     0.118 A 
HETATM   13  C   UNL     1      39.206 -12.382  -2.738  1.00  0.00     0.167 A 
HETATM   14  N   UNL     1      39.258 -14.268  -1.135  1.00  0.00    -0.239 NA
HETATM   15  N   UNL     1      39.684 -11.203  -3.033  1.00  0.00    -0.268 NA
HETATM   16  C   UNL     1      40.611 -10.645  -2.171  1.00  0.00     0.134 A 
HETATM   17  C   UNL     1      39.981 -14.466   0.008  1.00  0.00     0.146 A 
ENDBRANCH   8   9
ENDBRANCH   2   8
BRANCH   1  18
HETATM   18  C   UNL     1      41.681 -15.307   3.511  1.00  0.00     0.041 A 
HETATM   19  N   UNL     1      41.700 -16.347   2.604  1.00  0.00    -0.357 N 
HETATM   20  C   UNL     1      42.628 -17.291   2.974  1.00  0.00     0.042 A 
HETATM   21  H   UNL     1      41.115 -16.439   1.782  1.00  0.00     0.166 HD
HETATM   22  C   UNL     1      43.200 -16.866   4.172  1.00  0.00    -0.008 A 
HETATM   23  C   UNL     1      42.987 -18.495   2.356  1.00  0.00     0.030 A 
HETATM   24  C   UNL     1      44.172 -17.675   4.790  1.00  0.00     0.014 A 
HETATM   25  C   UNL     1      42.592 -15.626   4.505  1.00  0.00     0.040 A 
HETATM   26  C   UNL     1      44.540 -18.882   4.186  1.00  0.00     0.001 A 
HETATM   27  C   UNL     1      43.955 -19.282   2.986  1.00  0.00     0.002 A 
ENDBRANCH   1  18
TORSDOF 3
ENDMDL
MODEL 5
REMARK VINA RESULT:      -7.8      2.721      6.169
REMARK  3 active torsions:
REMARK  status: ('A' for Active; 'I' for Inactive)
REMARK    1  A    between atoms: C_7  and  C_8 
REMARK    2  A    between atoms: N_9  and  C_11 
REMARK    3  A    between atoms: C_11  and  C_12 
ROOT
HETATM    1  C   UNL     1      40.111 -13.988  -0.868  1.00  0.00     0.238 C 
HETATM    2  N   UNL     1      39.345 -12.693  -0.658  1.00  0.00    -0.056 N 
HETATM    3  H   UNL     1      38.592 -12.935  -0.006  1.00  0.00     0.281 HD
HETATM    4  C   UNL     1      38.673 -12.188  -1.914  1.00  0.00     0.236 C 
HETATM    5  C   UNL     1      37.735 -13.242  -2.473  1.00  0.00     0.028 C 
HETATM    6  C   UNL     1      38.498 -14.518  -2.783  1.00  0.00     0.004 C 
HETATM    7  C   UNL     1      39.192 -15.033  -1.532  1.00  0.00     0.040 C 
ENDROOT
BRANCH   2   8
HETATM    8  C   UNL     1      40.128 -11.591   0.049  1.00  0.00     0.294 C 
BRANCH   8   9
HETATM    9  C   UNL     1      39.932 -11.513   1.512  1.00  0.00     0.061 A 
HETATM   10  N   UNL     1      40.942 -11.442   2.451  1.00  0.00    -0.305 N 
HETATM   11  C   UNL     1      40.334 -11.324   3.676  1.00  0.00     0.151 A 
HETATM   12  C   UNL     1      42.325 -11.456   2.374  1.00  0.00     0.118 A 
HETATM   13  C   UNL     1      41.155 -11.165   4.847  1.00  0.00     0.167 A 
HETATM   14  N   UNL     1      39.027 -11.388   3.600  1.00  0.00    -0.239 NA
HETATM   15  N   UNL     1      42.458 -11.142   4.761  1.00  0.00    -0.268 NA
HETATM   16  C   UNL     1      43.028 -11.311   3.512  1.00  0.00     0.134 A 
HETATM   17  C   UNL     1      38.770 -11.564   2.270  1.00  0.00     0.146 A 
ENDBRANCH   8   9
ENDBRANCH   2   8
BRANCH   1  18
HETATM   18  C   UNL     1      40.610 -14.560   0.422  1.00  0.00     0.041 A 
HETATM   19  N   UNL     1      41.959 -14.677   0.692  1.00  0.00    -0.357 N 
HETATM   20  C   UNL     1      42.155 -15.268   1.918  1.00  0.00     0.042 A 
HETATM   21  H   UNL     1      42.720 -14.392   0.087  1.00  0.00     0.166 HD
HETATM   22  C   UNL     1      40.899 -15.573   2.439  1.00  0.00    -0.008 A 
HETATM   23  C   UNL     1      43.343 -15.575   2.592  1.00  0.00     0.030 A 
HETATM   24  C   UNL     1      40.816 -16.218   3.686  1.00  0.00     0.014 A 
HETATM   25  C   UNL     1      39.938 -15.134   1.489  1.00  0.00     0.040 A 
HETATM   26  C   UNL     1      41.994 -16.534   4.372  1.00  0.00     0.001 A 
HETATM   27  C   UNL     1      43.238 -16.215   3.830  1.00  0.00     0.002 A 
ENDBRANCH   1  18
TORSDOF 3
ENDMDL
MODEL 6
REMARK VINA RESULT:      -7.8      1.640      6.338
REMARK  3 active torsions:
REMARK  status: ('A' for Active; 'I' for Inactive)
REMARK    1  A    between atoms: C_7  and  C_8 
REMARK    2  A    between atoms: N_9  and  C_11 
REMARK    3  A    between atoms: C_11  and  C_12 
ROOT
HETATM    1  C   UNL     1      41.966 -17.016   3.184  1.00  0.00     0.238 C 
HETATM    2  N   UNL     1      42.772 -16.631   4.413  1.00  0.00    -0.056 N 
HETATM    3  H   UNL     1      43.501 -16.001   4.063  1.00  0.00     0.281 HD
HETATM    4  C   UNL     1      43.490 -17.802   5.044  1.00  0.00     0.236 C 
HETATM    5  C   UNL     1      44.402 -18.471   4.033  1.00  0.00     0.028 C 
HETATM    6  C   UNL     1      43.602 -18.952   2.835  1.00  0.00     0.004 C 
HETATM    7  C   UNL     1      42.862 -17.788   2.195  1.00  0.00     0.040 C 
ENDROOT
BRANCH   2   8
HETATM    8  C   UNL     1      42.012 -15.806   5.447  1.00  0.00     0.294 C 
BRANCH   8   9
HETATM    9  C   UNL     1      42.759 -14.667   6.020  1.00  0.00     0.061 A 
HETATM   10  N   UNL     1      43.187 -13.557   5.317  1.00  0.00    -0.305 N 
HETATM   11  C   UNL     1      43.780 -12.719   6.228  1.00  0.00     0.151 A 
HETATM   12  C   UNL     1      43.115 -13.179   3.986  1.00  0.00     0.118 A 
HETATM   13  C   UNL     1      44.269 -11.442   5.781  1.00  0.00     0.167 A 
HETATM   14  N   UNL     1      43.831 -13.234   7.432  1.00  0.00    -0.239 NA
HETATM   15  N   UNL     1      44.164 -11.077   4.531  1.00  0.00    -0.268 NA
HETATM   16  C   UNL     1      43.601 -11.973   3.640  1.00  0.00     0.134 A 
HETATM   17  C   UNL     1      43.252 -14.465   7.301  1.00  0.00     0.146 A 
ENDBRANCH   8   9
ENDBRANCH   2   8
BRANCH   1  18
HETATM   18  C   UNL     1      41.417 -15.817   2.475  1.00  0.00     0.041 A 
HETATM   19  N   UNL     1      40.393 -15.061   3.009  1.00  0.00    -0.357 N 
HETATM   20  C   UNL     1      40.044 -14.047   2.150  1.00  0.00     0.042 A 
HETATM   21  H   UNL     1      39.932 -15.217   3.899  1.00  0.00     0.166 HD
HETATM   22  C   UNL     1      40.841 -14.171   1.014  1.00  0.00    -0.008 A 
HETATM   23  C   UNL     1      39.073 -13.047   2.281  1.00  0.00     0.030 A 
HETATM   24  C   UNL     1      40.665 -13.263  -0.047  1.00  0.00     0.014 A 
HETATM   25  C   UNL     1      41.691 -15.289   1.223  1.00  0.00     0.040 A 
HETATM   26  C   UNL     1      39.697 -12.260   0.067  1.00  0.00     0.001 A 
HETATM   27  C   UNL     1      38.914 -12.156   1.216  1.00  0.00     0.002 A 
ENDBRANCH   1  18
TORSDOF 3
ENDMDL
MODEL 7
REMARK VINA RESULT:      -7.7      3.523      6.952
REMARK  3 active torsions:
REMARK  status: ('A' for Active; 'I' for Inactive)
REMARK    1  A    between atoms: C_7  and  C_8 
REMARK    2  A    between atoms: N_9  and  C_11 
REMARK    3  A    between atoms: C_11  and  C_12 
ROOT
HETATM    1  C   UNL     1      39.646 -13.629  -1.125  1.00  0.00     0.238 C 
HETATM    2  N   UNL     1      38.416 -12.862  -0.672  1.00  0.00    -0.056 N 
HETATM    3  H   UNL     1      37.822 -13.563  -0.216  1.00  0.00     0.281 HD
HETATM    4  C   UNL     1      37.607 -12.303  -1.820  1.00  0.00     0.236 C 
HETATM    5  C   UNL     1      37.188 -13.415  -2.764  1.00  0.00     0.028 C 
HETATM    6  C   UNL     1      38.410 -14.136  -3.307  1.00  0.00     0.004 C 
HETATM    7  C   UNL     1      39.242 -14.695  -2.164  1.00  0.00     0.040 C 
ENDROOT
BRANCH   2   8
HETATM    8  C   UNL     1      38.672 -11.814   0.405  1.00  0.00     0.294 C 
BRANCH   8   9
HETATM    9  C   UNL     1      38.779 -10.421  -0.079  1.00  0.00     0.061 A 
HETATM   10  N   UNL     1      39.924  -9.838  -0.586  1.00  0.00    -0.305 N 
HETATM   11  C   UNL     1      39.579  -8.566  -0.973  1.00  0.00     0.151 A 
HETATM   12  C   UNL     1      41.225 -10.276  -0.765  1.00  0.00     0.118 A 
HETATM   13  C   UNL     1      40.572  -7.739  -1.603  1.00  0.00     0.167 A 
HETATM   14  N   UNL     1      38.334  -8.270  -0.687  1.00  0.00    -0.239 NA
HETATM   15  N   UNL     1      41.788  -8.173  -1.801  1.00  0.00    -0.268 NA
HETATM   16  C   UNL     1      42.103  -9.443  -1.354  1.00  0.00     0.134 A 
HETATM   17  C   UNL     1      37.847  -9.393  -0.080  1.00  0.00     0.146 A 
ENDBRANCH   8   9
ENDBRANCH   2   8
BRANCH   1  18
HETATM   18  C   UNL     1      40.325 -14.324   0.014  1.00  0.00     0.041 A 
HETATM   19  N   UNL     1      41.608 -14.000   0.404  1.00  0.00    -0.357 N 
HETATM   20  C   UNL     1      42.016 -14.806   1.440  1.00  0.00     0.042 A 
HETATM   21  H   UNL     1      42.199 -13.285  -0.006  1.00  0.00     0.166 HD
HETATM   22  C   UNL     1      40.980 -15.700   1.704  1.00  0.00    -0.008 A 
HETATM   23  C   UNL     1      43.226 -14.828   2.144  1.00  0.00     0.030 A 
HETATM   24  C   UNL     1      41.152 -16.666   2.713  1.00  0.00     0.014 A 
HETATM   25  C   UNL     1      39.929 -15.396   0.799  1.00  0.00     0.040 A 
HETATM   26  C   UNL     1      42.356 -16.702   3.425  1.00  0.00     0.001 A 
HETATM   27  C   UNL     1      43.375 -15.795   3.143  1.00  0.00     0.002 A 
ENDBRANCH   1  18
TORSDOF 3
ENDMDL
MODEL 8
REMARK VINA RESULT:      -7.6      2.068      6.124
REMARK  3 active torsions:
REMARK  status: ('A' for Active; 'I' for Inactive)
REMARK    1  A    between atoms: C_7  and  C_8 
REMARK    2  A    between atoms: N_9  and  C_11 
REMARK    3  A    between atoms: C_11  and  C_12 
ROOT
HETATM    1  C   UNL     1      41.768 -12.029   3.761  1.00  0.00     0.238 C 
HETATM    2  N   UNL     1      41.759 -13.506   3.407  1.00  0.00    -0.056 N 
HETATM    3  H   UNL     1      42.728 -13.720   3.149  1.00  0.00     0.281 HD
HETATM    4  C   UNL     1      40.916 -13.822   2.193  1.00  0.00     0.236 C 
HETATM    5  C   UNL     1      41.392 -13.019   0.996  1.00  0.00     0.028 C 
HETATM    6  C   UNL     1      41.317 -11.532   1.292  1.00  0.00     0.004 C 
HETATM    7  C   UNL     1      42.150 -11.198   2.520  1.00  0.00     0.040 C 
ENDROOT
BRANCH   2   8
HETATM    8  C   UNL     1      41.453 -14.444   4.570  1.00  0.00     0.294 C 
BRANCH   8   9
HETATM    9  C   UNL     1      42.509 -15.431   4.883  1.00  0.00     0.061 A 
HETATM   10  N   UNL     1      42.808 -16.547   4.126  1.00  0.00    -0.305 N 
HETATM   11  C   UNL     1      43.882 -17.154   4.728  1.00  0.00     0.151 A 
HETATM   12  C   UNL     1      42.272 -17.095   2.972  1.00  0.00     0.118 A 
HETATM   13  C   UNL     1      44.454 -18.321   4.113  1.00  0.00     0.167 A 
HETATM   14  N   UNL     1      44.240 -16.561   5.841  1.00  0.00    -0.239 NA
HETATM   15  N   UNL     1      43.966 -18.810   3.005  1.00  0.00    -0.268 NA
HETATM   16  C   UNL     1      42.855 -18.193   2.458  1.00  0.00     0.134 A 
HETATM   17  C   UNL     1      43.358 -15.526   5.975  1.00  0.00     0.146 A 
ENDBRANCH   8   9
ENDBRANCH   2   8
BRANCH   1  18
HETATM   18  C   UNL     1      42.749 -11.718   4.849  1.00  0.00     0.041 A 
HETATM   19  N   UNL     1      42.354 -11.157   6.046  1.00  0.00    -0.357 N 
HETATM   20  C   UNL     1      43.444 -10.933   6.855  1.00  0.00     0.042 A 
HETATM   21  H   UNL     1      41.407 -10.918   6.315  1.00  0.00     0.166 HD
HETATM   22  C   UNL     1      44.576 -11.328   6.147  1.00  0.00    -0.008 A 
HETATM   23  C   UNL     1      43.514 -10.392   8.144  1.00  0.00     0.030 A 
HETATM   24  C   UNL     1      45.842 -11.176   6.743  1.00  0.00     0.014 A 
HETATM   25  C   UNL     1      44.131 -11.810   4.887  1.00  0.00     0.040 A 
HETATM   26  C   UNL     1      45.930 -10.634   8.030  1.00  0.00     0.001 A 
HETATM   27  C   UNL     1      44.780 -10.250   8.718  1.00  0.00     0.002 A 
ENDBRANCH   1  18
TORSDOF 3
ENDMDL
MODEL 9
REMARK VINA RESULT:      -7.6      1.768      4.877
REMARK  3 active torsions:
REMARK  status: ('A' for Active; 'I' for Inactive)
REMARK    1  A    between atoms: C_7  and  C_8 
REMARK    2  A    between atoms: N_9  and  C_11 
REMARK    3  A    between atoms: C_11  and  C_12 
ROOT
HETATM    1  C   UNL     1      41.880 -14.386   2.606  1.00  0.00     0.238 C 
HETATM    2  N   UNL     1      40.574 -14.156   3.347  1.00  0.00    -0.056 N 
HETATM    3  H   UNL     1      39.985 -14.957   3.097  1.00  0.00     0.281 HD
HETATM    4  C   UNL     1      39.835 -12.923   2.879  1.00  0.00     0.236 C 
HETATM    5  C   UNL     1      39.560 -13.004   1.388  1.00  0.00     0.028 C 
HETATM    6  C   UNL     1      40.862 -13.138   0.617  1.00  0.00     0.004 C 
HETATM    7  C   UNL     1      41.626 -14.366   1.085  1.00  0.00     0.040 C 
ENDROOT
BRANCH   2   8
HETATM    8  C   UNL     1      40.679 -14.212   4.867  1.00  0.00     0.294 C 
BRANCH   8   9
HETATM    9  C   UNL     1      40.896 -12.911   5.535  1.00  0.00     0.061 A 
HETATM   10  N   UNL     1      42.121 -12.414   5.937  1.00  0.00    -0.305 N 
HETATM   11  C   UNL     1      41.888 -11.163   6.454  1.00  0.00     0.151 A 
HETATM   12  C   UNL     1      43.415 -12.907   5.900  1.00  0.00     0.118 A 
HETATM   13  C   UNL     1      43.007 -10.376   6.898  1.00  0.00     0.167 A 
HETATM   14  N   UNL     1      40.613 -10.856   6.481  1.00  0.00    -0.239 NA
HETATM   15  N   UNL     1      44.228 -10.834   6.825  1.00  0.00    -0.268 NA
HETATM   16  C   UNL     1      44.411 -12.117   6.341  1.00  0.00     0.134 A 
HETATM   17  C   UNL     1      39.987 -11.957   5.967  1.00  0.00     0.146 A 
ENDBRANCH   8   9
ENDBRANCH   2   8
BRANCH   1  18
HETATM   18  C   UNL     1      42.499 -15.703   2.957  1.00  0.00     0.041 A 
HETATM   19  N   UNL     1      42.380 -16.805   2.135  1.00  0.00    -0.357 N 
HETATM   20  C   UNL     1      42.999 -17.896   2.698  1.00  0.00     0.042 A 
HETATM   21  H   UNL     1      41.897 -16.842   1.244  1.00  0.00     0.166 HD
HETATM   22  C   UNL     1      43.502 -17.496   3.935  1.00  0.00    -0.008 A 
HETATM   23  C   UNL     1      43.130 -19.206   2.221  1.00  0.00     0.030 A 
HETATM   24  C   UNL     1      44.164 -18.441   4.740  1.00  0.00     0.014 A 
HETATM   25  C   UNL     1      43.175 -16.123   4.092  1.00  0.00     0.040 A 
HETATM   26  C   UNL     1      44.303 -19.755   4.278  1.00  0.00     0.001 A 
HETATM   27  C   UNL     1      43.793 -20.128   3.036  1.00  0.00     0.002 A 
ENDBRANCH   1  18
TORSDOF 3
ENDMDL
MODEL 10
REMARK VINA RESULT:      -7.6      1.924      5.229
REMARK  3 active torsions:
REMARK  status: ('A' for Active; 'I' for Inactive)
REMARK    1  A    between atoms: C_7  and  C_8 
REMARK    2  A    between atoms: N_9  and  C_11 
REMARK    3  A    between atoms: C_11  and  C_12 
ROOT
HETATM    1  C   UNL     1      41.820 -14.677   1.376  1.00  0.00     0.238 C 
HETATM    2  N   UNL     1      41.689 -13.269   1.929  1.00  0.00    -0.056 N 
HETATM    3  H   UNL     1      41.027 -13.353   2.707  1.00  0.00     0.281 HD
HETATM    4  C   UNL     1      41.069 -12.300   0.948  1.00  0.00     0.236 C 
HETATM    5  C   UNL     1      39.705 -12.796   0.505  1.00  0.00     0.028 C 
HETATM    6  C   UNL     1      39.824 -14.165  -0.142  1.00  0.00     0.004 C 
HETATM    7  C   UNL     1      40.458 -15.150   0.827  1.00  0.00     0.040 C 
ENDROOT
BRANCH   2   8
HETATM    8  C   UNL     1      42.958 -12.705   2.558  1.00  0.00     0.294 C 
BRANCH   8   9
HETATM    9  C   UNL     1      42.745 -11.717   3.637  1.00  0.00     0.061 A 
HETATM   10  N   UNL     1      43.124 -11.881   4.955  1.00  0.00    -0.305 N 
HETATM   11  C   UNL     1      42.799 -10.716   5.606  1.00  0.00     0.151 A 
HETATM   12  C   UNL     1      43.727 -12.910   5.659  1.00  0.00     0.118 A 
HETATM   13  C   UNL     1      43.141 -10.578   6.996  1.00  0.00     0.167 A 
HETATM   14  N   UNL     1      42.180  -9.859   4.830  1.00  0.00    -0.239 NA
HETATM   15  N   UNL     1      43.743 -11.540   7.643  1.00  0.00    -0.268 NA
HETATM   16  C   UNL     1      44.009 -12.713   6.960  1.00  0.00     0.134 A 
HETATM   17  C   UNL     1      42.091 -10.494   3.623  1.00  0.00     0.146 A 
ENDBRANCH   8   9
ENDBRANCH   2   8
BRANCH   1  18
HETATM   18  C   UNL     1      42.264 -15.652   2.422  1.00  0.00     0.041 A 
HETATM   19  N   UNL     1      41.863 -15.540   3.737  1.00  0.00    -0.357 N 
HETATM   20  C   UNL     1      42.438 -16.528   4.502  1.00  0.00     0.042 A 
HETATM   21  H   UNL     1      41.247 -14.831   4.120  1.00  0.00     0.166 HD
HETATM   22  C   UNL     1      43.259 -17.278   3.663  1.00  0.00    -0.008 A 
HETATM   23  C   UNL     1      42.312 -16.798   5.870  1.00  0.00     0.030 A 
HETATM   24  C   UNL     1      43.996 -18.346   4.207  1.00  0.00     0.014 A 
HETATM   25  C   UNL     1      43.151 -16.715   2.364  1.00  0.00     0.040 A 
HETATM   26  C   UNL     1      43.883 -18.629   5.572  1.00  0.00     0.001 A 
HETATM   27  C   UNL     1      43.051 -17.865   6.389  1.00  0.00     0.002 A 
ENDBRANCH   1  18
TORSDOF 3
ENDMDL
