MODEL 1
REMARK VINA RESULT:      -8.7      0.000      0.000
REMARK  6 active torsions:
REMARK  status: ('A' for Active; 'I' for Inactive)
REMARK    1  A    between atoms: C_2  and  C_4 
REMARK    2  A    between atoms: C_2  and  C_11 
REMARK    3  A    between atoms: C_2  and  O_3 
REMARK    4  A    between atoms: C_11  and  N_12 
REMARK       I    between atoms: N_12  and  C_13 
REMARK    5  A    between atoms: C_13  and  C_14 
REMARK    6  A    between atoms: C_15  and  C_16 
ROOT
HETATM    1  N   UNL     1      41.893 -14.938   4.390  1.00  0.00    -0.354 N 
HETATM    2  C   UNL     1      41.407 -15.911   5.236  1.00  0.00     0.255 C 
HETATM    3  O   UNL     1      40.307 -16.427   5.063  1.00  0.00    -0.268 OA
HETATM    4  H   UNL     1      42.681 -14.390   4.708  1.00  0.00     0.162 HD
ENDROOT
BRANCH   2   5
HETATM    5  C   UNL     1      42.281 -16.233   6.348  1.00  0.00     0.080 A 
HETATM    6  C   UNL     1      43.240 -17.290   6.472  1.00  0.00     0.104 A 
HETATM    7  N   UNL     1      43.898 -17.195   7.644  1.00  0.00    -0.174 NA
HETATM    8  N   UNL     1      43.369 -16.130   8.251  1.00  0.00    -0.288 N 
HETATM    9  H   UNL     1      43.735 -15.869   9.161  1.00  0.00     0.188 HD
HETATM   10  C   UNL     1      42.387 -15.525   7.532  1.00  0.00     0.128 A 
BRANCH   6  11
HETATM   11  C   UNL     1      43.541 -18.398   5.559  1.00  0.00    -0.004 A 
HETATM   12  C   UNL     1      43.583 -19.716   6.048  1.00  0.00     0.017 A 
HETATM   13  C   UNL     1      43.836 -20.788   5.188  1.00  0.00     0.043 A 
HETATM   14  C   UNL     1      44.045 -20.546   3.837  1.00  0.00     0.116 A 
HETATM   15  F   UNL     1      44.285 -21.573   3.011  1.00  0.00    -0.206 F 
HETATM   16  C   UNL     1      44.001 -19.254   3.328  1.00  0.00     0.043 A 
HETATM   17  C   UNL     1      43.743 -18.181   4.187  1.00  0.00     0.017 A 
ENDBRANCH   6  11
ENDBRANCH   2   5
BRANCH   1  18
HETATM   18  C   UNL     1      41.093 -14.415   3.290  1.00  0.00     0.165 C 
BRANCH  18  19
HETATM   19  C   UNL     1      41.313 -15.147   1.927  1.00  0.00     0.097 C 
HETATM   20  C   UNL     1      42.813 -15.426   1.743  1.00  0.00     0.053 C 
BRANCH  19  21
HETATM   21  C   UNL     1      40.784 -14.330   0.743  1.00  0.00    -0.023 A 
HETATM   22  C   UNL     1      39.902 -14.901  -0.196  1.00  0.00     0.013 A 
HETATM   23  C   UNL     1      39.422 -14.157  -1.277  1.00  0.00     0.043 A 
HETATM   24  C   UNL     1      39.816 -12.835  -1.429  1.00  0.00     0.116 A 
HETATM   25  F   UNL     1      39.353 -12.123  -2.465  1.00  0.00    -0.206 F 
HETATM   26  C   UNL     1      40.679 -12.241  -0.520  1.00  0.00     0.043 A 
HETATM   27  C   UNL     1      41.157 -12.985   0.561  1.00  0.00     0.013 A 
ENDBRANCH  19  21
BRANCH  19  28
HETATM   28  O   UNL     1      40.688 -16.439   1.936  1.00  0.00    -0.384 OA
HETATM   29  H   UNL     1      41.072 -16.972   2.664  1.00  0.00     0.211 HD
ENDBRANCH  19  28
ENDBRANCH  18  19
ENDBRANCH   1  18
TORSDOF 6
ENDMDL
MODEL 2
REMARK VINA RESULT:      -8.6      4.178      7.680
REMARK  6 active torsions:
REMARK  status: ('A' for Active; 'I' for Inactive)
REMARK    1  A    between atoms: C_2  and  C_4 
REMARK    2  A    between atoms: C_2  and  C_11 
REMARK    3  A    between atoms: C_2  and  O_3 
REMARK    4  A    between atoms: C_11  and  N_12 
REMARK       I    between atoms: N_12  and  C_13 
REMARK    5  A    between atoms: C_13  and  C_14 
REMARK    6  A    between atoms: C_15  and  C_16 
ROOT
HETATM    1  N   UNL     1      42.739 -15.060   5.288  1.00  0.00    -0.354 N 
HETATM    2  C   UNL     1      42.071 -13.870   5.474  1.00  0.00     0.255 C 
HETATM    3  O   UNL     1      41.172 -13.758   6.302  1.00  0.00    -0.268 OA
HETATM    4  H   UNL     1      43.294 -15.161   4.448  1.00  0.00     0.162 HD
ENDROOT
BRANCH   2   5
HETATM    5  C   UNL     1      42.494 -12.798   4.595  1.00  0.00     0.080 A 
HETATM    6  C   UNL     1      43.358 -11.688   4.867  1.00  0.00     0.104 A 
HETATM    7  N   UNL     1      43.553 -10.957   3.752  1.00  0.00    -0.174 NA
HETATM    8  N   UNL     1      42.830 -11.566   2.809  1.00  0.00    -0.288 N 
HETATM    9  H   UNL     1      42.843 -11.178   1.872  1.00  0.00     0.188 HD
HETATM   10  C   UNL     1      42.162 -12.661   3.258  1.00  0.00     0.128 A 
BRANCH   6  11
HETATM   11  C   UNL     1      43.979 -11.267   6.128  1.00  0.00    -0.004 A 
HETATM   12  C   UNL     1      45.374 -11.342   6.280  1.00  0.00     0.017 A 
HETATM   13  C   UNL     1      45.987 -10.917   7.462  1.00  0.00     0.043 A 
HETATM   14  C   UNL     1      45.206 -10.413   8.493  1.00  0.00     0.116 A 
HETATM   15  F   UNL     1      45.793 -10.001   9.626  1.00  0.00    -0.206 F 
HETATM   16  C   UNL     1      43.826 -10.321   8.364  1.00  0.00     0.043 A 
HETATM   17  C   UNL     1      43.213 -10.741   7.180  1.00  0.00     0.017 A 
ENDBRANCH   6  11
ENDBRANCH   2   5
BRANCH   1  18
HETATM   18  C   UNL     1      42.361 -16.269   6.008  1.00  0.00     0.165 C 
BRANCH  18  19
HETATM   19  C   UNL     1      43.531 -17.277   6.237  1.00  0.00     0.097 C 
HETATM   20  C   UNL     1      44.844 -16.496   6.397  1.00  0.00     0.053 C 
BRANCH  19  21
HETATM   21  C   UNL     1      43.658 -18.283   5.086  1.00  0.00    -0.023 A 
HETATM   22  C   UNL     1      43.518 -17.872   3.745  1.00  0.00     0.013 A 
HETATM   23  C   UNL     1      43.630 -18.789   2.697  1.00  0.00     0.043 A 
HETATM   24  C   UNL     1      43.887 -20.124   2.977  1.00  0.00     0.116 A 
HETATM   25  F   UNL     1      43.996 -21.000   1.970  1.00  0.00    -0.206 F 
HETATM   26  C   UNL     1      44.035 -20.560   4.286  1.00  0.00     0.043 A 
HETATM   27  C   UNL     1      43.923 -19.642   5.333  1.00  0.00     0.013 A 
ENDBRANCH  19  21
BRANCH  19  28
HETATM   28  O   UNL     1      43.361 -17.985   7.474  1.00  0.00    -0.384 OA
HETATM   29  H   UNL     1      43.262 -17.334   8.200  1.00  0.00     0.211 HD
ENDBRANCH  19  28
ENDBRANCH  18  19
ENDBRANCH   1  18
TORSDOF 6
ENDMDL
MODEL 3
REMARK VINA RESULT:      -8.6      2.746      6.550
REMARK  6 active torsions:
REMARK  status: ('A' for Active; 'I' for Inactive)
REMARK    1  A    between atoms: C_2  and  C_4 
REMARK    2  A    between atoms: C_2  and  C_11 
REMARK    3  A    between atoms: C_2  and  O_3 
REMARK    4  A    between atoms: C_11  and  N_12 
REMARK       I    between atoms: N_12  and  C_13 
REMARK    5  A    between atoms: C_13  and  C_14 
REMARK    6  A    between atoms: C_15  and  C_16 
ROOT
HETATM    1  N   UNL     1      41.668 -15.068   6.364  1.00  0.00    -0.354 N 
HETATM    2  C   UNL     1      40.396 -14.539   6.373  1.00  0.00     0.255 C 
HETATM    3  O   UNL     1      39.490 -15.048   7.028  1.00  0.00    -0.268 OA
HETATM    4  H   UNL     1      42.300 -14.757   5.638  1.00  0.00     0.162 HD
ENDROOT
BRANCH   2   5
HETATM    5  C   UNL     1      40.222 -13.374   5.528  1.00  0.00     0.080 A 
HETATM    6  C   UNL     1      40.579 -13.187   4.153  1.00  0.00     0.104 A 
HETATM    7  N   UNL     1      40.178 -11.976   3.722  1.00  0.00    -0.174 NA
HETATM    8  N   UNL     1      39.602 -11.405   4.783  1.00  0.00    -0.288 N 
HETATM    9  H   UNL     1      39.214 -10.473   4.671  1.00  0.00     0.188 HD
HETATM   10  C   UNL     1      39.614 -12.186   5.895  1.00  0.00     0.128 A 
BRANCH   6  11
HETATM   11  C   UNL     1      41.306 -14.078   3.243  1.00  0.00    -0.004 A 
HETATM   12  C   UNL     1      42.645 -13.802   2.914  1.00  0.00     0.017 A 
HETATM   13  C   UNL     1      43.364 -14.656   2.073  1.00  0.00     0.043 A 
HETATM   14  C   UNL     1      42.747 -15.789   1.561  1.00  0.00     0.116 A 
HETATM   15  F   UNL     1      43.436 -16.611   0.757  1.00  0.00    -0.206 F 
HETATM   16  C   UNL     1      41.428 -16.088   1.876  1.00  0.00     0.043 A 
HETATM   17  C   UNL     1      40.709 -15.237   2.722  1.00  0.00     0.017 A 
ENDBRANCH   6  11
ENDBRANCH   2   5
BRANCH   1  18
HETATM   18  C   UNL     1      41.986 -16.304   7.067  1.00  0.00     0.165 C 
BRANCH  18  19
HETATM   19  C   UNL     1      43.477 -16.751   6.945  1.00  0.00     0.097 C 
HETATM   20  C   UNL     1      44.324 -15.555   6.481  1.00  0.00     0.053 C 
BRANCH  19  21
HETATM   21  C   UNL     1      43.650 -17.923   5.973  1.00  0.00    -0.023 A 
HETATM   22  C   UNL     1      43.596 -19.256   6.427  1.00  0.00     0.013 A 
HETATM   23  C   UNL     1      43.756 -20.324   5.540  1.00  0.00     0.043 A 
HETATM   24  C   UNL     1      43.970 -20.071   4.192  1.00  0.00     0.116 A 
HETATM   25  F   UNL     1      44.122 -21.097   3.344  1.00  0.00    -0.206 F 
HETATM   26  C   UNL     1      44.025 -18.771   3.712  1.00  0.00     0.043 A 
HETATM   27  C   UNL     1      43.863 -17.704   4.599  1.00  0.00     0.013 A 
ENDBRANCH  19  21
BRANCH  19  28
HETATM   28  O   UNL     1      44.008 -17.112   8.230  1.00  0.00    -0.384 OA
HETATM   29  H   UNL     1      44.791 -17.686   8.098  1.00  0.00     0.211 HD
ENDBRANCH  19  28
ENDBRANCH  18  19
ENDBRANCH   1  18
TORSDOF 6
ENDMDL
MODEL 4
REMARK VINA RESULT:      -8.3      3.570      6.510
REMARK  6 active torsions:
REMARK  status: ('A' for Active; 'I' for Inactive)
REMARK    1  A    between atoms: C_2  and  C_4 
REMARK    2  A    between atoms: C_2  and  C_11 
REMARK    3  A    between atoms: C_2  and  O_3 
REMARK    4  A    between atoms: C_11  and  N_12 
REMARK       I    between atoms: N_12  and  C_13 
REMARK    5  A    between atoms: C_13  and  C_14 
REMARK    6  A    between atoms: C_15  and  C_16 
ROOT
HETATM    1  N   UNL     1      41.207 -12.235   5.015  1.00  0.00    -0.354 N 
HETATM    2  C   UNL     1      39.898 -12.548   4.724  1.00  0.00     0.255 C 
HETATM    3  O   UNL     1      39.074 -12.764   5.608  1.00  0.00    -0.268 OA
HETATM    4  H   UNL     1      41.883 -12.300   4.265  1.00  0.00     0.162 HD
ENDROOT
BRANCH   2   5
HETATM    5  C   UNL     1      39.599 -12.633   3.308  1.00  0.00     0.080 A 
HETATM    6  C   UNL     1      40.090 -13.559   2.330  1.00  0.00     0.104 A 
HETATM    7  N   UNL     1      39.506 -13.337   1.136  1.00  0.00    -0.174 NA
HETATM    8  N   UNL     1      38.687 -12.302   1.338  1.00  0.00    -0.288 N 
HETATM    9  H   UNL     1      38.133 -11.972   0.555  1.00  0.00     0.188 HD
HETATM   10  C   UNL     1      38.713 -11.828   2.612  1.00  0.00     0.128 A 
BRANCH   6  11
HETATM   11  C   UNL     1      41.101 -14.613   2.459  1.00  0.00    -0.004 A 
HETATM   12  C   UNL     1      40.705 -15.962   2.492  1.00  0.00     0.017 A 
HETATM   13  C   UNL     1      41.655 -16.983   2.583  1.00  0.00     0.043 A 
HETATM   14  C   UNL     1      43.003 -16.658   2.639  1.00  0.00     0.116 A 
HETATM   15  F   UNL     1      43.916 -17.636   2.722  1.00  0.00    -0.206 F 
HETATM   16  C   UNL     1      43.421 -15.333   2.600  1.00  0.00     0.043 A 
HETATM   17  C   UNL     1      42.471 -14.312   2.504  1.00  0.00     0.017 A 
ENDBRANCH   6  11
ENDBRANCH   2   5
BRANCH   1  18
HETATM   18  C   UNL     1      41.703 -12.221   6.385  1.00  0.00     0.165 C 
BRANCH  18  19
HETATM   19  C   UNL     1      43.122 -12.846   6.565  1.00  0.00     0.097 C 
HETATM   20  C   UNL     1      44.074 -12.240   5.522  1.00  0.00     0.053 C 
BRANCH  19  21
HETATM   21  C   UNL     1      43.100 -14.373   6.428  1.00  0.00    -0.023 A 
HETATM   22  C   UNL     1      41.884 -15.086   6.448  1.00  0.00     0.013 A 
HETATM   23  C   UNL     1      41.865 -16.478   6.327  1.00  0.00     0.043 A 
HETATM   24  C   UNL     1      43.058 -17.171   6.182  1.00  0.00     0.116 A 
HETATM   25  F   UNL     1      43.037 -18.505   6.064  1.00  0.00    -0.206 F 
HETATM   26  C   UNL     1      44.272 -16.499   6.154  1.00  0.00     0.043 A 
HETATM   27  C   UNL     1      44.291 -15.107   6.274  1.00  0.00     0.013 A 
ENDBRANCH  19  21
BRANCH  19  28
HETATM   28  O   UNL     1      43.681 -12.487   7.838  1.00  0.00    -0.384 OA
HETATM   29  H   UNL     1      44.597 -12.831   7.890  1.00  0.00     0.211 HD
ENDBRANCH  19  28
ENDBRANCH  18  19
ENDBRANCH   1  18
TORSDOF 6
ENDMDL
MODEL 5
REMARK VINA RESULT:      -8.3      3.357      4.726
REMARK  6 active torsions:
REMARK  status: ('A' for Active; 'I' for Inactive)
REMARK    1  A    between atoms: C_2  and  C_4 
REMARK    2  A    between atoms: C_2  and  C_11 
REMARK    3  A    between atoms: C_2  and  O_3 
REMARK    4  A    between atoms: C_11  and  N_12 
REMARK       I    between atoms: N_12  and  C_13 
REMARK    5  A    between atoms: C_13  and  C_14 
REMARK    6  A    between atoms: C_15  and  C_16 
ROOT
HETATM    1  N   UNL     1      42.116 -11.834   3.895  1.00  0.00    -0.354 N 
HETATM    2  C   UNL     1      43.421 -11.640   4.293  1.00  0.00     0.255 C 
HETATM    3  O   UNL     1      44.327 -11.485   3.479  1.00  0.00    -0.268 OA
HETATM    4  H   UNL     1      41.463 -12.187   4.582  1.00  0.00     0.162 HD
ENDROOT
BRANCH   2   5
HETATM    5  C   UNL     1      43.625 -11.674   5.728  1.00  0.00     0.080 A 
HETATM    6  C   UNL     1      43.658 -12.799   6.614  1.00  0.00     0.104 A 
HETATM    7  N   UNL     1      43.946 -12.403   7.869  1.00  0.00    -0.174 NA
HETATM    8  N   UNL     1      44.076 -11.076   7.791  1.00  0.00    -0.288 N 
HETATM    9  H   UNL     1      44.307 -10.568   8.639  1.00  0.00     0.188 HD
HETATM   10  C   UNL     1      43.878 -10.582   6.540  1.00  0.00     0.128 A 
BRANCH   6  11
HETATM   11  C   UNL     1      43.400 -14.217   6.342  1.00  0.00    -0.004 A 
HETATM   12  C   UNL     1      44.473 -15.124   6.276  1.00  0.00     0.017 A 
HETATM   13  C   UNL     1      44.246 -16.484   6.049  1.00  0.00     0.043 A 
HETATM   14  C   UNL     1      42.945 -16.942   5.890  1.00  0.00     0.116 A 
HETATM   15  F   UNL     1      42.725 -18.246   5.676  1.00  0.00    -0.206 F 
HETATM   16  C   UNL     1      41.867 -16.068   5.959  1.00  0.00     0.043 A 
HETATM   17  C   UNL     1      42.094 -14.708   6.191  1.00  0.00     0.017 A 
ENDBRANCH   6  11
ENDBRANCH   2   5
BRANCH   1  18
HETATM   18  C   UNL     1      41.755 -11.943   2.487  1.00  0.00     0.165 C 
BRANCH  18  19
HETATM   19  C   UNL     1      40.800 -13.133   2.156  1.00  0.00     0.097 C 
HETATM   20  C   UNL     1      39.650 -13.153   3.175  1.00  0.00     0.053 C 
BRANCH  19  21
HETATM   21  C   UNL     1      41.533 -14.480   2.169  1.00  0.00    -0.023 A 
HETATM   22  C   UNL     1      42.916 -14.555   1.906  1.00  0.00     0.013 A 
HETATM   23  C   UNL     1      43.583 -15.784   1.914  1.00  0.00     0.043 A 
HETATM   24  C   UNL     1      42.876 -16.946   2.187  1.00  0.00     0.116 A 
HETATM   25  F   UNL     1      43.518 -18.122   2.196  1.00  0.00    -0.206 F 
HETATM   26  C   UNL     1      41.515 -16.906   2.454  1.00  0.00     0.043 A 
HETATM   27  C   UNL     1      40.849 -15.678   2.447  1.00  0.00     0.013 A 
ENDBRANCH  19  21
BRANCH  19  28
HETATM   28  O   UNL     1      40.170 -12.942   0.880  1.00  0.00    -0.384 OA
HETATM   29  H   UNL     1      40.102 -13.809   0.428  1.00  0.00     0.211 HD
ENDBRANCH  19  28
ENDBRANCH  18  19
ENDBRANCH   1  18
TORSDOF 6
ENDMDL
MODEL 6
REMARK VINA RESULT:      -8.3      2.088      6.840
REMARK  6 active torsions:
REMARK  status: ('A' for Active; 'I' for Inactive)
REMARK    1  A    between atoms: C_2  and  C_4 
REMARK    2  A    between atoms: C_2  and  C_11 
REMARK    3  A    between atoms: C_2  and  O_3 
REMARK    4  A    between atoms: C_11  and  N_12 
REMARK       I    between atoms: N_12  and  C_13 
REMARK    5  A    between atoms: C_13  and  C_14 
REMARK    6  A    between atoms: C_15  and  C_16 
ROOT
HETATM    1  N   UNL     1      42.749 -14.859   5.464  1.00  0.00    -0.354 N 
HETATM    2  C   UNL     1      41.799 -13.983   4.986  1.00  0.00     0.255 C 
HETATM    3  O   UNL     1      40.599 -14.171   5.166  1.00  0.00    -0.268 OA
HETATM    4  H   UNL     1      43.686 -14.784   5.091  1.00  0.00     0.162 HD
ENDROOT
BRANCH   2   5
HETATM    5  C   UNL     1      42.335 -12.863   4.237  1.00  0.00     0.080 A 
HETATM    6  C   UNL     1      42.103 -12.489   2.873  1.00  0.00     0.104 A 
HETATM    7  N   UNL     1      42.739 -11.337   2.586  1.00  0.00    -0.174 NA
HETATM    8  N   UNL     1      43.364 -10.996   3.716  1.00  0.00    -0.288 N 
HETATM    9  H   UNL     1      43.905 -10.137   3.722  1.00  0.00     0.188 HD
HETATM   10  C   UNL     1      43.173 -11.879   4.731  1.00  0.00     0.128 A 
BRANCH   6  11
HETATM   11  C   UNL     1      41.344 -13.180   1.826  1.00  0.00    -0.004 A 
HETATM   12  C   UNL     1      40.608 -12.434   0.887  1.00  0.00     0.017 A 
HETATM   13  C   UNL     1      39.903 -13.072  -0.137  1.00  0.00     0.043 A 
HETATM   14  C   UNL     1      39.934 -14.457  -0.228  1.00  0.00     0.116 A 
HETATM   15  F   UNL     1      39.262 -15.070  -1.212  1.00  0.00    -0.206 F 
HETATM   16  C   UNL     1      40.659 -15.216   0.683  1.00  0.00     0.043 A 
HETATM   17  C   UNL     1      41.369 -14.578   1.704  1.00  0.00     0.017 A 
ENDBRANCH   6  11
ENDBRANCH   2   5
BRANCH   1  18
HETATM   18  C   UNL     1      42.376 -16.096   6.139  1.00  0.00     0.165 C 
BRANCH  18  19
HETATM   19  C   UNL     1      43.523 -17.152   6.230  1.00  0.00     0.097 C 
HETATM   20  C   UNL     1      44.863 -16.424   6.421  1.00  0.00     0.053 C 
BRANCH  19  21
HETATM   21  C   UNL     1      43.585 -18.044   4.985  1.00  0.00    -0.023 A 
HETATM   22  C   UNL     1      43.990 -19.391   5.076  1.00  0.00     0.013 A 
HETATM   23  C   UNL     1      44.049 -20.202   3.940  1.00  0.00     0.043 A 
HETATM   24  C   UNL     1      43.702 -19.678   2.703  1.00  0.00     0.116 A 
HETATM   25  F   UNL     1      43.758 -20.458   1.616  1.00  0.00    -0.206 F 
HETATM   26  C   UNL     1      43.295 -18.357   2.579  1.00  0.00     0.043 A 
HETATM   27  C   UNL     1      43.234 -17.547   3.715  1.00  0.00     0.013 A 
ENDBRANCH  19  21
BRANCH  19  28
HETATM   28  O   UNL     1      43.370 -17.971   7.399  1.00  0.00    -0.384 OA
HETATM   29  H   UNL     1      43.944 -18.761   7.309  1.00  0.00     0.211 HD
ENDBRANCH  19  28
ENDBRANCH  18  19
ENDBRANCH   1  18
TORSDOF 6
ENDMDL
MODEL 7
REMARK VINA RESULT:      -8.3      2.583      7.841
REMARK  6 active torsions:
REMARK  status: ('A' for Active; 'I' for Inactive)
REMARK    1  A    between atoms: C_2  and  C_4 
REMARK    2  A    between atoms: C_2  and  C_11 
REMARK    3  A    between atoms: C_2  and  O_3 
REMARK    4  A    between atoms: C_11  and  N_12 
REMARK       I    between atoms: N_12  and  C_13 
REMARK    5  A    between atoms: C_13  and  C_14 
REMARK    6  A    between atoms: C_15  and  C_16 
ROOT
HETATM    1  N   UNL     1      42.581 -13.610   2.619  1.00  0.00    -0.354 N 
HETATM    2  C   UNL     1      41.446 -12.832   2.680  1.00  0.00     0.255 C 
HETATM    3  O   UNL     1      40.471 -13.165   3.346  1.00  0.00    -0.268 OA
HETATM    4  H   UNL     1      43.247 -13.412   1.883  1.00  0.00     0.162 HD
ENDROOT
BRANCH   2   5
HETATM    5  C   UNL     1      41.497 -11.628   1.872  1.00  0.00     0.080 A 
HETATM    6  C   UNL     1      41.083 -11.427   0.515  1.00  0.00     0.104 A 
HETATM    7  N   UNL     1      41.235 -10.136   0.163  1.00  0.00    -0.174 NA
HETATM    8  N   UNL     1      41.740  -9.539   1.245  1.00  0.00    -0.288 N 
HETATM    9  H   UNL     1      41.924  -8.542   1.198  1.00  0.00     0.188 HD
HETATM   10  C   UNL     1      41.934 -10.384   2.292  1.00  0.00     0.128 A 
BRANCH   6  11
HETATM   11  C   UNL     1      40.587 -12.395  -0.469  1.00  0.00    -0.004 A 
HETATM   12  C   UNL     1      40.886 -12.224  -1.832  1.00  0.00     0.017 A 
HETATM   13  C   UNL     1      40.449 -13.151  -2.781  1.00  0.00     0.043 A 
HETATM   14  C   UNL     1      39.714 -14.255  -2.370  1.00  0.00     0.116 A 
HETATM   15  F   UNL     1      39.297 -15.147  -3.278  1.00  0.00    -0.206 F 
HETATM   16  C   UNL     1      39.411 -14.451  -1.028  1.00  0.00     0.043 A 
HETATM   17  C   UNL     1      39.853 -13.526  -0.077  1.00  0.00     0.017 A 
ENDBRANCH   6  11
ENDBRANCH   2   5
BRANCH   1  18
HETATM   18  C   UNL     1      42.654 -14.907   3.278  1.00  0.00     0.165 C 
BRANCH  18  19
HETATM   19  C   UNL     1      42.574 -16.129   2.309  1.00  0.00     0.097 C 
HETATM   20  C   UNL     1      41.111 -16.348   1.894  1.00  0.00     0.053 C 
BRANCH  19  21
HETATM   21  C   UNL     1      43.134 -17.407   2.946  1.00  0.00    -0.023 A 
HETATM   22  C   UNL     1      43.631 -17.402   4.265  1.00  0.00     0.013 A 
HETATM   23  C   UNL     1      44.144 -18.566   4.843  1.00  0.00     0.043 A 
HETATM   24  C   UNL     1      44.162 -19.746   4.112  1.00  0.00     0.116 A 
HETATM   25  F   UNL     1      44.652 -20.861   4.670  1.00  0.00    -0.206 F 
HETATM   26  C   UNL     1      43.676 -19.786   2.814  1.00  0.00     0.043 A 
HETATM   27  C   UNL     1      43.162 -18.622   2.236  1.00  0.00     0.013 A 
ENDBRANCH  19  21
BRANCH  19  28
HETATM   28  O   UNL     1      43.276 -15.857   1.086  1.00  0.00    -0.384 OA
HETATM   29  H   UNL     1      44.236 -15.987   1.237  1.00  0.00     0.211 HD
ENDBRANCH  19  28
ENDBRANCH  18  19
ENDBRANCH   1  18
TORSDOF 6
ENDMDL
MODEL 8
REMARK VINA RESULT:      -8.3      4.295      6.895
REMARK  6 active torsions:
REMARK  status: ('A' for Active; 'I' for Inactive)
REMARK    1  A    between atoms: C_2  and  C_4 
REMARK    2  A    between atoms: C_2  and  C_11 
REMARK    3  A    between atoms: C_2  and  O_3 
REMARK    4  A    between atoms: C_11  and  N_12 
REMARK       I    between atoms: N_12  and  C_13 
REMARK    5  A    between atoms: C_13  and  C_14 
REMARK    6  A    between atoms: C_15  and  C_16 
ROOT
HETATM    1  N   UNL     1      43.560 -15.267   5.725  1.00  0.00    -0.354 N 
HETATM    2  C   UNL     1      42.998 -16.522   5.808  1.00  0.00     0.255 C 
HETATM    3  O   UNL     1      42.287 -16.850   6.754  1.00  0.00    -0.268 OA
HETATM    4  H   UNL     1      44.312 -15.132   5.062  1.00  0.00     0.162 HD
ENDROOT
BRANCH   2   5
HETATM    5  C   UNL     1      43.346 -17.412   4.717  1.00  0.00     0.080 A 
HETATM    6  C   UNL     1      43.001 -17.325   3.329  1.00  0.00     0.104 A 
HETATM    7  N   UNL     1      43.588 -18.319   2.634  1.00  0.00    -0.174 NA
HETATM    8  N   UNL     1      44.268 -19.021   3.543  1.00  0.00    -0.288 N 
HETATM    9  H   UNL     1      44.801 -19.824   3.225  1.00  0.00     0.188 HD
HETATM   10  C   UNL     1      44.147 -18.537   4.807  1.00  0.00     0.128 A 
BRANCH   6  11
HETATM   11  C   UNL     1      42.123 -16.376   2.637  1.00  0.00    -0.004 A 
HETATM   12  C   UNL     1      40.746 -16.359   2.924  1.00  0.00     0.017 A 
HETATM   13  C   UNL     1      39.898 -15.441   2.298  1.00  0.00     0.043 A 
HETATM   14  C   UNL     1      40.424 -14.537   1.386  1.00  0.00     0.116 A 
HETATM   15  F   UNL     1      39.612 -13.653   0.788  1.00  0.00    -0.206 F 
HETATM   16  C   UNL     1      41.782 -14.528   1.091  1.00  0.00     0.043 A 
HETATM   17  C   UNL     1      42.631 -15.442   1.720  1.00  0.00     0.017 A 
ENDBRANCH   6  11
ENDBRANCH   2   5
BRANCH   1  18
HETATM   18  C   UNL     1      43.405 -14.290   6.795  1.00  0.00     0.165 C 
BRANCH  18  19
HETATM   19  C   UNL     1      43.042 -12.852   6.307  1.00  0.00     0.097 C 
HETATM   20  C   UNL     1      43.110 -12.809   4.772  1.00  0.00     0.053 C 
BRANCH  19  21
HETATM   21  C   UNL     1      43.975 -11.789   6.901  1.00  0.00    -0.023 A 
HETATM   22  C   UNL     1      45.350 -11.776   6.591  1.00  0.00     0.013 A 
HETATM   23  C   UNL     1      46.199 -10.809   7.136  1.00  0.00     0.043 A 
HETATM   24  C   UNL     1      45.684  -9.846   7.992  1.00  0.00     0.116 A 
HETATM   25  F   UNL     1      46.501  -8.920   8.511  1.00  0.00    -0.206 F 
HETATM   26  C   UNL     1      44.335  -9.829   8.314  1.00  0.00     0.043 A 
HETATM   27  C   UNL     1      43.486 -10.795   7.769  1.00  0.00     0.013 A 
ENDBRANCH  19  21
BRANCH  19  28
HETATM   28  O   UNL     1      41.681 -12.531   6.633  1.00  0.00    -0.384 OA
HETATM   29  H   UNL     1      41.511 -12.784   7.564  1.00  0.00     0.211 HD
ENDBRANCH  19  28
ENDBRANCH  18  19
ENDBRANCH   1  18
TORSDOF 6
ENDMDL
MODEL 9
REMARK VINA RESULT:      -8.2      1.733      2.106
REMARK  6 active torsions:
REMARK  status: ('A' for Active; 'I' for Inactive)
REMARK    1  A    between atoms: C_2  and  C_4 
REMARK    2  A    between atoms: C_2  and  C_11 
REMARK    3  A    between atoms: C_2  and  O_3 
REMARK    4  A    between atoms: C_11  and  N_12 
REMARK       I    between atoms: N_12  and  C_13 
REMARK    5  A    between atoms: C_13  and  C_14 
REMARK    6  A    between atoms: C_15  and  C_16 
ROOT
HETATM    1  N   UNL     1      41.376 -13.793   3.894  1.00  0.00    -0.354 N 
HETATM    2  C   UNL     1      42.691 -14.169   4.056  1.00  0.00     0.255 C 
HETATM    3  O   UNL     1      43.545 -13.909   3.214  1.00  0.00    -0.268 OA
HETATM    4  H   UNL     1      40.685 -14.230   4.490  1.00  0.00     0.162 HD
ENDROOT
BRANCH   2   5
HETATM    5  C   UNL     1      42.958 -14.916   5.270  1.00  0.00     0.080 A 
HETATM    6  C   UNL     1      43.325 -16.292   5.427  1.00  0.00     0.104 A 
HETATM    7  N   UNL     1      43.552 -16.574   6.724  1.00  0.00    -0.174 NA
HETATM    8  N   UNL     1      43.324 -15.429   7.372  1.00  0.00    -0.288 N 
HETATM    9  H   UNL     1      43.449 -15.417   8.380  1.00  0.00     0.188 HD
HETATM   10  C   UNL     1      42.949 -14.408   6.558  1.00  0.00     0.128 A 
BRANCH   6  11
HETATM   11  C   UNL     1      43.439 -17.355   4.423  1.00  0.00    -0.004 A 
HETATM   12  C   UNL     1      44.141 -18.534   4.727  1.00  0.00     0.017 A 
HETATM   13  C   UNL     1      44.235 -19.571   3.795  1.00  0.00     0.043 A 
HETATM   14  C   UNL     1      43.623 -19.433   2.557  1.00  0.00     0.116 A 
HETATM   15  F   UNL     1      43.708 -20.427   1.663  1.00  0.00    -0.206 F 
HETATM   16  C   UNL     1      42.916 -18.281   2.234  1.00  0.00     0.043 A 
HETATM   17  C   UNL     1      42.819 -17.245   3.168  1.00  0.00     0.017 A 
ENDBRANCH   6  11
ENDBRANCH   2   5
BRANCH   1  18
HETATM   18  C   UNL     1      40.914 -13.136   2.677  1.00  0.00     0.165 C 
BRANCH  18  19
HETATM   19  C   UNL     1      39.751 -13.876   1.946  1.00  0.00     0.097 C 
HETATM   20  C   UNL     1      39.970 -15.393   2.057  1.00  0.00     0.053 C 
BRANCH  19  21
HETATM   21  C   UNL     1      39.647 -13.470   0.471  1.00  0.00    -0.023 A 
HETATM   22  C   UNL     1      39.124 -12.215   0.099  1.00  0.00     0.013 A 
HETATM   23  C   UNL     1      39.027 -11.847  -1.245  1.00  0.00     0.043 A 
HETATM   24  C   UNL     1      39.452 -12.726  -2.231  1.00  0.00     0.116 A 
HETATM   25  F   UNL     1      39.360 -12.370  -3.519  1.00  0.00    -0.206 F 
HETATM   26  C   UNL     1      39.975 -13.968  -1.899  1.00  0.00     0.043 A 
HETATM   27  C   UNL     1      40.074 -14.335  -0.554  1.00  0.00     0.013 A 
ENDBRANCH  19  21
BRANCH  19  28
HETATM   28  O   UNL     1      38.497 -13.628   2.600  1.00  0.00    -0.384 OA
HETATM   29  H   UNL     1      38.335 -14.341   3.254  1.00  0.00     0.211 HD
ENDBRANCH  19  28
ENDBRANCH  18  19
ENDBRANCH   1  18
TORSDOF 6
ENDMDL
MODEL 10
REMARK VINA RESULT:      -8.1      5.314      8.354
REMARK  6 active torsions:
REMARK  status: ('A' for Active; 'I' for Inactive)
REMARK    1  A    between atoms: C_2  and  C_4 
REMARK    2  A    between atoms: C_2  and  C_11 
REMARK    3  A    between atoms: C_2  and  O_3 
REMARK    4  A    between atoms: C_11  and  N_12 
REMARK       I    between atoms: N_12  and  C_13 
REMARK    5  A    between atoms: C_13  and  C_14 
REMARK    6  A    between atoms: C_15  and  C_16 
ROOT
HETATM    1  N   UNL     1      43.312 -13.382   6.693  1.00  0.00    -0.354 N 
HETATM    2  C   UNL     1      43.262 -12.007   6.647  1.00  0.00     0.255 C 
HETATM    3  O   UNL     1      42.272 -11.410   6.234  1.00  0.00    -0.268 OA
HETATM    4  H   UNL     1      44.219 -13.815   6.814  1.00  0.00     0.162 HD
ENDROOT
BRANCH   2   5
HETATM    5  C   UNL     1      44.475 -11.344   7.087  1.00  0.00     0.080 A 
HETATM    6  C   UNL     1      44.723 -10.609   8.291  1.00  0.00     0.104 A 
HETATM    7  N   UNL     1      46.010 -10.215   8.346  1.00  0.00    -0.174 NA
HETATM    8  N   UNL     1      46.558 -10.665   7.215  1.00  0.00    -0.288 N 
HETATM    9  H   UNL     1      47.544 -10.483   7.057  1.00  0.00     0.188 HD
HETATM   10  C   UNL     1      45.686 -11.333   6.416  1.00  0.00     0.128 A 
BRANCH   6  11
HETATM   11  C   UNL     1      43.802 -10.235   9.369  1.00  0.00    -0.004 A 
HETATM   12  C   UNL     1      44.061 -10.651  10.687  1.00  0.00     0.017 A 
HETATM   13  C   UNL     1      43.213 -10.279  11.734  1.00  0.00     0.043 A 
HETATM   14  C   UNL     1      42.105  -9.487  11.466  1.00  0.00     0.116 A 
HETATM   15  F   UNL     1      41.293  -9.125  12.469  1.00  0.00    -0.206 F 
HETATM   16  C   UNL     1      41.831  -9.056  10.174  1.00  0.00     0.043 A 
HETATM   17  C   UNL     1      42.683  -9.424   9.127  1.00  0.00     0.017 A 
ENDBRANCH   6  11
ENDBRANCH   2   5
BRANCH   1  18
HETATM   18  C   UNL     1      42.223 -14.204   6.181  1.00  0.00     0.165 C 
BRANCH  18  19
HETATM   19  C   UNL     1      42.258 -15.691   6.655  1.00  0.00     0.097 C 
HETATM   20  C   UNL     1      43.098 -15.790   7.938  1.00  0.00     0.053 C 
BRANCH  19  21
HETATM   21  C   UNL     1      42.831 -16.624   5.582  1.00  0.00    -0.023 A 
HETATM   22  C   UNL     1      43.515 -17.804   5.937  1.00  0.00     0.013 A 
HETATM   23  C   UNL     1      44.040 -18.653   4.958  1.00  0.00     0.043 A 
HETATM   24  C   UNL     1      43.884 -18.332   3.617  1.00  0.00     0.116 A 
HETATM   25  F   UNL     1      44.387 -19.149   2.681  1.00  0.00    -0.206 F 
HETATM   26  C   UNL     1      43.213 -17.181   3.234  1.00  0.00     0.043 A 
HETATM   27  C   UNL     1      42.687 -16.333   4.213  1.00  0.00     0.013 A 
ENDBRANCH  19  21
BRANCH  19  28
HETATM   28  O   UNL     1      40.946 -16.139   7.028  1.00  0.00    -0.384 OA
HETATM   29  H   UNL     1      40.837 -16.027   7.996  1.00  0.00     0.211 HD
ENDBRANCH  19  28
ENDBRANCH  18  19
ENDBRANCH   1  18
TORSDOF 6
ENDMDL
