MODEL 1
REMARK VINA RESULT:      -9.1      0.000      0.000
REMARK  3 active torsions:
REMARK  status: ('A' for Active; 'I' for Inactive)
REMARK    1  A    between atoms: N_8  and  C_9 
REMARK    2  A    between atoms: C_18  and  C_19 
REMARK    3  A    between atoms: C_19  and  C_20 
ROOT
HETATM    1  C   UNL     1      42.583 -11.089   3.710  1.00  0.00     0.069 C 
HETATM    2  C   UNL     1      42.758 -12.397   4.437  1.00  0.00     0.017 A 
HETATM    3  N   UNL     1      42.857 -13.524   3.637  1.00  0.00    -0.348 N 
HETATM    4  C   UNL     1      43.101 -14.767   4.143  1.00  0.00     0.119 A 
HETATM    5  C   UNL     1      43.191 -14.965   5.465  1.00  0.00     0.124 A 
HETATM    6  C   UNL     1      43.373 -16.411   5.671  1.00  0.00     0.280 A 
HETATM    7  O   UNL     1      43.468 -16.958   6.755  1.00  0.00    -0.265 OA
HETATM    8  N   UNL     1      43.396 -16.966   4.382  1.00  0.00    -0.236 N 
HETATM    9  N   UNL     1      43.257 -15.938   3.426  1.00  0.00    -0.179 NA
HETATM   10  C   UNL     1      43.061 -13.847   6.399  1.00  0.00     0.199 A 
HETATM   11  O   UNL     1      43.146 -13.998   7.612  1.00  0.00    -0.287 OA
HETATM   12  C   UNL     1      42.823 -12.480   5.791  1.00  0.00     0.020 A 
HETATM   13  H   UNL     1      42.944 -13.404   2.633  1.00  0.00     0.167 HD
HETATM   14  H   UNL     1      42.456 -16.090   2.812  1.00  0.00     0.155 HD
ENDROOT
BRANCH  12  15
HETATM   15  C   UNL     1      42.741 -11.329   6.770  1.00  0.00     0.085 C 
BRANCH  15  16
HETATM   16  C   UNL     1      44.092 -10.783   7.200  1.00  0.00    -0.032 A 
HETATM   17  C   UNL     1      44.248  -9.762   8.153  1.00  0.00     0.040 A 
HETATM   18 CL   UNL     1      42.907  -9.002   8.935  1.00  0.00    -0.084 Cl
HETATM   19  C   UNL     1      45.523  -9.296   8.500  1.00  0.00     0.024 A 
HETATM   20  C   UNL     1      46.659  -9.831   7.897  1.00  0.00     0.002 A 
HETATM   21  C   UNL     1      46.524 -10.830   6.940  1.00  0.00     0.001 A 
HETATM   22  C   UNL     1      45.255 -11.297   6.591  1.00  0.00     0.009 A 
ENDBRANCH  15  16
ENDBRANCH  12  15
BRANCH   8  23
HETATM   23  C   UNL     1      43.584 -18.306   3.978  1.00  0.00     0.055 A 
HETATM   24  C   UNL     1      43.954 -19.298   4.895  1.00  0.00     0.031 A 
HETATM   25  C   UNL     1      44.131 -20.624   4.489  1.00  0.00     0.002 A 
HETATM   26  C   UNL     1      43.949 -20.979   3.157  1.00  0.00     0.000 A 
HETATM   27  C   UNL     1      43.588 -20.007   2.228  1.00  0.00     0.002 A 
HETATM   28  C   UNL     1      43.407 -18.681   2.636  1.00  0.00     0.031 A 
ENDBRANCH   8  23
TORSDOF 3
ENDMDL
MODEL 2
REMARK VINA RESULT:      -9.0      4.692      8.323
REMARK  3 active torsions:
REMARK  status: ('A' for Active; 'I' for Inactive)
REMARK    1  A    between atoms: N_8  and  C_9 
REMARK    2  A    between atoms: C_18  and  C_19 
REMARK    3  A    between atoms: C_19  and  C_20 
ROOT
HETATM    1  C   UNL     1      40.748 -16.076   5.603  1.00  0.00     0.069 C 
HETATM    2  C   UNL     1      40.935 -15.320   4.313  1.00  0.00     0.017 A 
HETATM    3  N   UNL     1      39.797 -14.723   3.793  1.00  0.00    -0.348 N 
HETATM    4  C   UNL     1      39.822 -13.936   2.679  1.00  0.00     0.119 A 
HETATM    5  C   UNL     1      40.956 -13.758   1.989  1.00  0.00     0.124 A 
HETATM    6  C   UNL     1      40.621 -12.936   0.815  1.00  0.00     0.280 A 
HETATM    7  O   UNL     1      41.407 -12.596  -0.050  1.00  0.00    -0.265 OA
HETATM    8  N   UNL     1      39.247 -12.670   0.934  1.00  0.00    -0.236 N 
HETATM    9  N   UNL     1      38.753 -13.267   2.112  1.00  0.00    -0.179 NA
HETATM   10  C   UNL     1      42.205 -14.378   2.430  1.00  0.00     0.199 A 
HETATM   11  O   UNL     1      43.258 -14.227   1.823  1.00  0.00    -0.287 OA
HETATM   12  C   UNL     1      42.137 -15.217   3.690  1.00  0.00     0.020 A 
HETATM   13  H   UNL     1      38.954 -14.706   4.358  1.00  0.00     0.167 HD
HETATM   14  H   UNL     1      37.988 -13.915   1.923  1.00  0.00     0.155 HD
ENDROOT
BRANCH  12  15
HETATM   15  C   UNL     1      43.448 -15.809   4.160  1.00  0.00     0.085 C 
BRANCH  15  16
HETATM   16  C   UNL     1      43.561 -17.310   3.955  1.00  0.00    -0.032 A 
HETATM   17  C   UNL     1      43.759 -18.223   5.005  1.00  0.00     0.040 A 
HETATM   18 CL   UNL     1      43.913 -17.730   6.655  1.00  0.00    -0.084 Cl
HETATM   19  C   UNL     1      43.863 -19.596   4.748  1.00  0.00     0.024 A 
HETATM   20  C   UNL     1      43.781 -20.080   3.444  1.00  0.00     0.002 A 
HETATM   21  C   UNL     1      43.601 -19.190   2.391  1.00  0.00     0.001 A 
HETATM   22  C   UNL     1      43.497 -17.821   2.643  1.00  0.00     0.009 A 
ENDBRANCH  15  16
ENDBRANCH  12  15
BRANCH   8  23
HETATM   23  C   UNL     1      38.403 -11.893   0.110  1.00  0.00     0.055 A 
HETATM   24  C   UNL     1      37.799 -10.723   0.585  1.00  0.00     0.031 A 
HETATM   25  C   UNL     1      36.969  -9.955  -0.239  1.00  0.00     0.002 A 
HETATM   26  C   UNL     1      36.725 -10.350  -1.550  1.00  0.00     0.000 A 
HETATM   27  C   UNL     1      37.311 -11.515  -2.039  1.00  0.00     0.002 A 
HETATM   28  C   UNL     1      38.143 -12.279  -1.215  1.00  0.00     0.031 A 
ENDBRANCH   8  23
TORSDOF 3
ENDMDL
MODEL 3
REMARK VINA RESULT:      -8.6      5.027      8.371
REMARK  3 active torsions:
REMARK  status: ('A' for Active; 'I' for Inactive)
REMARK    1  A    between atoms: N_8  and  C_9 
REMARK    2  A    between atoms: C_18  and  C_19 
REMARK    3  A    between atoms: C_19  and  C_20 
ROOT
HETATM    1  C   UNL     1      42.544 -13.549   4.723  1.00  0.00     0.069 C 
HETATM    2  C   UNL     1      41.723 -13.696   3.468  1.00  0.00     0.017 A 
HETATM    3  N   UNL     1      41.731 -12.608   2.610  1.00  0.00    -0.348 N 
HETATM    4  C   UNL     1      41.105 -12.622   1.398  1.00  0.00     0.119 A 
HETATM    5  C   UNL     1      40.386 -13.683   1.008  1.00  0.00     0.124 A 
HETATM    6  C   UNL     1      39.785 -13.340  -0.291  1.00  0.00     0.280 A 
HETATM    7  O   UNL     1      39.046 -14.064  -0.934  1.00  0.00    -0.265 OA
HETATM    8  N   UNL     1      40.244 -12.045  -0.578  1.00  0.00    -0.236 N 
HETATM    9  N   UNL     1      41.092 -11.606   0.461  1.00  0.00    -0.179 NA
HETATM   10  C   UNL     1      40.280 -14.868   1.858  1.00  0.00     0.199 A 
HETATM   11  O   UNL     1      39.636 -15.855   1.524  1.00  0.00    -0.287 OA
HETATM   12  C   UNL     1      41.018 -14.821   3.181  1.00  0.00     0.020 A 
HETATM   13  H   UNL     1      42.377 -11.847   2.793  1.00  0.00     0.167 HD
HETATM   14  H   UNL     1      40.765 -10.736   0.882  1.00  0.00     0.155 HD
ENDROOT
BRANCH  12  15
HETATM   15  C   UNL     1      40.939 -16.075   4.025  1.00  0.00     0.085 C 
BRANCH  15  16
HETATM   16  C   UNL     1      42.180 -16.948   3.957  1.00  0.00    -0.032 A 
HETATM   17  C   UNL     1      42.976 -17.252   5.075  1.00  0.00     0.040 A 
HETATM   18 CL   UNL     1      42.633 -16.648   6.658  1.00  0.00    -0.084 Cl
HETATM   19  C   UNL     1      44.115 -18.058   4.944  1.00  0.00     0.024 A 
HETATM   20  C   UNL     1      44.484 -18.564   3.700  1.00  0.00     0.002 A 
HETATM   21  C   UNL     1      43.718 -18.260   2.580  1.00  0.00     0.001 A 
HETATM   22  C   UNL     1      42.582 -17.457   2.706  1.00  0.00     0.009 A 
ENDBRANCH  15  16
ENDBRANCH  12  15
BRANCH   8  23
HETATM   23  C   UNL     1      40.016 -11.236  -1.713  1.00  0.00     0.055 A 
HETATM   24  C   UNL     1      38.728 -10.800  -2.049  1.00  0.00     0.031 A 
HETATM   25  C   UNL     1      38.512  -9.993  -3.172  1.00  0.00     0.002 A 
HETATM   26  C   UNL     1      39.579  -9.615  -3.979  1.00  0.00     0.000 A 
HETATM   27  C   UNL     1      40.866 -10.044  -3.665  1.00  0.00     0.002 A 
HETATM   28  C   UNL     1      41.082 -10.847  -2.541  1.00  0.00     0.031 A 
ENDBRANCH   8  23
TORSDOF 3
ENDMDL
MODEL 4
REMARK VINA RESULT:      -8.5     15.900     17.800
REMARK  3 active torsions:
REMARK  status: ('A' for Active; 'I' for Inactive)
REMARK    1  A    between atoms: N_8  and  C_9 
REMARK    2  A    between atoms: C_18  and  C_19 
REMARK    3  A    between atoms: C_19  and  C_20 
ROOT
HETATM    1  C   UNL     1      48.641 -29.207  -1.991  1.00  0.00     0.069 C 
HETATM    2  C   UNL     1      48.379 -29.291  -0.509  1.00  0.00     0.017 A 
HETATM    3  N   UNL     1      49.272 -30.064   0.218  1.00  0.00    -0.348 N 
HETATM    4  C   UNL     1      49.217 -30.169   1.577  1.00  0.00     0.119 A 
HETATM    5  C   UNL     1      48.240 -29.574   2.274  1.00  0.00     0.124 A 
HETATM    6  C   UNL     1      48.426 -29.952   3.684  1.00  0.00     0.280 A 
HETATM    7  O   UNL     1      47.702 -29.611   4.602  1.00  0.00    -0.265 OA
HETATM    8  N   UNL     1      49.570 -30.766   3.698  1.00  0.00    -0.236 N 
HETATM    9  N   UNL     1      50.083 -30.878   2.389  1.00  0.00    -0.179 NA
HETATM   10  C   UNL     1      47.224 -28.768   1.597  1.00  0.00     0.199 A 
HETATM   11  O   UNL     1      46.324 -28.206   2.210  1.00  0.00    -0.287 OA
HETATM   12  C   UNL     1      47.343 -28.652   0.091  1.00  0.00     0.020 A 
HETATM   13  H   UNL     1      50.108 -30.408  -0.243  1.00  0.00     0.167 HD
HETATM   14  H   UNL     1      50.145 -31.849   2.082  1.00  0.00     0.155 HD
ENDROOT
BRANCH  12  15
HETATM   15  C   UNL     1      46.313 -27.774  -0.585  1.00  0.00     0.085 C 
BRANCH  15  16
HETATM   16  C   UNL     1      45.511 -28.477  -1.666  1.00  0.00    -0.032 A 
HETATM   17  C   UNL     1      44.696 -29.596  -1.423  1.00  0.00     0.040 A 
HETATM   18 CL   UNL     1      44.530 -30.307   0.144  1.00  0.00    -0.084 Cl
HETATM   19  C   UNL     1      43.987 -30.205  -2.467  1.00  0.00     0.024 A 
HETATM   20  C   UNL     1      44.085 -29.717  -3.768  1.00  0.00     0.002 A 
HETATM   21  C   UNL     1      44.899 -28.621  -4.031  1.00  0.00     0.001 A 
HETATM   22  C   UNL     1      45.608 -28.011  -2.993  1.00  0.00     0.009 A 
ENDBRANCH  15  16
ENDBRANCH  12  15
BRANCH   8  23
HETATM   23  C   UNL     1      50.231 -31.376   4.787  1.00  0.00     0.055 A 
HETATM   24  C   UNL     1      49.618 -32.388   5.536  1.00  0.00     0.031 A 
HETATM   25  C   UNL     1      50.283 -32.992   6.608  1.00  0.00     0.002 A 
HETATM   26  C   UNL     1      51.568 -32.590   6.952  1.00  0.00     0.000 A 
HETATM   27  C   UNL     1      52.193 -31.581   6.223  1.00  0.00     0.002 A 
HETATM   28  C   UNL     1      51.529 -30.980   5.149  1.00  0.00     0.031 A 
ENDBRANCH   8  23
TORSDOF 3
ENDMDL
MODEL 5
REMARK VINA RESULT:      -8.4      2.713      4.380
REMARK  3 active torsions:
REMARK  status: ('A' for Active; 'I' for Inactive)
REMARK    1  A    between atoms: N_8  and  C_9 
REMARK    2  A    between atoms: C_18  and  C_19 
REMARK    3  A    between atoms: C_19  and  C_20 
ROOT
HETATM    1  C   UNL     1      41.870  -7.807   7.284  1.00  0.00     0.069 C 
HETATM    2  C   UNL     1      42.436  -9.197   7.149  1.00  0.00     0.017 A 
HETATM    3  N   UNL     1      41.823 -10.009   6.206  1.00  0.00    -0.348 N 
HETATM    4  C   UNL     1      42.274 -11.262   5.909  1.00  0.00     0.119 A 
HETATM    5  C   UNL     1      43.306 -11.797   6.576  1.00  0.00     0.124 A 
HETATM    6  C   UNL     1      43.477 -13.169   6.073  1.00  0.00     0.280 A 
HETATM    7  O   UNL     1      44.309 -13.963   6.473  1.00  0.00    -0.265 OA
HETATM    8  N   UNL     1      42.490 -13.325   5.087  1.00  0.00    -0.236 N 
HETATM    9  N   UNL     1      41.758 -12.125   4.961  1.00  0.00    -0.179 NA
HETATM   10  C   UNL     1      43.996 -11.038   7.619  1.00  0.00     0.199 A 
HETATM   11  O   UNL     1      44.946 -11.500   8.240  1.00  0.00    -0.287 OA
HETATM   12  C   UNL     1      43.483  -9.639   7.892  1.00  0.00     0.020 A 
HETATM   13  H   UNL     1      41.141  -9.598   5.578  1.00  0.00     0.167 HD
HETATM   14  H   UNL     1      40.759 -12.267   5.114  1.00  0.00     0.155 HD
ENDROOT
BRANCH  12  15
HETATM   15  C   UNL     1      44.240  -8.851   8.938  1.00  0.00     0.085 C 
BRANCH  15  16
HETATM   16  C   UNL     1      43.599  -8.868  10.314  1.00  0.00    -0.032 A 
HETATM   17  C   UNL     1      43.059  -7.728  10.934  1.00  0.00     0.040 A 
HETATM   18 CL   UNL     1      43.082  -6.166  10.194  1.00  0.00    -0.084 Cl
HETATM   19  C   UNL     1      42.488  -7.809  12.210  1.00  0.00     0.024 A 
HETATM   20  C   UNL     1      42.454  -9.023  12.893  1.00  0.00     0.002 A 
HETATM   21  C   UNL     1      42.997 -10.159  12.304  1.00  0.00     0.001 A 
HETATM   22  C   UNL     1      43.568 -10.081  11.031  1.00  0.00     0.009 A 
ENDBRANCH  15  16
ENDBRANCH  12  15
BRANCH   8  23
HETATM   23  C   UNL     1      42.218 -14.427   4.246  1.00  0.00     0.055 A 
HETATM   24  C   UNL     1      43.083 -14.777   3.202  1.00  0.00     0.031 A 
HETATM   25  C   UNL     1      42.810 -15.874   2.379  1.00  0.00     0.002 A 
HETATM   26  C   UNL     1      41.664 -16.635   2.583  1.00  0.00     0.000 A 
HETATM   27  C   UNL     1      40.789 -16.300   3.612  1.00  0.00     0.002 A 
HETATM   28  C   UNL     1      41.064 -15.205   4.437  1.00  0.00     0.031 A 
ENDBRANCH   8  23
TORSDOF 3
ENDMDL
MODEL 6
REMARK VINA RESULT:      -8.4      4.644      8.401
REMARK  3 active torsions:
REMARK  status: ('A' for Active; 'I' for Inactive)
REMARK    1  A    between atoms: N_8  and  C_9 
REMARK    2  A    between atoms: C_18  and  C_19 
REMARK    3  A    between atoms: C_19  and  C_20 
ROOT
HETATM    1  C   UNL     1      42.166 -13.166   5.330  1.00  0.00     0.069 C 
HETATM    2  C   UNL     1      41.712 -13.106   3.894  1.00  0.00     0.017 A 
HETATM    3  N   UNL     1      41.986 -11.924   3.224  1.00  0.00    -0.348 N 
HETATM    4  C   UNL     1      41.713 -11.749   1.899  1.00  0.00     0.119 A 
HETATM    5  C   UNL     1      41.095 -12.705   1.192  1.00  0.00     0.124 A 
HETATM    6  C   UNL     1      40.881 -12.168  -0.161  1.00  0.00     0.280 A 
HETATM    7  O   UNL     1      40.322 -12.758  -1.068  1.00  0.00    -0.265 OA
HETATM    8  N   UNL     1      41.439 -10.880  -0.139  1.00  0.00    -0.236 N 
HETATM    9  N   UNL     1      41.986 -10.628   1.137  1.00  0.00    -0.179 NA
HETATM   10  C   UNL     1      40.726 -13.975   1.817  1.00  0.00     0.199 A 
HETATM   11  O   UNL     1      40.168 -14.870   1.193  1.00  0.00    -0.287 OA
HETATM   12  C   UNL     1      41.078 -14.138   3.281  1.00  0.00     0.020 A 
HETATM   13  H   UNL     1      42.581 -11.235   3.672  1.00  0.00     0.167 HD
HETATM   14  H   UNL     1      41.584  -9.796   1.570  1.00  0.00     0.155 HD
ENDROOT
BRANCH  12  15
HETATM   15  C   UNL     1      40.735 -15.477   3.897  1.00  0.00     0.085 C 
BRANCH  15  16
HETATM   16  C   UNL     1      41.894 -16.458   3.938  1.00  0.00    -0.032 A 
HETATM   17  C   UNL     1      42.494 -16.901   5.128  1.00  0.00     0.040 A 
HETATM   18 CL   UNL     1      41.981 -16.361   6.689  1.00  0.00    -0.084 Cl
HETATM   19  C   UNL     1      43.567 -17.801   5.098  1.00  0.00     0.024 A 
HETATM   20  C   UNL     1      44.066 -18.265   3.882  1.00  0.00     0.002 A 
HETATM   21  C   UNL     1      43.496 -17.825   2.693  1.00  0.00     0.001 A 
HETATM   22  C   UNL     1      42.426 -16.928   2.720  1.00  0.00     0.009 A 
ENDBRANCH  15  16
ENDBRANCH  12  15
BRANCH   8  23
HETATM   23  C   UNL     1      41.553  -9.926  -1.174  1.00  0.00     0.055 A 
HETATM   24  C   UNL     1      42.444  -8.851  -1.077  1.00  0.00     0.031 A 
HETATM   25  C   UNL     1      42.556  -7.914  -2.110  1.00  0.00     0.002 A 
HETATM   26  C   UNL     1      41.774  -8.035  -3.253  1.00  0.00     0.000 A 
HETATM   27  C   UNL     1      40.877  -9.094  -3.365  1.00  0.00     0.002 A 
HETATM   28  C   UNL     1      40.768 -10.032  -2.334  1.00  0.00     0.031 A 
ENDBRANCH   8  23
TORSDOF 3
ENDMDL
MODEL 7
REMARK VINA RESULT:      -8.4      4.269      9.392
REMARK  3 active torsions:
REMARK  status: ('A' for Active; 'I' for Inactive)
REMARK    1  A    between atoms: N_8  and  C_9 
REMARK    2  A    between atoms: C_18  and  C_19 
REMARK    3  A    between atoms: C_19  and  C_20 
ROOT
HETATM    1  C   UNL     1      40.987 -11.394   5.405  1.00  0.00     0.069 C 
HETATM    2  C   UNL     1      41.936 -10.994   6.505  1.00  0.00     0.017 A 
HETATM    3  N   UNL     1      41.455 -10.056   7.406  1.00  0.00    -0.348 N 
HETATM    4  C   UNL     1      42.163  -9.657   8.501  1.00  0.00     0.119 A 
HETATM    5  C   UNL     1      43.403 -10.113   8.722  1.00  0.00     0.124 A 
HETATM    6  C   UNL     1      43.905  -9.429   9.925  1.00  0.00     0.280 A 
HETATM    7  O   UNL     1      45.012  -9.582  10.407  1.00  0.00    -0.265 OA
HETATM    8  N   UNL     1      42.851  -8.600  10.342  1.00  0.00    -0.236 N 
HETATM    9  N   UNL     1      41.753  -8.763   9.473  1.00  0.00    -0.179 NA
HETATM   10  C   UNL     1      44.018 -11.076   7.809  1.00  0.00     0.199 A 
HETATM   11  O   UNL     1      45.148 -11.515   7.990  1.00  0.00    -0.287 OA
HETATM   12  C   UNL     1      43.184 -11.516   6.624  1.00  0.00     0.020 A 
HETATM   13  H   UNL     1      40.474  -9.797   7.364  1.00  0.00     0.167 HD
HETATM   14  H   UNL     1      41.465  -7.881   9.047  1.00  0.00     0.155 HD
ENDROOT
BRANCH  12  15
HETATM   15  C   UNL     1      43.817 -12.550   5.719  1.00  0.00     0.085 C 
BRANCH  15  16
HETATM   16  C   UNL     1      43.280 -13.957   5.913  1.00  0.00    -0.032 A 
HETATM   17  C   UNL     1      42.829 -14.768   4.858  1.00  0.00     0.040 A 
HETATM   18 CL   UNL     1      42.823 -14.240   3.211  1.00  0.00    -0.084 Cl
HETATM   19  C   UNL     1      42.336 -16.056   5.105  1.00  0.00     0.024 A 
HETATM   20  C   UNL     1      42.275 -16.552   6.405  1.00  0.00     0.002 A 
HETATM   21  C   UNL     1      42.702 -15.759   7.464  1.00  0.00     0.001 A 
HETATM   22  C   UNL     1      43.193 -14.474   7.221  1.00  0.00     0.009 A 
ENDBRANCH  15  16
ENDBRANCH  12  15
BRANCH   8  23
HETATM   23  C   UNL     1      42.763  -7.747  11.465  1.00  0.00     0.055 A 
HETATM   24  C   UNL     1      42.226  -6.458  11.359  1.00  0.00     0.031 A 
HETATM   25  C   UNL     1      42.136  -5.623  12.477  1.00  0.00     0.002 A 
HETATM   26  C   UNL     1      42.586  -6.061  13.717  1.00  0.00     0.000 A 
HETATM   27  C   UNL     1      43.127  -7.337  13.842  1.00  0.00     0.002 A 
HETATM   28  C   UNL     1      43.215  -8.173  12.724  1.00  0.00     0.031 A 
ENDBRANCH   8  23
TORSDOF 3
ENDMDL
MODEL 8
REMARK VINA RESULT:      -8.2      3.735      8.573
REMARK  3 active torsions:
REMARK  status: ('A' for Active; 'I' for Inactive)
REMARK    1  A    between atoms: N_8  and  C_9 
REMARK    2  A    between atoms: C_18  and  C_19 
REMARK    3  A    between atoms: C_19  and  C_20 
ROOT
HETATM    1  C   UNL     1      39.934 -12.217   3.786  1.00  0.00     0.069 C 
HETATM    2  C   UNL     1      41.088 -11.696   4.605  1.00  0.00     0.017 A 
HETATM    3  N   UNL     1      40.750 -11.087   5.804  1.00  0.00    -0.348 N 
HETATM    4  C   UNL     1      41.685 -10.642   6.692  1.00  0.00     0.119 A 
HETATM    5  C   UNL     1      42.993 -10.716   6.408  1.00  0.00     0.124 A 
HETATM    6  C   UNL     1      43.711 -10.082   7.525  1.00  0.00     0.280 A 
HETATM    7  O   UNL     1      44.919  -9.947   7.595  1.00  0.00    -0.265 OA
HETATM    8  N   UNL     1      42.711  -9.686   8.428  1.00  0.00    -0.236 N 
HETATM    9  N   UNL     1      41.448 -10.062   7.924  1.00  0.00    -0.179 NA
HETATM   10  C   UNL     1      43.453 -11.305   5.151  1.00  0.00     0.199 A 
HETATM   11  O   UNL     1      44.642 -11.392   4.869  1.00  0.00    -0.287 OA
HETATM   12  C   UNL     1      42.381 -11.816   4.209  1.00  0.00     0.020 A 
HETATM   13  H   UNL     1      39.790 -11.143   6.126  1.00  0.00     0.167 HD
HETATM   14  H   UNL     1      40.820  -9.264   7.827  1.00  0.00     0.155 HD
ENDROOT
BRANCH  12  15
HETATM   15  C   UNL     1      42.878 -12.467   2.937  1.00  0.00     0.085 C 
BRANCH  15  16
HETATM   16  C   UNL     1      42.660 -13.969   2.883  1.00  0.00    -0.032 A 
HETATM   17  C   UNL     1      41.910 -14.610   1.882  1.00  0.00     0.040 A 
HETATM   18 CL   UNL     1      41.135 -13.745   0.601  1.00  0.00    -0.084 Cl
HETATM   19  C   UNL     1      41.739 -16.000   1.894  1.00  0.00     0.024 A 
HETATM   20  C   UNL     1      42.303 -16.773   2.907  1.00  0.00     0.002 A 
HETATM   21  C   UNL     1      43.035 -16.156   3.915  1.00  0.00     0.001 A 
HETATM   22  C   UNL     1      43.207 -14.770   3.906  1.00  0.00     0.009 A 
ENDBRANCH  15  16
ENDBRANCH  12  15
BRANCH   8  23
HETATM   23  C   UNL     1      42.828  -9.066   9.691  1.00  0.00     0.055 A 
HETATM   24  C   UNL     1      43.338  -9.757  10.797  1.00  0.00     0.031 A 
HETATM   25  C   UNL     1      43.457  -9.134  12.043  1.00  0.00     0.002 A 
HETATM   26  C   UNL     1      43.061  -7.810  12.205  1.00  0.00     0.000 A 
HETATM   27  C   UNL     1      42.546  -7.108  11.120  1.00  0.00     0.002 A 
HETATM   28  C   UNL     1      42.430  -7.731   9.873  1.00  0.00     0.031 A 
ENDBRANCH   8  23
TORSDOF 3
ENDMDL
MODEL 9
REMARK VINA RESULT:      -8.2      2.795      4.533
REMARK  3 active torsions:
REMARK  status: ('A' for Active; 'I' for Inactive)
REMARK    1  A    between atoms: N_8  and  C_9 
REMARK    2  A    between atoms: C_18  and  C_19 
REMARK    3  A    between atoms: C_19  and  C_20 
ROOT
HETATM    1  C   UNL     1      46.177  -9.132   8.558  1.00  0.00     0.069 C 
HETATM    2  C   UNL     1      45.005  -9.845   7.935  1.00  0.00     0.017 A 
HETATM    3  N   UNL     1      45.293 -11.046   7.306  1.00  0.00    -0.348 N 
HETATM    4  C   UNL     1      44.328 -11.847   6.770  1.00  0.00     0.119 A 
HETATM    5  C   UNL     1      43.042 -11.468   6.769  1.00  0.00     0.124 A 
HETATM    6  C   UNL     1      42.288 -12.507   6.051  1.00  0.00     0.280 A 
HETATM    7  O   UNL     1      41.090 -12.481   5.836  1.00  0.00    -0.265 OA
HETATM    8  N   UNL     1      43.244 -13.470   5.688  1.00  0.00    -0.236 N 
HETATM    9  N   UNL     1      44.512 -13.074   6.162  1.00  0.00    -0.179 NA
HETATM   10  C   UNL     1      42.638 -10.199   7.373  1.00  0.00     0.199 A 
HETATM   11  O   UNL     1      41.469  -9.830   7.393  1.00  0.00    -0.287 OA
HETATM   12  C   UNL     1      43.738  -9.357   7.985  1.00  0.00     0.020 A 
HETATM   13  H   UNL     1      46.222 -11.442   7.412  1.00  0.00     0.167 HD
HETATM   14  H   UNL     1      45.198 -13.001   5.410  1.00  0.00     0.155 HD
ENDROOT
BRANCH  12  15
HETATM   15  C   UNL     1      43.294  -8.072   8.649  1.00  0.00     0.085 C 
BRANCH  15  16
HETATM   16  C   UNL     1      43.096  -8.185  10.151  1.00  0.00    -0.032 A 
HETATM   17  C   UNL     1      42.791  -7.091  10.979  1.00  0.00     0.040 A 
HETATM   18 CL   UNL     1      42.621  -5.481  10.372  1.00  0.00    -0.084 Cl
HETATM   19  C   UNL     1      42.629  -7.261  12.359  1.00  0.00     0.024 A 
HETATM   20  C   UNL     1      42.778  -8.520  12.939  1.00  0.00     0.002 A 
HETATM   21  C   UNL     1      43.096  -9.611  12.139  1.00  0.00     0.001 A 
HETATM   22  C   UNL     1      43.258  -9.445  10.762  1.00  0.00     0.009 A 
ENDBRANCH  15  16
ENDBRANCH  12  15
BRANCH   8  23
HETATM   23  C   UNL     1      43.076 -14.701   5.016  1.00  0.00     0.055 A 
HETATM   24  C   UNL     1      43.139 -15.919   5.703  1.00  0.00     0.031 A 
HETATM   25  C   UNL     1      42.965 -17.134   5.032  1.00  0.00     0.002 A 
HETATM   26  C   UNL     1      42.732 -17.149   3.661  1.00  0.00     0.000 A 
HETATM   27  C   UNL     1      42.673 -15.949   2.958  1.00  0.00     0.002 A 
HETATM   28  C   UNL     1      42.843 -14.735   3.631  1.00  0.00     0.031 A 
ENDBRANCH   8  23
TORSDOF 3
ENDMDL
MODEL 10
REMARK VINA RESULT:      -8.0     16.447     18.110
REMARK  3 active torsions:
REMARK  status: ('A' for Active; 'I' for Inactive)
REMARK    1  A    between atoms: N_8  and  C_9 
REMARK    2  A    between atoms: C_18  and  C_19 
REMARK    3  A    between atoms: C_19  and  C_20 
ROOT
HETATM    1  C   UNL     1      47.911 -28.117  -1.837  1.00  0.00     0.069 C 
HETATM    2  C   UNL     1      47.601 -28.822  -0.541  1.00  0.00     0.017 A 
HETATM    3  N   UNL     1      48.698 -29.199   0.217  1.00  0.00    -0.348 N 
HETATM    4  C   UNL     1      48.579 -29.769   1.451  1.00  0.00     0.119 A 
HETATM    5  C   UNL     1      47.374 -30.055   1.962  1.00  0.00     0.124 A 
HETATM    6  C   UNL     1      47.603 -30.729   3.251  1.00  0.00     0.280 A 
HETATM    7  O   UNL     1      46.729 -31.153   3.984  1.00  0.00    -0.265 OA
HETATM    8  N   UNL     1      48.998 -30.766   3.403  1.00  0.00    -0.236 N 
HETATM    9  N   UNL     1      49.608 -30.140   2.295  1.00  0.00    -0.179 NA
HETATM   10  C   UNL     1      46.153 -29.733   1.224  1.00  0.00     0.199 A 
HETATM   11  O   UNL     1      45.039 -29.977   1.670  1.00  0.00    -0.287 OA
HETATM   12  C   UNL     1      46.332 -29.072  -0.127  1.00  0.00     0.020 A 
HETATM   13  H   UNL     1      49.618 -28.872  -0.059  1.00  0.00     0.167 HD
HETATM   14  H   UNL     1      50.259 -30.761   1.814  1.00  0.00     0.155 HD
ENDROOT
BRANCH  12  15
HETATM   15  C   UNL     1      45.058 -28.700  -0.854  1.00  0.00     0.085 C 
BRANCH  15  16
HETATM   16  C   UNL     1      44.746 -29.582  -2.050  1.00  0.00    -0.032 A 
HETATM   17  C   UNL     1      44.739 -29.117  -3.376  1.00  0.00     0.040 A 
HETATM   18 CL   UNL     1      45.074 -27.472  -3.790  1.00  0.00    -0.084 Cl
HETATM   19  C   UNL     1      44.435 -29.981  -4.436  1.00  0.00     0.024 A 
HETATM   20  C   UNL     1      44.123 -31.317  -4.192  1.00  0.00     0.002 A 
HETATM   21  C   UNL     1      44.109 -31.792  -2.886  1.00  0.00     0.001 A 
HETATM   22  C   UNL     1      44.412 -30.933  -1.827  1.00  0.00     0.009 A 
ENDBRANCH  15  16
ENDBRANCH  12  15
BRANCH   8  23
HETATM   23  C   UNL     1      49.778 -31.261   4.472  1.00  0.00     0.055 A 
HETATM   24  C   UNL     1      49.313 -32.295   5.293  1.00  0.00     0.031 A 
HETATM   25  C   UNL     1      50.094 -32.785   6.345  1.00  0.00     0.002 A 
HETATM   26  C   UNL     1      51.350 -32.243   6.596  1.00  0.00     0.000 A 
HETATM   27  C   UNL     1      51.827 -31.209   5.795  1.00  0.00     0.002 A 
HETATM   28  C   UNL     1      51.047 -30.723   4.741  1.00  0.00     0.031 A 
ENDBRANCH   8  23
TORSDOF 3
ENDMDL
