MODEL 1
REMARK VINA RESULT:      -7.6      0.000      0.000
REMARK  2 active torsions:
REMARK  status: ('A' for Active; 'I' for Inactive)
REMARK    1  A    between atoms: S_2  and  N_3 
REMARK    2  A    between atoms: C_10  and  N_11 
ROOT
HETATM    1  N   UNL     1      40.983 -14.309   2.837  1.00  0.00    -0.311 N 
HETATM    2  C   UNL     1      42.440 -14.046   2.805  1.00  0.00     0.138 C 
HETATM    3  C   UNL     1      43.076 -14.279   4.175  1.00  0.00     0.059 C 
HETATM    4  C   UNL     1      42.719 -15.650   4.790  1.00  0.00     0.073 C 
HETATM    5  O   UNL     1      43.435 -16.633   4.020  1.00  0.00    -0.339 OA
HETATM    6  C   UNL     1      43.597 -17.872   4.575  1.00  0.00     0.078 A 
HETATM    7  C   UNL     1      43.407 -18.151   5.934  1.00  0.00     0.005 A 
HETATM    8  C   UNL     1      43.022 -17.045   6.874  1.00  0.00     0.222 C 
HETATM    9  C   UNL     1      43.231 -15.673   6.240  1.00  0.00     0.076 C 
HETATM   10  C   UNL     1      43.980 -18.878   3.688  1.00  0.00     0.037 A 
HETATM   11  C   UNL     1      44.136 -20.186   4.139  1.00  0.00     0.003 A 
HETATM   12  C   UNL     1      43.904 -20.490   5.477  1.00  0.00     0.001 A 
HETATM   13  C   UNL     1      43.535 -19.481   6.371  1.00  0.00     0.012 A 
HETATM   14  C   UNL     1      41.198 -15.907   4.693  1.00  0.00     0.059 C 
HETATM   15  C   UNL     1      40.683 -15.689   3.274  1.00  0.00     0.138 C 
ENDROOT
BRANCH   8  16
HETATM   16  N   UNL     1      43.811 -17.069   8.141  1.00  0.00    -0.071 N 
HETATM   17  H   UNL     1      43.998 -16.120   8.484  1.00  0.00     0.275 HD
HETATM   18  H   UNL     1      43.294 -17.566   8.877  1.00  0.00     0.275 HD
HETATM   19  H   UNL     1      44.719 -17.534   8.017  1.00  0.00     0.275 HD
ENDBRANCH   8  16
BRANCH   1  20
HETATM   20  S   UNL     1      39.943 -13.089   3.401  1.00  0.00     0.224 S 
HETATM   21  C   UNL     1      40.797 -11.607   2.905  1.00  0.00     0.186 C 
HETATM   22  O   UNL     1      39.920 -13.174   4.845  1.00  0.00    -0.206 OA
HETATM   23  O   UNL     1      38.715 -13.174   2.641  1.00  0.00    -0.206 OA
ENDBRANCH   1  20
TORSDOF 2
ENDMDL
MODEL 2
REMARK VINA RESULT:      -7.2      2.509      3.782
REMARK  2 active torsions:
REMARK  status: ('A' for Active; 'I' for Inactive)
REMARK    1  A    between atoms: S_2  and  N_3 
REMARK    2  A    between atoms: C_10  and  N_11 
ROOT
HETATM    1  N   UNL     1      40.343 -13.200   1.532  1.00  0.00    -0.311 N 
HETATM    2  C   UNL     1      39.419 -14.147   2.197  1.00  0.00     0.138 C 
HETATM    3  C   UNL     1      39.973 -15.572   2.175  1.00  0.00     0.059 C 
HETATM    4  C   UNL     1      41.425 -15.671   2.694  1.00  0.00     0.073 C 
HETATM    5  O   UNL     1      41.357 -15.460   4.116  1.00  0.00    -0.339 OA
HETATM    6  C   UNL     1      42.428 -15.864   4.864  1.00  0.00     0.078 A 
HETATM    7  C   UNL     1      43.418 -16.740   4.403  1.00  0.00     0.005 A 
HETATM    8  C   UNL     1      43.323 -17.306   3.015  1.00  0.00     0.222 C 
HETATM    9  C   UNL     1      41.935 -17.095   2.418  1.00  0.00     0.076 C 
HETATM   10  C   UNL     1      42.481 -15.347   6.158  1.00  0.00     0.037 A 
HETATM   11  C   UNL     1      43.548 -15.662   6.995  1.00  0.00     0.003 A 
HETATM   12  C   UNL     1      44.567 -16.491   6.534  1.00  0.00     0.001 A 
HETATM   13  C   UNL     1      44.508 -17.024   5.244  1.00  0.00     0.012 A 
HETATM   14  C   UNL     1      42.309 -14.586   2.039  1.00  0.00     0.059 C 
HETATM   15  C   UNL     1      41.680 -13.202   2.162  1.00  0.00     0.138 C 
ENDROOT
BRANCH   8  16
HETATM   16  N   UNL     1      43.603 -18.772   2.974  1.00  0.00    -0.071 N 
HETATM   17  H   UNL     1      44.117 -19.032   2.125  1.00  0.00     0.275 HD
HETATM   18  H   UNL     1      44.178 -19.051   3.779  1.00  0.00     0.275 HD
HETATM   19  H   UNL     1      42.738 -19.326   2.991  1.00  0.00     0.275 HD
ENDBRANCH   8  16
BRANCH   1  20
HETATM   20  S   UNL     1      40.300 -13.068  -0.162  1.00  0.00     0.224 S 
HETATM   21  C   UNL     1      38.724 -12.284  -0.439  1.00  0.00     0.186 C 
HETATM   22  O   UNL     1      40.272 -14.412  -0.699  1.00  0.00    -0.206 OA
HETATM   23  O   UNL     1      41.337 -12.140  -0.556  1.00  0.00    -0.206 OA
ENDBRANCH   1  20
TORSDOF 2
ENDMDL
MODEL 3
REMARK VINA RESULT:      -6.9      2.726      3.656
REMARK  2 active torsions:
REMARK  status: ('A' for Active; 'I' for Inactive)
REMARK    1  A    between atoms: S_2  and  N_3 
REMARK    2  A    between atoms: C_10  and  N_11 
ROOT
HETATM    1  N   UNL     1      40.142 -10.941   4.989  1.00  0.00    -0.311 N 
HETATM    2  C   UNL     1      41.590 -10.763   5.243  1.00  0.00     0.138 C 
HETATM    3  C   UNL     1      42.175 -11.961   5.989  1.00  0.00     0.059 C 
HETATM    4  C   UNL     1      41.834 -13.318   5.332  1.00  0.00     0.073 C 
HETATM    5  O   UNL     1      42.612 -13.383   4.122  1.00  0.00    -0.339 OA
HETATM    6  C   UNL     1      42.788 -14.613   3.553  1.00  0.00     0.078 A 
HETATM    7  C   UNL     1      42.549 -15.823   4.216  1.00  0.00     0.005 A 
HETATM    8  C   UNL     1      42.091 -15.810   5.646  1.00  0.00     0.222 C 
HETATM    9  C   UNL     1      42.284 -14.438   6.284  1.00  0.00     0.076 C 
HETATM   10  C   UNL     1      43.239 -14.601   2.233  1.00  0.00     0.037 A 
HETATM   11  C   UNL     1      43.417 -15.797   1.543  1.00  0.00     0.003 A 
HETATM   12  C   UNL     1      43.136 -17.007   2.171  1.00  0.00     0.001 A 
HETATM   13  C   UNL     1      42.699 -17.023   3.498  1.00  0.00     0.012 A 
HETATM   14  C   UNL     1      40.327 -13.392   4.996  1.00  0.00     0.059 C 
HETATM   15  C   UNL     1      39.867 -12.168   4.212  1.00  0.00     0.138 C 
ENDROOT
BRANCH   8  16
HETATM   16  N   UNL     1      42.826 -16.797   6.492  1.00  0.00    -0.071 N 
HETATM   17  H   UNL     1      42.326 -16.985   7.368  1.00  0.00     0.275 HD
HETATM   18  H   UNL     1      42.926 -17.692   5.996  1.00  0.00     0.275 HD
HETATM   19  H   UNL     1      43.765 -16.462   6.741  1.00  0.00     0.275 HD
ENDBRANCH   8  16
BRANCH   1  20
HETATM   20  S   UNL     1      39.042 -10.561   6.227  1.00  0.00     0.224 S 
HETATM   21  C   UNL     1      39.929  -9.323   7.152  1.00  0.00     0.186 C 
HETATM   22  O   UNL     1      38.879 -11.747   7.040  1.00  0.00    -0.206 OA
HETATM   23  O   UNL     1      37.896  -9.926   5.615  1.00  0.00    -0.206 OA
ENDBRANCH   1  20
TORSDOF 2
ENDMDL
MODEL 4
REMARK VINA RESULT:      -6.5      3.410      7.013
REMARK  2 active torsions:
REMARK  status: ('A' for Active; 'I' for Inactive)
REMARK    1  A    between atoms: S_2  and  N_3 
REMARK    2  A    between atoms: C_10  and  N_11 
ROOT
HETATM    1  N   UNL     1      41.859 -16.440   3.263  1.00  0.00    -0.311 N 
HETATM    2  C   UNL     1      40.449 -16.038   3.473  1.00  0.00     0.138 C 
HETATM    3  C   UNL     1      40.257 -14.541   3.237  1.00  0.00     0.059 C 
HETATM    4  C   UNL     1      40.834 -14.055   1.889  1.00  0.00     0.073 C 
HETATM    5  O   UNL     1      39.961 -14.574   0.869  1.00  0.00    -0.339 OA
HETATM    6  C   UNL     1      40.019 -13.993  -0.367  1.00  0.00     0.078 A 
HETATM    7  C   UNL     1      40.614 -12.750  -0.618  1.00  0.00     0.005 A 
HETATM    8  C   UNL     1      41.217 -11.971   0.515  1.00  0.00     0.222 C 
HETATM    9  C   UNL     1      40.776 -12.519   1.869  1.00  0.00     0.076 C 
HETATM   10  C   UNL     1      39.430 -14.722  -1.399  1.00  0.00     0.037 A 
HETATM   11  C   UNL     1      39.466 -14.241  -2.704  1.00  0.00     0.003 A 
HETATM   12  C   UNL     1      40.096 -13.032  -2.980  1.00  0.00     0.001 A 
HETATM   13  C   UNL     1      40.674 -12.291  -1.945  1.00  0.00     0.012 A 
HETATM   14  C   UNL     1      42.266 -14.599   1.687  1.00  0.00     0.059 C 
HETATM   15  C   UNL     1      42.328 -16.107   1.902  1.00  0.00     0.138 C 
ENDROOT
BRANCH   8  16
HETATM   16  N   UNL     1      40.841 -10.526   0.481  1.00  0.00    -0.071 N 
HETATM   17  H   UNL     1      40.501 -10.206   1.394  1.00  0.00     0.275 HD
HETATM   18  H   UNL     1      41.655  -9.948   0.236  1.00  0.00     0.275 HD
HETATM   19  H   UNL     1      40.098 -10.341  -0.205  1.00  0.00     0.275 HD
ENDBRANCH   8  16
BRANCH   1  20
HETATM   20  S   UNL     1      42.971 -16.214   4.529  1.00  0.00     0.224 S 
HETATM   21  C   UNL     1      42.023 -16.706   5.955  1.00  0.00     0.186 C 
HETATM   22  O   UNL     1      43.258 -14.798   4.604  1.00  0.00    -0.206 OA
HETATM   23  O   UNL     1      44.039 -17.172   4.349  1.00  0.00    -0.206 OA
ENDBRANCH   1  20
TORSDOF 2
ENDMDL
MODEL 5
REMARK VINA RESULT:      -6.5      9.957     12.019
REMARK  2 active torsions:
REMARK  status: ('A' for Active; 'I' for Inactive)
REMARK    1  A    between atoms: S_2  and  N_3 
REMARK    2  A    between atoms: C_10  and  N_11 
ROOT
HETATM    1  N   UNL     1      43.362  -9.260   9.484  1.00  0.00    -0.311 N 
HETATM    2  C   UNL     1      43.079 -10.291  10.509  1.00  0.00     0.138 C 
HETATM    3  C   UNL     1      43.297  -9.746  11.920  1.00  0.00     0.059 C 
HETATM    4  C   UNL     1      42.563  -8.411  12.180  1.00  0.00     0.073 C 
HETATM    5  O   UNL     1      41.162  -8.733  12.259  1.00  0.00    -0.339 OA
HETATM    6  C   UNL     1      40.337  -7.815  12.847  1.00  0.00     0.078 A 
HETATM    7  C   UNL     1      40.788  -6.760  13.650  1.00  0.00     0.005 A 
HETATM    8  C   UNL     1      42.257  -6.605  13.919  1.00  0.00     0.222 C 
HETATM    9  C   UNL     1      43.032  -7.863  13.537  1.00  0.00     0.076 C 
HETATM   10  C   UNL     1      38.975  -7.994  12.605  1.00  0.00     0.037 A 
HETATM   11  C   UNL     1      38.048  -7.096  13.125  1.00  0.00     0.003 A 
HETATM   12  C   UNL     1      38.483  -6.013  13.883  1.00  0.00     0.001 A 
HETATM   13  C   UNL     1      39.845  -5.840  14.141  1.00  0.00     0.012 A 
HETATM   14  C   UNL     1      42.815  -7.421  11.020  1.00  0.00     0.059 C 
HETATM   15  C   UNL     1      42.521  -8.058   9.666  1.00  0.00     0.138 C 
ENDROOT
BRANCH   8  16
HETATM   16  N   UNL     1      42.550  -6.327  15.356  1.00  0.00    -0.071 N 
HETATM   17  H   UNL     1      42.121  -5.447  15.663  1.00  0.00     0.275 HD
HETATM   18  H   UNL     1      42.174  -7.076  15.952  1.00  0.00     0.275 HD
HETATM   19  H   UNL     1      43.559  -6.253  15.533  1.00  0.00     0.275 HD
ENDBRANCH   8  16
BRANCH   1  20
HETATM   20  S   UNL     1      44.973  -8.997   9.011  1.00  0.00     0.224 S 
HETATM   21  C   UNL     1      45.185 -10.199   7.713  1.00  0.00     0.186 C 
HETATM   22  O   UNL     1      45.816  -9.346  10.134  1.00  0.00    -0.206 OA
HETATM   23  O   UNL     1      45.047  -7.681   8.418  1.00  0.00    -0.206 OA
ENDBRANCH   1  20
TORSDOF 2
ENDMDL
MODEL 6
REMARK VINA RESULT:      -6.5      2.584      4.067
REMARK  2 active torsions:
REMARK  status: ('A' for Active; 'I' for Inactive)
REMARK    1  A    between atoms: S_2  and  N_3 
REMARK    2  A    between atoms: C_10  and  N_11 
ROOT
HETATM    1  N   UNL     1      42.013 -11.756   5.757  1.00  0.00    -0.311 N 
HETATM    2  C   UNL     1      41.014 -12.671   6.355  1.00  0.00     0.138 C 
HETATM    3  C   UNL     1      40.226 -13.415   5.278  1.00  0.00     0.059 C 
HETATM    4  C   UNL     1      41.126 -14.099   4.225  1.00  0.00     0.073 C 
HETATM    5  O   UNL     1      41.741 -15.218   4.890  1.00  0.00    -0.339 OA
HETATM    6  C   UNL     1      42.279 -16.199   4.105  1.00  0.00     0.078 A 
HETATM    7  C   UNL     1      41.997 -16.353   2.742  1.00  0.00     0.005 A 
HETATM    8  C   UNL     1      41.035 -15.416   2.071  1.00  0.00     0.222 C 
HETATM    9  C   UNL     1      40.227 -14.618   3.091  1.00  0.00     0.076 C 
HETATM   10  C   UNL     1      43.150 -17.074   4.756  1.00  0.00     0.037 A 
HETATM   11  C   UNL     1      43.784 -18.088   4.044  1.00  0.00     0.003 A 
HETATM   12  C   UNL     1      43.553 -18.224   2.678  1.00  0.00     0.001 A 
HETATM   13  C   UNL     1      42.669 -17.359   2.027  1.00  0.00     0.012 A 
HETATM   14  C   UNL     1      42.212 -13.120   3.723  1.00  0.00     0.059 C 
HETATM   15  C   UNL     1      42.963 -12.474   4.882  1.00  0.00     0.138 C 
ENDROOT
BRANCH   8  16
HETATM   16  N   UNL     1      40.058 -16.127   1.195  1.00  0.00    -0.071 N 
HETATM   17  H   UNL     1      39.211 -16.388   1.712  1.00  0.00     0.275 HD
HETATM   18  H   UNL     1      39.768 -15.523   0.415  1.00  0.00     0.275 HD
HETATM   19  H   UNL     1      40.455 -16.989   0.802  1.00  0.00     0.275 HD
ENDBRANCH   8  16
BRANCH   1  20
HETATM   20  S   UNL     1      41.505 -10.221   5.232  1.00  0.00     0.224 S 
HETATM   21  C   UNL     1      42.019  -9.173   6.578  1.00  0.00     0.186 C 
HETATM   22  O   UNL     1      40.059 -10.245   5.164  1.00  0.00    -0.206 OA
HETATM   23  O   UNL     1      42.290  -9.874   4.068  1.00  0.00    -0.206 OA
ENDBRANCH   1  20
TORSDOF 2
ENDMDL
MODEL 7
REMARK VINA RESULT:      -6.4      7.723      9.379
REMARK  2 active torsions:
REMARK  status: ('A' for Active; 'I' for Inactive)
REMARK    1  A    between atoms: S_2  and  N_3 
REMARK    2  A    between atoms: C_10  and  N_11 
ROOT
HETATM    1  N   UNL     1      41.648  -8.334  11.540  1.00  0.00    -0.311 N 
HETATM    2  C   UNL     1      41.584  -7.406  10.388  1.00  0.00     0.138 C 
HETATM    3  C   UNL     1      42.938  -7.293   9.690  1.00  0.00     0.059 C 
HETATM    4  C   UNL     1      43.561  -8.663   9.336  1.00  0.00     0.073 C 
HETATM    5  O   UNL     1      42.774  -9.192   8.253  1.00  0.00    -0.339 OA
HETATM    6  C   UNL     1      43.325 -10.198   7.508  1.00  0.00     0.078 A 
HETATM    7  C   UNL     1      44.688 -10.519   7.514  1.00  0.00     0.005 A 
HETATM    8  C   UNL     1      45.636  -9.722   8.362  1.00  0.00     0.222 C 
HETATM    9  C   UNL     1      44.998  -8.423   8.847  1.00  0.00     0.076 C 
HETATM   10  C   UNL     1      42.429 -10.908   6.709  1.00  0.00     0.037 A 
HETATM   11  C   UNL     1      42.875 -11.977   5.937  1.00  0.00     0.003 A 
HETATM   12  C   UNL     1      44.218 -12.341   5.970  1.00  0.00     0.001 A 
HETATM   13  C   UNL     1      45.121 -11.622   6.758  1.00  0.00     0.012 A 
HETATM   14  C   UNL     1      43.498  -9.615  10.551  1.00  0.00     0.059 C 
HETATM   15  C   UNL     1      42.091  -9.685  11.136  1.00  0.00     0.138 C 
ENDROOT
BRANCH   8  16
HETATM   16  N   UNL     1      46.886  -9.353   7.632  1.00  0.00    -0.071 N 
HETATM   17  H   UNL     1      47.575 -10.112   7.660  1.00  0.00     0.275 HD
HETATM   18  H   UNL     1      46.680  -9.161   6.643  1.00  0.00     0.275 HD
HETATM   19  H   UNL     1      47.331  -8.519   8.034  1.00  0.00     0.275 HD
ENDBRANCH   8  16
BRANCH   1  20
HETATM   20  S   UNL     1      42.236  -7.753  13.026  1.00  0.00     0.224 S 
HETATM   21  C   UNL     1      41.546  -8.917  14.185  1.00  0.00     0.186 C 
HETATM   22  O   UNL     1      41.647  -6.449  13.243  1.00  0.00    -0.206 OA
HETATM   23  O   UNL     1      43.672  -7.919  13.025  1.00  0.00    -0.206 OA
ENDBRANCH   1  20
TORSDOF 2
ENDMDL
MODEL 8
REMARK VINA RESULT:      -6.4      1.905      2.513
REMARK  2 active torsions:
REMARK  status: ('A' for Active; 'I' for Inactive)
REMARK    1  A    between atoms: S_2  and  N_3 
REMARK    2  A    between atoms: C_10  and  N_11 
ROOT
HETATM    1  N   UNL     1      40.143 -12.868   1.300  1.00  0.00    -0.311 N 
HETATM    2  C   UNL     1      41.564 -12.563   1.014  1.00  0.00     0.138 C 
HETATM    3  C   UNL     1      42.399 -12.553   2.294  1.00  0.00     0.059 C 
HETATM    4  C   UNL     1      42.209 -13.820   3.158  1.00  0.00     0.073 C 
HETATM    5  O   UNL     1      42.865 -14.888   2.450  1.00  0.00    -0.339 OA
HETATM    6  C   UNL     1      43.173 -16.016   3.158  1.00  0.00     0.078 A 
HETATM    7  C   UNL     1      43.192 -16.081   4.557  1.00  0.00     0.005 A 
HETATM    8  C   UNL     1      42.880 -14.852   5.363  1.00  0.00     0.222 C 
HETATM    9  C   UNL     1      42.920 -13.593   4.502  1.00  0.00     0.076 C 
HETATM   10  C   UNL     1      43.484 -17.138   2.389  1.00  0.00     0.037 A 
HETATM   11  C   UNL     1      43.777 -18.350   3.007  1.00  0.00     0.003 A 
HETATM   12  C   UNL     1      43.751 -18.444   4.395  1.00  0.00     0.001 A 
HETATM   13  C   UNL     1      43.455 -17.319   5.169  1.00  0.00     0.012 A 
HETATM   14  C   UNL     1      40.707 -14.140   3.326  1.00  0.00     0.059 C 
HETATM   15  C   UNL     1      39.986 -14.169   1.982  1.00  0.00     0.138 C 
ENDROOT
BRANCH   8  16
HETATM   16  N   UNL     1      43.840 -14.647   6.488  1.00  0.00    -0.071 N 
HETATM   17  H   UNL     1      44.066 -15.532   6.954  1.00  0.00     0.275 HD
HETATM   18  H   UNL     1      44.722 -14.248   6.140  1.00  0.00     0.275 HD
HETATM   19  H   UNL     1      43.461 -14.012   7.202  1.00  0.00     0.275 HD
ENDBRANCH   8  16
BRANCH   1  20
HETATM   20  S   UNL     1      39.125 -11.609   1.817  1.00  0.00     0.224 S 
HETATM   21  C   UNL     1      38.695 -10.816   0.281  1.00  0.00     0.186 C 
HETATM   22  O   UNL     1      39.925 -10.708   2.619  1.00  0.00    -0.206 OA
HETATM   23  O   UNL     1      37.927 -12.210   2.361  1.00  0.00    -0.206 OA
ENDBRANCH   1  20
TORSDOF 2
ENDMDL
MODEL 9
REMARK VINA RESULT:      -6.3     14.167     15.223
REMARK  2 active torsions:
REMARK  status: ('A' for Active; 'I' for Inactive)
REMARK    1  A    between atoms: S_2  and  N_3 
REMARK    2  A    between atoms: C_10  and  N_11 
ROOT
HETATM    1  N   UNL     1      46.118 -29.409  -2.686  1.00  0.00    -0.311 N 
HETATM    2  C   UNL     1      45.639 -28.127  -2.121  1.00  0.00     0.138 C 
HETATM    3  C   UNL     1      44.717 -28.356  -0.925  1.00  0.00     0.059 C 
HETATM    4  C   UNL     1      45.317 -29.304   0.138  1.00  0.00     0.073 C 
HETATM    5  O   UNL     1      46.371 -28.566   0.783  1.00  0.00    -0.339 OA
HETATM    6  C   UNL     1      46.808 -29.022   1.996  1.00  0.00     0.078 A 
HETATM    7  C   UNL     1      46.104 -29.939   2.786  1.00  0.00     0.005 A 
HETATM    8  C   UNL     1      44.776 -30.460   2.317  1.00  0.00     0.222 C 
HETATM    9  C   UNL     1      44.221 -29.625   1.167  1.00  0.00     0.076 C 
HETATM   10  C   UNL     1      48.031 -28.504   2.423  1.00  0.00     0.037 A 
HETATM   11  C   UNL     1      48.588 -28.928   3.625  1.00  0.00     0.003 A 
HETATM   12  C   UNL     1      47.926 -29.876   4.399  1.00  0.00     0.001 A 
HETATM   13  C   UNL     1      46.693 -30.385   3.982  1.00  0.00     0.012 A 
HETATM   14  C   UNL     1      45.893 -30.572  -0.532  1.00  0.00     0.059 C 
HETATM   15  C   UNL     1      46.834 -30.221  -1.680  1.00  0.00     0.138 C 
ENDROOT
BRANCH   8  16
HETATM   16  N   UNL     1      43.747 -30.460   3.398  1.00  0.00    -0.071 N 
HETATM   17  H   UNL     1      42.832 -30.160   3.045  1.00  0.00     0.275 HD
HETATM   18  H   UNL     1      43.632 -31.406   3.785  1.00  0.00     0.275 HD
HETATM   19  H   UNL     1      44.001 -29.828   4.168  1.00  0.00     0.275 HD
ENDBRANCH   8  16
BRANCH   1  20
HETATM   20  S   UNL     1      45.113 -30.252  -3.768  1.00  0.00     0.224 S 
HETATM   21  C   UNL     1      46.206 -31.512  -4.393  1.00  0.00     0.186 C 
HETATM   22  O   UNL     1      44.768 -29.338  -4.837  1.00  0.00    -0.206 OA
HETATM   23  O   UNL     1      44.079 -30.900  -2.993  1.00  0.00    -0.206 OA
ENDBRANCH   1  20
TORSDOF 2
ENDMDL
MODEL 10
REMARK VINA RESULT:      -6.2     13.993     15.345
REMARK  2 active torsions:
REMARK  status: ('A' for Active; 'I' for Inactive)
REMARK    1  A    between atoms: S_2  and  N_3 
REMARK    2  A    between atoms: C_10  and  N_11 
ROOT
HETATM    1  N   UNL     1      42.128 -31.611   1.731  1.00  0.00    -0.311 N 
HETATM    2  C   UNL     1      41.824 -30.176   1.937  1.00  0.00     0.138 C 
HETATM    3  C   UNL     1      43.038 -29.424   2.481  1.00  0.00     0.059 C 
HETATM    4  C   UNL     1      44.324 -29.663   1.659  1.00  0.00     0.073 C 
HETATM    5  O   UNL     1      44.142 -28.960   0.416  1.00  0.00    -0.339 OA
HETATM    6  C   UNL     1      45.258 -28.693  -0.326  1.00  0.00     0.078 A 
HETATM    7  C   UNL     1      46.564 -28.762   0.174  1.00  0.00     0.005 A 
HETATM    8  C   UNL     1      46.792 -29.128   1.612  1.00  0.00     0.222 C 
HETATM    9  C   UNL     1      45.503 -29.039   2.424  1.00  0.00     0.076 C 
HETATM   10  C   UNL     1      45.021 -28.330  -1.652  1.00  0.00     0.037 A 
HETATM   11  C   UNL     1      46.087 -28.072  -2.509  1.00  0.00     0.003 A 
HETATM   12  C   UNL     1      47.393 -28.185  -2.041  1.00  0.00     0.001 A 
HETATM   13  C   UNL     1      47.634 -28.533  -0.710  1.00  0.00     0.012 A 
HETATM   14  C   UNL     1      44.522 -31.172   1.390  1.00  0.00     0.059 C 
HETATM   15  C   UNL     1      43.264 -31.806   0.806  1.00  0.00     0.138 C 
ENDROOT
BRANCH   8  16
HETATM   16  N   UNL     1      47.793 -28.242   2.277  1.00  0.00    -0.071 N 
HETATM   17  H   UNL     1      48.437 -28.781   2.867  1.00  0.00     0.275 HD
HETATM   18  H   UNL     1      48.360 -27.750   1.574  1.00  0.00     0.275 HD
HETATM   19  H   UNL     1      47.343 -27.539   2.876  1.00  0.00     0.275 HD
ENDBRANCH   8  16
BRANCH   1  20
HETATM   20  S   UNL     1      42.040 -32.665   3.062  1.00  0.00     0.224 S 
HETATM   21  C   UNL     1      40.283 -32.794   3.325  1.00  0.00     0.186 C 
HETATM   22  O   UNL     1      42.649 -31.990   4.188  1.00  0.00    -0.206 OA
HETATM   23  O   UNL     1      42.524 -33.957   2.630  1.00  0.00    -0.206 OA
ENDBRANCH   1  20
TORSDOF 2
ENDMDL
