MODEL 1
REMARK VINA RESULT:      -9.1      0.000      0.000
REMARK  6 active torsions:
REMARK  status: ('A' for Active; 'I' for Inactive)
REMARK    1  A    between atoms: C_7  and  S_8 
REMARK    2  A    between atoms: S_8  and  C_9 
REMARK    3  A    between atoms: C_9  and  C_10 
REMARK    4  A    between atoms: C_18  and  C_19 
REMARK    5  A    between atoms: C_29  and  C_30 
REMARK    6  A    between atoms: C_30  and  O_31 
ROOT
HETATM    1  C   UNL     1      40.206 -10.872   3.381  1.00  0.00     0.070 C 
HETATM    2  C   UNL     1      40.923 -11.655   4.451  1.00  0.00     0.037 A 
HETATM    3  N   UNL     1      40.965 -13.029   4.263  1.00  0.00    -0.192 N 
HETATM    4  C   UNL     1      41.576 -13.877   5.110  1.00  0.00     0.726 A 
HETATM    5  N   UNL     1      42.157 -13.393   6.250  1.00  0.00    -0.082 N 
HETATM    6  N   UNL     1      42.676 -14.395   6.994  1.00  0.00    -0.128 NA
HETATM    7  C   UNL     1      42.442 -15.448   6.196  1.00  0.00     0.226 A 
HETATM    8  N   UNL     1      41.752 -15.168   5.043  1.00  0.00    -0.035 NA
HETATM    9  C   UNL     1      42.174 -11.966   6.623  1.00  0.00     0.204 A 
HETATM   10  C   UNL     1      41.490 -11.112   5.557  1.00  0.00     0.070 A 
HETATM   11  H   UNL     1      40.554 -13.403   3.411  1.00  0.00     0.184 HD
ENDROOT
BRANCH   9  12
HETATM   12  C   UNL     1      43.606 -11.501   6.919  1.00  0.00    -0.017 A 
HETATM   13  C   UNL     1      43.960 -10.821   8.128  1.00  0.00    -0.017 A 
HETATM   14  C   UNL     1      45.298 -10.368   8.283  1.00  0.00    -0.025 A 
HETATM   15  C   UNL     1      43.069 -10.546   9.197  1.00  0.00     0.013 A 
HETATM   16  C   UNL     1      45.688  -9.675   9.442  1.00  0.00     0.012 A 
HETATM   17  C   UNL     1      46.243 -10.601   7.276  1.00  0.00     0.012 A 
HETATM   18  C   UNL     1      44.780  -9.416  10.465  1.00  0.00     0.001 A 
HETATM   19  C   UNL     1      43.471  -9.853  10.344  1.00  0.00     0.001 A 
HETATM   20  C   UNL     1      45.895 -11.265   6.106  1.00  0.00     0.002 A 
HETATM   21  C   UNL     1      44.591 -11.704   5.925  1.00  0.00     0.010 A 
ENDBRANCH   9  12
BRANCH  10  22
HETATM   22  C   UNL     1      41.531  -9.650   5.746  1.00  0.00     0.293 C 
HETATM   23  O   UNL     1      42.102  -8.876   4.993  1.00  0.00    -0.259 OA
BRANCH  22  24
HETATM   24  O   UNL     1      40.838  -9.320   6.862  1.00  0.00    -0.323 OA
HETATM   25  C   UNL     1      39.451  -9.080   6.616  1.00  0.00     0.213 C 
ENDBRANCH  22  24
ENDBRANCH  10  22
BRANCH   7  26
HETATM   26  S   UNL     1      43.010 -17.059   6.523  1.00  0.00    -0.083 SA
BRANCH  26  27
HETATM   27  C   UNL     1      44.320 -17.255   5.286  1.00  0.00     0.123 C 
BRANCH  27  28
HETATM   28  C   UNL     1      44.009 -18.405   4.352  1.00  0.00    -0.027 A 
HETATM   29  C   UNL     1      43.589 -18.219   3.025  1.00  0.00     0.041 A 
HETATM   30 CL   UNL     1      43.334 -16.646   2.356  1.00  0.00    -0.084 Cl
HETATM   31  C   UNL     1      43.363 -19.319   2.189  1.00  0.00     0.024 A 
HETATM   32  C   UNL     1      43.551 -20.615   2.665  1.00  0.00     0.002 A 
HETATM   33  C   UNL     1      43.967 -20.817   3.978  1.00  0.00     0.001 A 
HETATM   34  C   UNL     1      44.197 -19.722   4.813  1.00  0.00     0.009 A 
ENDBRANCH  27  28
ENDBRANCH  26  27
ENDBRANCH   7  26
TORSDOF 6
ENDMDL
MODEL 2
REMARK VINA RESULT:      -9.0      3.388      8.008
REMARK  6 active torsions:
REMARK  status: ('A' for Active; 'I' for Inactive)
REMARK    1  A    between atoms: C_7  and  S_8 
REMARK    2  A    between atoms: S_8  and  C_9 
REMARK    3  A    between atoms: C_9  and  C_10 
REMARK    4  A    between atoms: C_18  and  C_19 
REMARK    5  A    between atoms: C_29  and  C_30 
REMARK    6  A    between atoms: C_30  and  O_31 
ROOT
HETATM    1  C   UNL     1      39.081  -9.973   4.316  1.00  0.00     0.070 C 
HETATM    2  C   UNL     1      40.412 -10.618   4.608  1.00  0.00     0.037 A 
HETATM    3  N   UNL     1      41.188  -9.984   5.569  1.00  0.00    -0.192 N 
HETATM    4  C   UNL     1      42.393 -10.430   5.963  1.00  0.00     0.726 A 
HETATM    5  N   UNL     1      42.932 -11.539   5.371  1.00  0.00    -0.082 N 
HETATM    6  N   UNL     1      44.163 -11.805   5.863  1.00  0.00    -0.128 NA
HETATM    7  C   UNL     1      44.264 -10.860   6.809  1.00  0.00     0.226 A 
HETATM    8  N   UNL     1      43.206  -9.988   6.883  1.00  0.00    -0.035 NA
HETATM    9  C   UNL     1      42.261 -12.312   4.308  1.00  0.00     0.204 A 
HETATM   10  C   UNL     1      40.885 -11.728   3.990  1.00  0.00     0.070 A 
HETATM   11  H   UNL     1      40.794  -9.169   6.033  1.00  0.00     0.184 HD
ENDROOT
BRANCH   9  12
HETATM   12  C   UNL     1      42.196 -13.800   4.680  1.00  0.00    -0.017 A 
HETATM   13  C   UNL     1      42.583 -14.838   3.773  1.00  0.00    -0.017 A 
HETATM   14  C   UNL     1      42.423 -16.189   4.182  1.00  0.00    -0.025 A 
HETATM   15  C   UNL     1      43.110 -14.626   2.473  1.00  0.00     0.013 A 
HETATM   16  C   UNL     1      42.767 -17.242   3.318  1.00  0.00     0.012 A 
HETATM   17  C   UNL     1      41.912 -16.486   5.452  1.00  0.00     0.012 A 
HETATM   18  C   UNL     1      43.273 -16.993   2.045  1.00  0.00     0.001 A 
HETATM   19  C   UNL     1      43.445 -15.686   1.623  1.00  0.00     0.001 A 
HETATM   20  C   UNL     1      41.542 -15.475   6.331  1.00  0.00     0.002 A 
HETATM   21  C   UNL     1      41.675 -14.147   5.948  1.00  0.00     0.010 A 
ENDBRANCH   9  12
BRANCH  10  22
HETATM   22  C   UNL     1      40.055 -12.468   3.022  1.00  0.00     0.293 C 
HETATM   23  O   UNL     1      39.094 -13.158   3.328  1.00  0.00    -0.259 OA
BRANCH  22  24
HETATM   24  O   UNL     1      40.520 -12.249   1.769  1.00  0.00    -0.323 OA
HETATM   25  C   UNL     1      39.936 -13.111   0.790  1.00  0.00     0.213 C 
ENDBRANCH  22  24
ENDBRANCH  10  22
BRANCH   7  26
HETATM   26  S   UNL     1      45.590 -10.746   7.930  1.00  0.00    -0.083 SA
BRANCH  26  27
HETATM   27  C   UNL     1      45.331  -9.104   8.653  1.00  0.00     0.123 C 
BRANCH  27  28
HETATM   28  C   UNL     1      44.436  -9.189   9.870  1.00  0.00    -0.027 A 
HETATM   29  C   UNL     1      43.556  -8.159  10.244  1.00  0.00     0.041 A 
HETATM   30 CL   UNL     1      43.463  -6.671   9.371  1.00  0.00    -0.084 Cl
HETATM   31  C   UNL     1      42.713  -8.311  11.352  1.00  0.00     0.024 A 
HETATM   32  C   UNL     1      42.737  -9.487  12.099  1.00  0.00     0.002 A 
HETATM   33  C   UNL     1      43.603 -10.517  11.742  1.00  0.00     0.001 A 
HETATM   34  C   UNL     1      44.442 -10.371  10.636  1.00  0.00     0.009 A 
ENDBRANCH  27  28
ENDBRANCH  26  27
ENDBRANCH   7  26
TORSDOF 6
ENDMDL
MODEL 3
REMARK VINA RESULT:      -8.9      3.377      5.903
REMARK  6 active torsions:
REMARK  status: ('A' for Active; 'I' for Inactive)
REMARK    1  A    between atoms: C_7  and  S_8 
REMARK    2  A    between atoms: S_8  and  C_9 
REMARK    3  A    between atoms: C_9  and  C_10 
REMARK    4  A    between atoms: C_18  and  C_19 
REMARK    5  A    between atoms: C_29  and  C_30 
REMARK    6  A    between atoms: C_30  and  O_31 
ROOT
HETATM    1  C   UNL     1      38.893 -11.525   6.368  1.00  0.00     0.070 C 
HETATM    2  C   UNL     1      39.975 -12.294   5.653  1.00  0.00     0.037 A 
HETATM    3  N   UNL     1      40.766 -13.103   6.457  1.00  0.00    -0.192 N 
HETATM    4  C   UNL     1      41.765 -13.869   5.985  1.00  0.00     0.726 A 
HETATM    5  N   UNL     1      42.073 -13.835   4.653  1.00  0.00    -0.082 N 
HETATM    6  N   UNL     1      43.130 -14.631   4.376  1.00  0.00    -0.128 NA
HETATM    7  C   UNL     1      43.354 -15.177   5.581  1.00  0.00     0.226 A 
HETATM    8  N   UNL     1      42.549 -14.717   6.593  1.00  0.00    -0.035 NA
HETATM    9  C   UNL     1      41.359 -13.005   3.664  1.00  0.00     0.204 A 
HETATM   10  C   UNL     1      40.222 -12.224   4.322  1.00  0.00     0.070 A 
HETATM   11  H   UNL     1      40.538 -13.154   7.447  1.00  0.00     0.184 HD
ENDROOT
BRANCH   9  12
HETATM   12  C   UNL     1      40.879 -13.861   2.484  1.00  0.00    -0.017 A 
HETATM   13  C   UNL     1      40.847 -13.371   1.140  1.00  0.00    -0.017 A 
HETATM   14  C   UNL     1      40.322 -14.214   0.124  1.00  0.00    -0.025 A 
HETATM   15  C   UNL     1      41.294 -12.088   0.731  1.00  0.00     0.013 A 
HETATM   16  C   UNL     1      40.249 -13.769  -1.207  1.00  0.00     0.012 A 
HETATM   17  C   UNL     1      39.861 -15.498   0.441  1.00  0.00     0.012 A 
HETATM   18  C   UNL     1      40.689 -12.498  -1.566  1.00  0.00     0.001 A 
HETATM   19  C   UNL     1      41.213 -11.658  -0.597  1.00  0.00     0.001 A 
HETATM   20  C   UNL     1      39.898 -15.971   1.747  1.00  0.00     0.002 A 
HETATM   21  C   UNL     1      40.393 -15.161   2.759  1.00  0.00     0.010 A 
ENDBRANCH   9  12
BRANCH  10  22
HETATM   22  C   UNL     1      39.352 -11.435   3.430  1.00  0.00     0.293 C 
HETATM   23  O   UNL     1      38.307 -11.847   2.950  1.00  0.00    -0.259 OA
BRANCH  22  24
HETATM   24  O   UNL     1      39.890 -10.206   3.248  1.00  0.00    -0.323 OA
HETATM   25  C   UNL     1      39.076  -9.345   2.448  1.00  0.00     0.213 C 
ENDBRANCH  22  24
ENDBRANCH  10  22
BRANCH   7  26
HETATM   26  S   UNL     1      44.524 -16.430   5.877  1.00  0.00    -0.083 SA
BRANCH  26  27
HETATM   27  C   UNL     1      43.491 -17.919   5.876  1.00  0.00     0.123 C 
BRANCH  27  28
HETATM   28  C   UNL     1      43.511 -18.584   4.517  1.00  0.00    -0.027 A 
HETATM   29  C   UNL     1      43.858 -19.933   4.332  1.00  0.00     0.041 A 
HETATM   30 CL   UNL     1      44.351 -20.941   5.646  1.00  0.00    -0.084 Cl
HETATM   31  C   UNL     1      43.811 -20.512   3.058  1.00  0.00     0.024 A 
HETATM   32  C   UNL     1      43.421 -19.755   1.955  1.00  0.00     0.002 A 
HETATM   33  C   UNL     1      43.074 -18.417   2.121  1.00  0.00     0.001 A 
HETATM   34  C   UNL     1      43.115 -17.838   3.390  1.00  0.00     0.009 A 
ENDBRANCH  27  28
ENDBRANCH  26  27
ENDBRANCH   7  26
TORSDOF 6
ENDMDL
MODEL 4
REMARK VINA RESULT:      -8.3      1.900      2.622
REMARK  6 active torsions:
REMARK  status: ('A' for Active; 'I' for Inactive)
REMARK    1  A    between atoms: C_7  and  S_8 
REMARK    2  A    between atoms: S_8  and  C_9 
REMARK    3  A    between atoms: C_9  and  C_10 
REMARK    4  A    between atoms: C_18  and  C_19 
REMARK    5  A    between atoms: C_29  and  C_30 
REMARK    6  A    between atoms: C_30  and  O_31 
ROOT
HETATM    1  C   UNL     1      41.091  -7.449   4.040  1.00  0.00     0.070 C 
HETATM    2  C   UNL     1      41.258  -8.695   4.873  1.00  0.00     0.037 A 
HETATM    3  N   UNL     1      41.139  -9.895   4.186  1.00  0.00    -0.192 N 
HETATM    4  C   UNL     1      41.274 -11.100   4.767  1.00  0.00     0.726 A 
HETATM    5  N   UNL     1      41.494 -11.181   6.114  1.00  0.00    -0.082 N 
HETATM    6  N   UNL     1      41.554 -12.468   6.522  1.00  0.00    -0.128 NA
HETATM    7  C   UNL     1      41.444 -13.108   5.347  1.00  0.00     0.226 A 
HETATM    8  N   UNL     1      41.251 -12.300   4.255  1.00  0.00    -0.035 NA
HETATM    9  C   UNL     1      41.610 -10.007   7.001  1.00  0.00     0.204 A 
HETATM   10  C   UNL     1      41.486  -8.707   6.209  1.00  0.00     0.070 A 
HETATM   11  H   UNL     1      40.994  -9.852   3.180  1.00  0.00     0.184 HD
ENDROOT
BRANCH   9  12
HETATM   12  C   UNL     1      42.906 -10.075   7.820  1.00  0.00    -0.017 A 
HETATM   13  C   UNL     1      42.964  -9.702   9.202  1.00  0.00    -0.017 A 
HETATM   14  C   UNL     1      44.223  -9.733   9.859  1.00  0.00    -0.025 A 
HETATM   15  C   UNL     1      41.852  -9.287   9.979  1.00  0.00     0.013 A 
HETATM   16  C   UNL     1      44.334  -9.355  11.208  1.00  0.00     0.012 A 
HETATM   17  C   UNL     1      45.372 -10.134   9.164  1.00  0.00     0.012 A 
HETATM   18  C   UNL     1      43.221  -8.943  11.934  1.00  0.00     0.001 A 
HETATM   19  C   UNL     1      41.979  -8.911  11.320  1.00  0.00     0.001 A 
HETATM   20  C   UNL     1      45.310 -10.499   7.825  1.00  0.00     0.002 A 
HETATM   21  C   UNL     1      44.093 -10.463   7.157  1.00  0.00     0.010 A 
ENDBRANCH   9  12
BRANCH  10  22
HETATM   22  C   UNL     1      41.693  -7.450   6.953  1.00  0.00     0.293 C 
HETATM   23  O   UNL     1      42.762  -6.861   7.020  1.00  0.00    -0.259 OA
BRANCH  22  24
HETATM   24  O   UNL     1      40.528  -7.068   7.526  1.00  0.00    -0.323 OA
HETATM   25  C   UNL     1      40.690  -6.043   8.509  1.00  0.00     0.213 C 
ENDBRANCH  22  24
ENDBRANCH  10  22
BRANCH   7  26
HETATM   26  S   UNL     1      41.596 -14.831   5.162  1.00  0.00    -0.083 SA
BRANCH  26  27
HETATM   27  C   UNL     1      42.922 -14.963   3.935  1.00  0.00     0.123 C 
BRANCH  27  28
HETATM   28  C   UNL     1      43.289 -16.411   3.694  1.00  0.00    -0.027 A 
HETATM   29  C   UNL     1      44.042 -17.170   4.606  1.00  0.00     0.041 A 
HETATM   30 CL   UNL     1      44.670 -16.491   6.066  1.00  0.00    -0.084 Cl
HETATM   31  C   UNL     1      44.310 -18.521   4.356  1.00  0.00     0.024 A 
HETATM   32  C   UNL     1      43.833 -19.131   3.197  1.00  0.00     0.002 A 
HETATM   33  C   UNL     1      43.085 -18.394   2.284  1.00  0.00     0.001 A 
HETATM   34  C   UNL     1      42.812 -17.047   2.532  1.00  0.00     0.009 A 
ENDBRANCH  27  28
ENDBRANCH  26  27
ENDBRANCH   7  26
TORSDOF 6
ENDMDL
MODEL 5
REMARK VINA RESULT:      -8.3      5.269      7.068
REMARK  6 active torsions:
REMARK  status: ('A' for Active; 'I' for Inactive)
REMARK    1  A    between atoms: C_7  and  S_8 
REMARK    2  A    between atoms: S_8  and  C_9 
REMARK    3  A    between atoms: C_9  and  C_10 
REMARK    4  A    between atoms: C_18  and  C_19 
REMARK    5  A    between atoms: C_29  and  C_30 
REMARK    6  A    between atoms: C_30  and  O_31 
ROOT
HETATM    1  C   UNL     1      38.748 -14.556  -3.076  1.00  0.00     0.070 C 
HETATM    2  C   UNL     1      38.999 -14.006  -1.696  1.00  0.00     0.037 A 
HETATM    3  N   UNL     1      39.557 -14.896  -0.788  1.00  0.00    -0.192 N 
HETATM    4  C   UNL     1      39.861 -14.570   0.481  1.00  0.00     0.726 A 
HETATM    5  N   UNL     1      39.575 -13.315   0.945  1.00  0.00    -0.082 N 
HETATM    6  N   UNL     1      39.908 -13.191   2.249  1.00  0.00    -0.128 NA
HETATM    7  C   UNL     1      40.467 -14.388   2.480  1.00  0.00     0.226 A 
HETATM    8  N   UNL     1      40.436 -15.264   1.424  1.00  0.00    -0.035 NA
HETATM    9  C   UNL     1      38.950 -12.259   0.127  1.00  0.00     0.204 A 
HETATM   10  C   UNL     1      38.701 -12.744  -1.300  1.00  0.00     0.070 A 
HETATM   11  H   UNL     1      39.793 -15.827  -1.122  1.00  0.00     0.184 HD
ENDROOT
BRANCH   9  12
HETATM   12  C   UNL     1      39.787 -10.973   0.173  1.00  0.00    -0.017 A 
HETATM   13  C   UNL     1      39.324  -9.775   0.807  1.00  0.00    -0.017 A 
HETATM   14  C   UNL     1      40.140  -8.614   0.739  1.00  0.00    -0.025 A 
HETATM   15  C   UNL     1      38.092  -9.646   1.499  1.00  0.00     0.013 A 
HETATM   16  C   UNL     1      39.718  -7.409   1.326  1.00  0.00     0.012 A 
HETATM   17  C   UNL     1      41.374  -8.657   0.076  1.00  0.00     0.012 A 
HETATM   18  C   UNL     1      38.497  -7.320   1.988  1.00  0.00     0.001 A 
HETATM   19  C   UNL     1      37.685  -8.438   2.076  1.00  0.00     0.001 A 
HETATM   20  C   UNL     1      41.821  -9.823  -0.533  1.00  0.00     0.002 A 
HETATM   21  C   UNL     1      41.034 -10.966  -0.493  1.00  0.00     0.010 A 
ENDBRANCH   9  12
BRANCH  10  22
HETATM   22  C   UNL     1      38.180 -11.753  -2.260  1.00  0.00     0.293 C 
HETATM   23  O   UNL     1      38.825 -11.296  -3.192  1.00  0.00    -0.259 OA
BRANCH  22  24
HETATM   24  O   UNL     1      36.898 -11.452  -1.947  1.00  0.00    -0.323 OA
HETATM   25  C   UNL     1      36.129 -11.012  -3.069  1.00  0.00     0.213 C 
ENDBRANCH  22  24
ENDBRANCH  10  22
BRANCH   7  26
HETATM   26  S   UNL     1      41.246 -14.824   3.973  1.00  0.00    -0.083 SA
BRANCH  26  27
HETATM   27  C   UNL     1      42.962 -15.070   3.445  1.00  0.00     0.123 C 
BRANCH  27  28
HETATM   28  C   UNL     1      43.332 -16.537   3.488  1.00  0.00    -0.027 A 
HETATM   29  C   UNL     1      43.917 -17.145   4.611  1.00  0.00     0.041 A 
HETATM   30 CL   UNL     1      44.322 -16.247   6.032  1.00  0.00    -0.084 Cl
HETATM   31  C   UNL     1      44.193 -18.517   4.615  1.00  0.00     0.024 A 
HETATM   32  C   UNL     1      43.890 -19.299   3.502  1.00  0.00     0.002 A 
HETATM   33  C   UNL     1      43.310 -18.713   2.381  1.00  0.00     0.001 A 
HETATM   34  C   UNL     1      43.030 -17.345   2.375  1.00  0.00     0.009 A 
ENDBRANCH  27  28
ENDBRANCH  26  27
ENDBRANCH   7  26
TORSDOF 6
ENDMDL
MODEL 6
REMARK VINA RESULT:      -8.0      3.604      7.603
REMARK  6 active torsions:
REMARK  status: ('A' for Active; 'I' for Inactive)
REMARK    1  A    between atoms: C_7  and  S_8 
REMARK    2  A    between atoms: S_8  and  C_9 
REMARK    3  A    between atoms: C_9  and  C_10 
REMARK    4  A    between atoms: C_18  and  C_19 
REMARK    5  A    between atoms: C_29  and  C_30 
REMARK    6  A    between atoms: C_30  and  O_31 
ROOT
HETATM    1  C   UNL     1      38.697  -9.932   4.339  1.00  0.00     0.070 C 
HETATM    2  C   UNL     1      40.111 -10.446   4.431  1.00  0.00     0.037 A 
HETATM    3  N   UNL     1      40.818 -10.057   5.561  1.00  0.00    -0.192 N 
HETATM    4  C   UNL     1      42.084 -10.436   5.812  1.00  0.00     0.726 A 
HETATM    5  N   UNL     1      42.753 -11.208   4.902  1.00  0.00    -0.082 N 
HETATM    6  N   UNL     1      44.021 -11.447   5.304  1.00  0.00    -0.128 NA
HETATM    7  C   UNL     1      44.017 -10.854   6.508  1.00  0.00     0.226 A 
HETATM    8  N   UNL     1      42.853 -10.209   6.841  1.00  0.00    -0.035 NA
HETATM    9  C   UNL     1      42.165 -11.679   3.633  1.00  0.00     0.204 A 
HETATM   10  C   UNL     1      40.715 -11.220   3.496  1.00  0.00     0.070 A 
HETATM   11  H   UNL     1      40.329  -9.499   6.256  1.00  0.00     0.184 HD
ENDROOT
BRANCH   9  12
HETATM   12  C   UNL     1      42.315 -13.201   3.501  1.00  0.00    -0.017 A 
HETATM   13  C   UNL     1      41.714 -14.117   4.422  1.00  0.00    -0.017 A 
HETATM   14  C   UNL     1      41.965 -15.506   4.258  1.00  0.00    -0.025 A 
HETATM   15  C   UNL     1      40.883 -13.747   5.511  1.00  0.00     0.013 A 
HETATM   16  C   UNL     1      41.415 -16.442   5.150  1.00  0.00     0.012 A 
HETATM   17  C   UNL     1      42.772 -15.957   3.206  1.00  0.00     0.012 A 
HETATM   18  C   UNL     1      40.613 -16.038   6.214  1.00  0.00     0.001 A 
HETATM   19  C   UNL     1      40.345 -14.691   6.393  1.00  0.00     0.001 A 
HETATM   20  C   UNL     1      43.350 -15.064   2.311  1.00  0.00     0.002 A 
HETATM   21  C   UNL     1      43.131 -13.702   2.460  1.00  0.00     0.010 A 
ENDBRANCH   9  12
BRANCH  10  22
HETATM   22  C   UNL     1      39.967 -11.713   2.324  1.00  0.00     0.293 C 
HETATM   23  O   UNL     1      39.167 -12.635   2.359  1.00  0.00    -0.259 OA
BRANCH  22  24
HETATM   24  O   UNL     1      40.302 -10.981   1.235  1.00  0.00    -0.323 OA
HETATM   25  C   UNL     1      39.171 -10.480   0.519  1.00  0.00     0.213 C 
ENDBRANCH  22  24
ENDBRANCH  10  22
BRANCH   7  26
HETATM   26  S   UNL     1      45.345 -10.928   7.630  1.00  0.00    -0.083 SA
BRANCH  26  27
HETATM   27  C   UNL     1      45.291  -9.282   8.386  1.00  0.00     0.123 C 
BRANCH  27  28
HETATM   28  C   UNL     1      44.481  -9.304   9.664  1.00  0.00    -0.027 A 
HETATM   29  C   UNL     1      43.680  -8.228  10.080  1.00  0.00     0.041 A 
HETATM   30 CL   UNL     1      43.596  -6.750   9.188  1.00  0.00    -0.084 Cl
HETATM   31  C   UNL     1      42.912  -8.321  11.247  1.00  0.00     0.024 A 
HETATM   32  C   UNL     1      42.934  -9.486  12.012  1.00  0.00     0.002 A 
HETATM   33  C   UNL     1      43.722 -10.561  11.614  1.00  0.00     0.001 A 
HETATM   34  C   UNL     1      44.486 -10.473  10.449  1.00  0.00     0.009 A 
ENDBRANCH  27  28
ENDBRANCH  26  27
ENDBRANCH   7  26
TORSDOF 6
ENDMDL
MODEL 7
REMARK VINA RESULT:      -7.7     17.620     20.133
REMARK  6 active torsions:
REMARK  status: ('A' for Active; 'I' for Inactive)
REMARK    1  A    between atoms: C_7  and  S_8 
REMARK    2  A    between atoms: S_8  and  C_9 
REMARK    3  A    between atoms: C_9  and  C_10 
REMARK    4  A    between atoms: C_18  and  C_19 
REMARK    5  A    between atoms: C_29  and  C_30 
REMARK    6  A    between atoms: C_30  and  O_31 
ROOT
HETATM    1  C   UNL     1      48.991 -29.460   3.773  1.00  0.00     0.070 C 
HETATM    2  C   UNL     1      49.031 -29.612   2.273  1.00  0.00     0.037 A 
HETATM    3  N   UNL     1      50.225 -30.088   1.750  1.00  0.00    -0.192 N 
HETATM    4  C   UNL     1      50.430 -30.298   0.438  1.00  0.00     0.726 A 
HETATM    5  N   UNL     1      49.443 -29.993  -0.459  1.00  0.00    -0.082 N 
HETATM    6  N   UNL     1      49.848 -30.227  -1.727  1.00  0.00    -0.128 NA
HETATM    7  C   UNL     1      51.064 -30.751  -1.509  1.00  0.00     0.226 A 
HETATM    8  N   UNL     1      51.459 -30.791  -0.195  1.00  0.00    -0.035 NA
HETATM    9  C   UNL     1      48.127 -29.445  -0.079  1.00  0.00     0.204 A 
HETATM   10  C   UNL     1      48.009 -29.300   1.438  1.00  0.00     0.070 A 
HETATM   11  H   UNL     1      50.962 -30.337   2.405  1.00  0.00     0.184 HD
ENDROOT
BRANCH   9  12
HETATM   12  C   UNL     1      46.995 -30.292  -0.678  1.00  0.00    -0.017 A 
HETATM   13  C   UNL     1      46.086 -29.779  -1.658  1.00  0.00    -0.017 A 
HETATM   14  C   UNL     1      45.028 -30.616  -2.103  1.00  0.00    -0.025 A 
HETATM   15  C   UNL     1      46.148 -28.479  -2.223  1.00  0.00     0.013 A 
HETATM   16  C   UNL     1      44.098 -30.150  -3.047  1.00  0.00     0.012 A 
HETATM   17  C   UNL     1      44.897 -31.917  -1.598  1.00  0.00     0.012 A 
HETATM   18  C   UNL     1      44.186 -28.864  -3.570  1.00  0.00     0.001 A 
HETATM   19  C   UNL     1      45.212 -28.029  -3.159  1.00  0.00     0.001 A 
HETATM   20  C   UNL     1      45.785 -32.411  -0.650  1.00  0.00     0.002 A 
HETATM   21  C   UNL     1      46.818 -31.607  -0.189  1.00  0.00     0.010 A 
ENDBRANCH   9  12
BRANCH  10  22
HETATM   22  C   UNL     1      46.703 -28.866   1.967  1.00  0.00     0.293 C 
HETATM   23  O   UNL     1      46.238 -27.747   1.813  1.00  0.00    -0.259 OA
BRANCH  22  24
HETATM   24  O   UNL     1      46.119 -29.895   2.626  1.00  0.00    -0.323 OA
HETATM   25  C   UNL     1      44.706 -29.966   2.427  1.00  0.00     0.213 C 
ENDBRANCH  22  24
ENDBRANCH  10  22
BRANCH   7  26
HETATM   26  S   UNL     1      52.076 -31.409  -2.762  1.00  0.00    -0.083 SA
BRANCH  26  27
HETATM   27  C   UNL     1      51.390 -33.074  -2.965  1.00  0.00     0.123 C 
BRANCH  27  28
HETATM   28  C   UNL     1      50.125 -33.036  -3.795  1.00  0.00    -0.027 A 
HETATM   29  C   UNL     1      50.133 -33.008  -5.199  1.00  0.00     0.041 A 
HETATM   30 CL   UNL     1      51.604 -32.957  -6.106  1.00  0.00    -0.084 Cl
HETATM   31  C   UNL     1      48.933 -33.024  -5.918  1.00  0.00     0.024 A 
HETATM   32  C   UNL     1      47.711 -33.066  -5.248  1.00  0.00     0.002 A 
HETATM   33  C   UNL     1      47.686 -33.093  -3.857  1.00  0.00     0.001 A 
HETATM   34  C   UNL     1      48.881 -33.082  -3.137  1.00  0.00     0.009 A 
ENDBRANCH  27  28
ENDBRANCH  26  27
ENDBRANCH   7  26
TORSDOF 6
ENDMDL
MODEL 8
REMARK VINA RESULT:      -7.5     18.099     20.319
REMARK  6 active torsions:
REMARK  status: ('A' for Active; 'I' for Inactive)
REMARK    1  A    between atoms: C_7  and  S_8 
REMARK    2  A    between atoms: S_8  and  C_9 
REMARK    3  A    between atoms: C_9  and  C_10 
REMARK    4  A    between atoms: C_18  and  C_19 
REMARK    5  A    between atoms: C_29  and  C_30 
REMARK    6  A    between atoms: C_30  and  O_31 
ROOT
HETATM    1  C   UNL     1      47.183 -32.847  -6.276  1.00  0.00     0.070 C 
HETATM    2  C   UNL     1      47.331 -32.570  -4.801  1.00  0.00     0.037 A 
HETATM    3  N   UNL     1      48.613 -32.721  -4.289  1.00  0.00    -0.192 N 
HETATM    4  C   UNL     1      48.928 -32.500  -3.001  1.00  0.00     0.726 A 
HETATM    5  N   UNL     1      47.947 -32.152  -2.113  1.00  0.00    -0.082 N 
HETATM    6  N   UNL     1      48.445 -32.020  -0.864  1.00  0.00    -0.128 NA
HETATM    7  C   UNL     1      49.752 -32.223  -1.092  1.00  0.00     0.226 A 
HETATM    8  N   UNL     1      50.079 -32.539  -2.387  1.00  0.00    -0.035 NA
HETATM    9  C   UNL     1      46.528 -31.984  -2.480  1.00  0.00     0.204 A 
HETATM   10  C   UNL     1      46.316 -32.217  -3.975  1.00  0.00     0.070 A 
HETATM   11  H   UNL     1      49.357 -32.961  -4.939  1.00  0.00     0.184 HD
ENDROOT
BRANCH   9  12
HETATM   12  C   UNL     1      46.009 -30.615  -2.019  1.00  0.00    -0.017 A 
HETATM   13  C   UNL     1      44.950 -30.475  -1.065  1.00  0.00    -0.017 A 
HETATM   14  C   UNL     1      44.491 -29.168  -0.751  1.00  0.00    -0.025 A 
HETATM   15  C   UNL     1      44.304 -31.552  -0.404  1.00  0.00     0.013 A 
HETATM   16  C   UNL     1      43.439 -28.981   0.163  1.00  0.00     0.012 A 
HETATM   17  C   UNL     1      45.077 -28.049  -1.357  1.00  0.00     0.012 A 
HETATM   18  C   UNL     1      42.823 -30.064   0.783  1.00  0.00     0.001 A 
HETATM   19  C   UNL     1      43.256 -31.349   0.501  1.00  0.00     0.001 A 
HETATM   20  C   UNL     1      46.107 -28.191  -2.279  1.00  0.00     0.002 A 
HETATM   21  C   UNL     1      46.563 -29.458  -2.613  1.00  0.00     0.010 A 
ENDBRANCH   9  12
BRANCH  10  22
HETATM   22  C   UNL     1      44.960 -31.974  -4.502  1.00  0.00     0.293 C 
HETATM   23  O   UNL     1      43.981 -32.644  -4.213  1.00  0.00    -0.259 OA
BRANCH  22  24
HETATM   24  O   UNL     1      44.984 -30.903  -5.331  1.00  0.00    -0.323 OA
HETATM   25  C   UNL     1      43.949 -29.955  -5.062  1.00  0.00     0.213 C 
ENDBRANCH  22  24
ENDBRANCH  10  22
BRANCH   7  26
HETATM   26  S   UNL     1      50.988 -32.043   0.119  1.00  0.00    -0.083 SA
BRANCH  26  27
HETATM   27  C   UNL     1      50.743 -30.330   0.656  1.00  0.00     0.123 C 
BRANCH  27  28
HETATM   28  C   UNL     1      50.043 -30.283   1.997  1.00  0.00    -0.027 A 
HETATM   29  C   UNL     1      48.742 -29.779   2.162  1.00  0.00     0.041 A 
HETATM   30 CL   UNL     1      47.845 -29.109   0.845  1.00  0.00    -0.084 Cl
HETATM   31  C   UNL     1      48.122 -29.805   3.416  1.00  0.00     0.024 A 
HETATM   32  C   UNL     1      48.790 -30.332   4.521  1.00  0.00     0.002 A 
HETATM   33  C   UNL     1      50.079 -30.836   4.374  1.00  0.00     0.001 A 
HETATM   34  C   UNL     1      50.699 -30.815   3.124  1.00  0.00     0.009 A 
ENDBRANCH  27  28
ENDBRANCH  26  27
ENDBRANCH   7  26
TORSDOF 6
ENDMDL
MODEL 9
REMARK VINA RESULT:      -7.4      5.329      8.742
REMARK  6 active torsions:
REMARK  status: ('A' for Active; 'I' for Inactive)
REMARK    1  A    between atoms: C_7  and  S_8 
REMARK    2  A    between atoms: S_8  and  C_9 
REMARK    3  A    between atoms: C_9  and  C_10 
REMARK    4  A    between atoms: C_18  and  C_19 
REMARK    5  A    between atoms: C_29  and  C_30 
REMARK    6  A    between atoms: C_30  and  O_31 
ROOT
HETATM    1  C   UNL     1      41.362  -6.527  -0.008  1.00  0.00     0.070 C 
HETATM    2  C   UNL     1      41.108  -8.002   0.174  1.00  0.00     0.037 A 
HETATM    3  N   UNL     1      41.253  -8.480   1.469  1.00  0.00    -0.192 N 
HETATM    4  C   UNL     1      41.050  -9.763   1.814  1.00  0.00     0.726 A 
HETATM    5  N   UNL     1      40.729 -10.681   0.851  1.00  0.00    -0.082 N 
HETATM    6  N   UNL     1      40.611 -11.920   1.379  1.00  0.00    -0.128 NA
HETATM    7  C   UNL     1      40.795 -11.656   2.681  1.00  0.00     0.226 A 
HETATM    8  N   UNL     1      41.086 -10.348   2.980  1.00  0.00    -0.035 NA
HETATM    9  C   UNL     1      40.571 -10.352  -0.578  1.00  0.00     0.204 A 
HETATM   10  C   UNL     1      40.781  -8.859  -0.825  1.00  0.00     0.070 A 
HETATM   11  H   UNL     1      41.473  -7.807   2.200  1.00  0.00     0.184 HD
ENDROOT
BRANCH   9  12
HETATM   12  C   UNL     1      39.216 -10.849  -1.101  1.00  0.00    -0.017 A 
HETATM   13  C   UNL     1      39.068 -12.092  -1.797  1.00  0.00    -0.017 A 
HETATM   14  C   UNL     1      37.787 -12.436  -2.304  1.00  0.00    -0.025 A 
HETATM   15  C   UNL     1      40.115 -13.019  -2.036  1.00  0.00     0.013 A 
HETATM   16  C   UNL     1      37.597 -13.634  -3.012  1.00  0.00     0.012 A 
HETATM   17  C   UNL     1      36.697 -11.577  -2.109  1.00  0.00     0.012 A 
HETATM   18  C   UNL     1      38.652 -14.513  -3.236  1.00  0.00     0.001 A 
HETATM   19  C   UNL     1      39.911 -14.207  -2.746  1.00  0.00     0.001 A 
HETATM   20  C   UNL     1      36.845 -10.374  -1.429  1.00  0.00     0.002 A 
HETATM   21  C   UNL     1      38.090 -10.009  -0.937  1.00  0.00     0.010 A 
ENDBRANCH   9  12
BRANCH  10  22
HETATM   22  C   UNL     1      40.544  -8.369  -2.196  1.00  0.00     0.293 C 
HETATM   23  O   UNL     1      39.571  -7.710  -2.530  1.00  0.00    -0.259 OA
BRANCH  22  24
HETATM   24  O   UNL     1      41.566  -8.756  -2.995  1.00  0.00    -0.323 OA
HETATM   25  C   UNL     1      41.946  -7.762  -3.949  1.00  0.00     0.213 C 
ENDBRANCH  22  24
ENDBRANCH  10  22
BRANCH   7  26
HETATM   26  S   UNL     1      40.622 -12.838   3.946  1.00  0.00    -0.083 SA
BRANCH  26  27
HETATM   27  C   UNL     1      40.126 -14.313   3.016  1.00  0.00     0.123 C 
BRANCH  27  28
HETATM   28  C   UNL     1      41.290 -15.269   2.865  1.00  0.00    -0.027 A 
HETATM   29  C   UNL     1      41.615 -16.236   3.832  1.00  0.00     0.041 A 
HETATM   30 CL   UNL     1      40.740 -16.378   5.316  1.00  0.00    -0.084 Cl
HETATM   31  C   UNL     1      42.672 -17.128   3.619  1.00  0.00     0.024 A 
HETATM   32  C   UNL     1      43.418 -17.067   2.443  1.00  0.00     0.002 A 
HETATM   33  C   UNL     1      43.109 -16.116   1.475  1.00  0.00     0.001 A 
HETATM   34  C   UNL     1      42.053 -15.227   1.683  1.00  0.00     0.009 A 
ENDBRANCH  27  28
ENDBRANCH  26  27
ENDBRANCH   7  26
TORSDOF 6
ENDMDL
MODEL 10
REMARK VINA RESULT:      -7.4      2.566      5.103
REMARK  6 active torsions:
REMARK  status: ('A' for Active; 'I' for Inactive)
REMARK    1  A    between atoms: C_7  and  S_8 
REMARK    2  A    between atoms: S_8  and  C_9 
REMARK    3  A    between atoms: C_9  and  C_10 
REMARK    4  A    between atoms: C_18  and  C_19 
REMARK    5  A    between atoms: C_29  and  C_30 
REMARK    6  A    between atoms: C_30  and  O_31 
ROOT
HETATM    1  C   UNL     1      45.753  -9.753   9.853  1.00  0.00     0.070 C 
HETATM    2  C   UNL     1      44.616  -9.905   8.875  1.00  0.00     0.037 A 
HETATM    3  N   UNL     1      44.535 -11.135   8.237  1.00  0.00    -0.192 N 
HETATM    4  C   UNL     1      43.577 -11.448   7.347  1.00  0.00     0.726 A 
HETATM    5  N   UNL     1      42.646 -10.510   6.996  1.00  0.00    -0.082 N 
HETATM    6  N   UNL     1      41.798 -10.991   6.059  1.00  0.00    -0.128 NA
HETATM    7  C   UNL     1      42.232 -12.257   5.955  1.00  0.00     0.226 A 
HETATM    8  N   UNL     1      43.333 -12.564   6.715  1.00  0.00    -0.035 NA
HETATM    9  C   UNL     1      42.607  -9.143   7.549  1.00  0.00     0.204 A 
HETATM   10  C   UNL     1      43.716  -8.935   8.578  1.00  0.00     0.070 A 
HETATM   11  H   UNL     1      45.209 -11.850   8.500  1.00  0.00     0.184 HD
ENDROOT
BRANCH   9  12
HETATM   12  C   UNL     1      41.215  -8.827   8.113  1.00  0.00    -0.017 A 
HETATM   13  C   UNL     1      40.428  -7.725   7.649  1.00  0.00    -0.017 A 
HETATM   14  C   UNL     1      39.181  -7.470   8.279  1.00  0.00    -0.025 A 
HETATM   15  C   UNL     1      40.801  -6.843   6.602  1.00  0.00     0.013 A 
HETATM   16  C   UNL     1      38.383  -6.387   7.874  1.00  0.00     0.012 A 
HETATM   17  C   UNL     1      38.735  -8.296   9.320  1.00  0.00     0.012 A 
HETATM   18  C   UNL     1      38.789  -5.538   6.849  1.00  0.00     0.001 A 
HETATM   19  C   UNL     1      39.998  -5.766   6.212  1.00  0.00     0.001 A 
HETATM   20  C   UNL     1      39.500  -9.367   9.764  1.00  0.00     0.002 A 
HETATM   21  C   UNL     1      40.729  -9.626   9.174  1.00  0.00     0.010 A 
ENDBRANCH   9  12
BRANCH  10  22
HETATM   22  C   UNL     1      43.729  -7.646   9.295  1.00  0.00     0.293 C 
HETATM   23  O   UNL     1      44.035  -6.580   8.783  1.00  0.00    -0.259 OA
BRANCH  22  24
HETATM   24  O   UNL     1      43.344  -7.840  10.578  1.00  0.00    -0.323 OA
HETATM   25  C   UNL     1      42.410  -6.863  11.042  1.00  0.00     0.213 C 
ENDBRANCH  22  24
ENDBRANCH  10  22
BRANCH   7  26
HETATM   26  S   UNL     1      41.449 -13.476   4.992  1.00  0.00    -0.083 SA
BRANCH  26  27
HETATM   27  C   UNL     1      42.772 -13.962   3.852  1.00  0.00     0.123 C 
BRANCH  27  28
HETATM   28  C   UNL     1      43.092 -15.434   3.999  1.00  0.00    -0.027 A 
HETATM   29  C   UNL     1      43.137 -16.318   2.908  1.00  0.00     0.041 A 
HETATM   30 CL   UNL     1      42.770 -15.807   1.298  1.00  0.00    -0.084 Cl
HETATM   31  C   UNL     1      43.488 -17.660   3.094  1.00  0.00     0.024 A 
HETATM   32  C   UNL     1      43.797 -18.137   4.367  1.00  0.00     0.002 A 
HETATM   33  C   UNL     1      43.757 -17.274   5.458  1.00  0.00     0.001 A 
HETATM   34  C   UNL     1      43.411 -15.934   5.276  1.00  0.00     0.009 A 
ENDBRANCH  27  28
ENDBRANCH  26  27
ENDBRANCH   7  26
TORSDOF 6
ENDMDL
