MODEL 1
REMARK VINA RESULT:      -9.1      0.000      0.000
REMARK  7 active torsions:
REMARK  status: ('A' for Active; 'I' for Inactive)
REMARK    1  A    between atoms: C_7  and  C_8 
REMARK    2  A    between atoms: C_8  and  C_9 
REMARK    3  A    between atoms: C_9  and  N_10 
REMARK    4  A    between atoms: N_10  and  C_11 
REMARK    5  A    between atoms: C_11  and  N_12 
REMARK    6  A    between atoms: N_12  and  C_13 
REMARK    7  A    between atoms: C_30  and  C_31 
ROOT
HETATM    1  C   UNL     1      42.886 -11.890   6.303  1.00  0.00     0.123 C 
HETATM    2  C   UNL     1      43.388 -10.771   6.913  1.00  0.00     0.144 C 
HETATM    3  C   UNL     1      42.502  -9.640   7.291  1.00  0.00     0.270 C 
HETATM    4  O   UNL     1      41.350  -9.538   6.866  1.00  0.00    -0.267 OA
HETATM    5  N   UNL     1      43.060  -8.698   8.135  1.00  0.00    -0.270 N 
HETATM    6  C   UNL     1      42.180  -7.674   8.669  1.00  0.00     0.164 C 
HETATM    7  C   UNL     1      44.420  -8.507   8.307  1.00  0.00     0.333 C 
HETATM    8  O   UNL     1      44.860  -7.545   8.940  1.00  0.00    -0.246 OA
HETATM    9  N   UNL     1      45.258  -9.445   7.733  1.00  0.00    -0.270 N 
HETATM   10  C   UNL     1      46.687  -9.274   7.933  1.00  0.00     0.164 C 
HETATM   11  C   UNL     1      44.839 -10.658   7.217  1.00  0.00     0.270 C 
HETATM   12  O   UNL     1      45.615 -11.602   7.052  1.00  0.00    -0.267 OA
ENDROOT
BRANCH   1  13
HETATM   13  N   UNL     1      41.510 -12.050   6.103  1.00  0.00    -0.375 N 
HETATM   14  H   UNL     1      41.058 -12.622   6.824  1.00  0.00     0.161 HD
BRANCH  13  15
HETATM   15  C   UNL     1      40.896 -12.166   4.779  1.00  0.00     0.126 C 
BRANCH  15  16
HETATM   16  C   UNL     1      39.976 -13.391   4.674  1.00  0.00     0.061 C 
BRANCH  16  17
HETATM   17  C   UNL     1      40.717 -14.688   4.501  1.00  0.00    -0.022 A 
HETATM   18  C   UNL     1      40.643 -15.795   5.334  1.00  0.00     0.013 A 
HETATM   19  C   UNL     1      39.862 -16.029   6.576  1.00  0.00     0.068 C 
HETATM   20  N   UNL     1      41.466 -16.763   4.817  1.00  0.00    -0.358 N 
HETATM   21  H   UNL     1      41.607 -17.681   5.222  1.00  0.00     0.166 HD
HETATM   22  C   UNL     1      42.097 -16.312   3.678  1.00  0.00     0.058 A 
HETATM   23  C   UNL     1      41.654 -15.008   3.463  1.00  0.00    -0.000 A 
HETATM   24  C   UNL     1      43.024 -16.965   2.838  1.00  0.00     0.075 A 
HETATM   25  C   UNL     1      42.166 -14.300   2.358  1.00  0.00     0.014 A 
HETATM   26  C   UNL     1      43.085 -14.914   1.504  1.00  0.00     0.002 A 
HETATM   27  C   UNL     1      43.501 -16.222   1.739  1.00  0.00     0.018 A 
BRANCH  24  28
HETATM   28  C   UNL     1      43.499 -18.381   3.044  1.00  0.00     0.419 C 
HETATM   29  F   UNL     1      43.484 -18.771   4.352  1.00  0.00    -0.166 F 
HETATM   30  F   UNL     1      42.733 -19.289   2.380  1.00  0.00    -0.166 F 
HETATM   31  F   UNL     1      44.775 -18.580   2.612  1.00  0.00    -0.166 F 
ENDBRANCH  24  28
ENDBRANCH  16  17
ENDBRANCH  15  16
ENDBRANCH  13  15
ENDBRANCH   1  13
BRANCH   1  32
HETATM   32  N   UNL     1      43.724 -12.942   5.913  1.00  0.00    -0.342 N 
HETATM   33  H   UNL     1      43.760 -13.054   4.892  1.00  0.00     0.167 HD
BRANCH  32  34
HETATM   34  C   UNL     1      43.741 -14.239   6.494  1.00  0.00     0.033 A 
HETATM   35  C   UNL     1      43.050 -14.581   7.663  1.00  0.00     0.029 A 
HETATM   36  C   UNL     1      43.135 -15.870   8.198  1.00  0.00     0.002 A 
HETATM   37  C   UNL     1      43.926 -16.834   7.578  1.00  0.00     0.000 A 
HETATM   38  C   UNL     1      44.635 -16.509   6.426  1.00  0.00     0.002 A 
HETATM   39  C   UNL     1      44.547 -15.219   5.893  1.00  0.00     0.029 A 
ENDBRANCH  32  34
ENDBRANCH   1  32
TORSDOF 7
ENDMDL
MODEL 2
REMARK VINA RESULT:      -9.0      4.173      6.969
REMARK  7 active torsions:
REMARK  status: ('A' for Active; 'I' for Inactive)
REMARK    1  A    between atoms: C_7  and  C_8 
REMARK    2  A    between atoms: C_8  and  C_9 
REMARK    3  A    between atoms: C_9  and  N_10 
REMARK    4  A    between atoms: N_10  and  C_11 
REMARK    5  A    between atoms: C_11  and  N_12 
REMARK    6  A    between atoms: N_12  and  C_13 
REMARK    7  A    between atoms: C_30  and  C_31 
ROOT
HETATM    1  C   UNL     1      40.051 -12.768   1.744  1.00  0.00     0.123 C 
HETATM    2  C   UNL     1      39.732 -12.356   0.478  1.00  0.00     0.144 C 
HETATM    3  C   UNL     1      39.712 -10.913   0.122  1.00  0.00     0.270 C 
HETATM    4  O   UNL     1      39.731 -10.026   0.976  1.00  0.00    -0.267 OA
HETATM    5  N   UNL     1      39.648 -10.630  -1.230  1.00  0.00    -0.270 N 
HETATM    6  C   UNL     1      39.803  -9.243  -1.631  1.00  0.00     0.164 C 
HETATM    7  C   UNL     1      39.203 -11.515  -2.197  1.00  0.00     0.333 C 
HETATM    8  O   UNL     1      39.009 -11.155  -3.360  1.00  0.00    -0.246 OA
HETATM    9  N   UNL     1      38.986 -12.820  -1.793  1.00  0.00    -0.270 N 
HETATM   10  C   UNL     1      38.549 -13.767  -2.805  1.00  0.00     0.164 C 
HETATM   11  C   UNL     1      39.399 -13.344  -0.582  1.00  0.00     0.270 C 
HETATM   12  O   UNL     1      39.518 -14.559  -0.401  1.00  0.00    -0.267 OA
ENDROOT
BRANCH   1  13
HETATM   13  N   UNL     1      40.464 -11.853   2.720  1.00  0.00    -0.375 N 
HETATM   14  H   UNL     1      41.481 -11.738   2.765  1.00  0.00     0.161 HD
BRANCH  13  15
HETATM   15  C   UNL     1      39.789 -11.693   4.010  1.00  0.00     0.126 C 
BRANCH  15  16
HETATM   16  C   UNL     1      40.785 -11.521   5.166  1.00  0.00     0.061 C 
BRANCH  16  17
HETATM   17  C   UNL     1      41.752 -12.664   5.303  1.00  0.00    -0.022 A 
HETATM   18  C   UNL     1      43.110 -12.631   5.022  1.00  0.00     0.013 A 
HETATM   19  C   UNL     1      43.977 -11.529   4.528  1.00  0.00     0.068 C 
HETATM   20  N   UNL     1      43.622 -13.876   5.288  1.00  0.00    -0.358 N 
HETATM   21  H   UNL     1      44.594 -14.140   5.172  1.00  0.00     0.166 HD
HETATM   22  C   UNL     1      42.631 -14.732   5.713  1.00  0.00     0.058 A 
HETATM   23  C   UNL     1      41.444 -14.001   5.721  1.00  0.00    -0.000 A 
HETATM   24  C   UNL     1      42.707 -16.093   6.082  1.00  0.00     0.075 A 
HETATM   25  C   UNL     1      40.257 -14.654   6.107  1.00  0.00     0.014 A 
HETATM   26  C   UNL     1      40.294 -16.000   6.478  1.00  0.00     0.002 A 
HETATM   27  C   UNL     1      41.496 -16.702   6.470  1.00  0.00     0.018 A 
BRANCH  24  28
HETATM   28  C   UNL     1      43.984 -16.893   6.098  1.00  0.00     0.419 C 
HETATM   29  F   UNL     1      44.850 -16.509   7.082  1.00  0.00    -0.166 F 
HETATM   30  F   UNL     1      43.764 -18.222   6.299  1.00  0.00    -0.166 F 
HETATM   31  F   UNL     1      44.682 -16.801   4.933  1.00  0.00    -0.166 F 
ENDBRANCH  24  28
ENDBRANCH  16  17
ENDBRANCH  15  16
ENDBRANCH  13  15
ENDBRANCH   1  13
BRANCH   1  32
HETATM   32  N   UNL     1      40.037 -14.124   2.091  1.00  0.00    -0.342 N 
HETATM   33  H   UNL     1      39.469 -14.306   2.929  1.00  0.00     0.167 HD
BRANCH  32  34
HETATM   34  C   UNL     1      41.176 -14.972   2.144  1.00  0.00     0.033 A 
HETATM   35  C   UNL     1      42.465 -14.572   1.775  1.00  0.00     0.029 A 
HETATM   36  C   UNL     1      43.538 -15.469   1.823  1.00  0.00     0.002 A 
HETATM   37  C   UNL     1      43.332 -16.785   2.228  1.00  0.00     0.000 A 
HETATM   38  C   UNL     1      42.055 -17.207   2.583  1.00  0.00     0.002 A 
HETATM   39  C   UNL     1      40.985 -16.308   2.535  1.00  0.00     0.029 A 
ENDBRANCH  32  34
ENDBRANCH   1  32
TORSDOF 7
ENDMDL
MODEL 3
REMARK VINA RESULT:      -8.7      4.909      8.163
REMARK  7 active torsions:
REMARK  status: ('A' for Active; 'I' for Inactive)
REMARK    1  A    between atoms: C_7  and  C_8 
REMARK    2  A    between atoms: C_8  and  C_9 
REMARK    3  A    between atoms: C_9  and  N_10 
REMARK    4  A    between atoms: N_10  and  C_11 
REMARK    5  A    between atoms: C_11  and  N_12 
REMARK    6  A    between atoms: N_12  and  C_13 
REMARK    7  A    between atoms: C_30  and  C_31 
ROOT
HETATM    1  C   UNL     1      41.040 -13.919   2.010  1.00  0.00     0.123 C 
HETATM    2  C   UNL     1      40.700 -13.640   0.714  1.00  0.00     0.144 C 
HETATM    3  C   UNL     1      41.012 -12.321   0.105  1.00  0.00     0.270 C 
HETATM    4  O   UNL     1      41.353 -11.350   0.782  1.00  0.00    -0.267 OA
HETATM    5  N   UNL     1      40.874 -12.247  -1.269  1.00  0.00    -0.270 N 
HETATM    6  C   UNL     1      41.335 -11.035  -1.923  1.00  0.00     0.164 C 
HETATM    7  C   UNL     1      40.112 -13.117  -2.029  1.00  0.00     0.333 C 
HETATM    8  O   UNL     1      39.890 -12.905  -3.223  1.00  0.00    -0.246 OA
HETATM    9  N   UNL     1      39.612 -14.233  -1.382  1.00  0.00    -0.270 N 
HETATM   10  C   UNL     1      38.838 -15.172  -2.177  1.00  0.00     0.164 C 
HETATM   11  C   UNL     1      40.008 -14.654  -0.126  1.00  0.00     0.270 C 
HETATM   12  O   UNL     1      39.830 -15.810   0.264  1.00  0.00    -0.267 OA
ENDROOT
BRANCH   1  13
HETATM   13  N   UNL     1      41.779 -13.010   2.776  1.00  0.00    -0.375 N 
HETATM   14  H   UNL     1      42.792 -13.155   2.715  1.00  0.00     0.161 HD
BRANCH  13  15
HETATM   15  C   UNL     1      41.329 -12.495   4.071  1.00  0.00     0.126 C 
BRANCH  15  16
HETATM   16  C   UNL     1      41.762 -11.040   4.297  1.00  0.00     0.061 C 
BRANCH  16  17
HETATM   17  C   UNL     1      42.154 -10.741   5.718  1.00  0.00    -0.022 A 
HETATM   18  C   UNL     1      41.322 -10.261   6.718  1.00  0.00     0.013 A 
HETATM   19  C   UNL     1      39.878  -9.912   6.700  1.00  0.00     0.068 C 
HETATM   20  N   UNL     1      42.071 -10.135   7.860  1.00  0.00    -0.358 N 
HETATM   21  H   UNL     1      41.719  -9.804   8.751  1.00  0.00     0.166 HD
HETATM   22  C   UNL     1      43.380 -10.497   7.631  1.00  0.00     0.058 A 
HETATM   23  C   UNL     1      43.464 -10.871   6.290  1.00  0.00    -0.000 A 
HETATM   24  C   UNL     1      44.484 -10.512   8.510  1.00  0.00     0.075 A 
HETATM   25  C   UNL     1      44.715 -11.275   5.784  1.00  0.00     0.014 A 
HETATM   26  C   UNL     1      45.829 -11.303   6.625  1.00  0.00     0.002 A 
HETATM   27  C   UNL     1      45.713 -10.933   7.962  1.00  0.00     0.018 A 
BRANCH  24  28
HETATM   28  C   UNL     1      44.408 -10.130   9.966  1.00  0.00     0.419 C 
HETATM   29  F   UNL     1      43.592 -10.945  10.697  1.00  0.00    -0.166 F 
HETATM   30  F   UNL     1      45.621 -10.176  10.581  1.00  0.00    -0.166 F 
HETATM   31  F   UNL     1      43.938  -8.866  10.159  1.00  0.00    -0.166 F 
ENDBRANCH  24  28
ENDBRANCH  16  17
ENDBRANCH  15  16
ENDBRANCH  13  15
ENDBRANCH   1  13
BRANCH   1  32
HETATM   32  N   UNL     1      40.715 -15.148   2.597  1.00  0.00    -0.342 N 
HETATM   33  H   UNL     1      39.911 -15.076   3.233  1.00  0.00     0.167 HD
BRANCH  32  34
HETATM   34  C   UNL     1      41.645 -16.057   3.172  1.00  0.00     0.033 A 
HETATM   35  C   UNL     1      41.860 -16.189   4.548  1.00  0.00     0.029 A 
HETATM   36  C   UNL     1      42.814 -17.082   5.046  1.00  0.00     0.002 A 
HETATM   37  C   UNL     1      43.579 -17.848   4.169  1.00  0.00     0.000 A 
HETATM   38  C   UNL     1      43.393 -17.718   2.796  1.00  0.00     0.002 A 
HETATM   39  C   UNL     1      42.438 -16.825   2.303  1.00  0.00     0.029 A 
ENDBRANCH  32  34
ENDBRANCH   1  32
TORSDOF 7
ENDMDL
MODEL 4
REMARK VINA RESULT:      -8.5      4.317      6.698
REMARK  7 active torsions:
REMARK  status: ('A' for Active; 'I' for Inactive)
REMARK    1  A    between atoms: C_7  and  C_8 
REMARK    2  A    between atoms: C_8  and  C_9 
REMARK    3  A    between atoms: C_9  and  N_10 
REMARK    4  A    between atoms: N_10  and  C_11 
REMARK    5  A    between atoms: C_11  and  N_12 
REMARK    6  A    between atoms: N_12  and  C_13 
REMARK    7  A    between atoms: C_30  and  C_31 
ROOT
HETATM    1  C   UNL     1      41.345 -12.907   0.711  1.00  0.00     0.123 C 
HETATM    2  C   UNL     1      40.990 -11.852  -0.086  1.00  0.00     0.144 C 
HETATM    3  C   UNL     1      40.173 -12.055  -1.311  1.00  0.00     0.270 C 
HETATM    4  O   UNL     1      39.990 -13.170  -1.800  1.00  0.00    -0.267 OA
HETATM    5  N   UNL     1      39.649 -10.907  -1.878  1.00  0.00    -0.270 N 
HETATM    6  C   UNL     1      38.705 -11.073  -2.969  1.00  0.00     0.164 C 
HETATM    7  C   UNL     1      40.138  -9.631  -1.662  1.00  0.00     0.333 C 
HETATM    8  O   UNL     1      39.742  -8.669  -2.322  1.00  0.00    -0.246 OA
HETATM    9  N   UNL     1      41.093  -9.491  -0.671  1.00  0.00    -0.270 N 
HETATM   10  C   UNL     1      41.591  -8.150  -0.411  1.00  0.00     0.164 C 
HETATM   11  C   UNL     1      41.411 -10.467   0.255  1.00  0.00     0.270 C 
HETATM   12  O   UNL     1      41.978 -10.202   1.318  1.00  0.00    -0.267 OA
ENDROOT
BRANCH   1  13
HETATM   13  N   UNL     1      40.870 -14.199   0.454  1.00  0.00    -0.375 N 
HETATM   14  H   UNL     1      40.824 -14.425  -0.545  1.00  0.00     0.161 HD
BRANCH  13  15
HETATM   15  C   UNL     1      39.837 -14.852   1.260  1.00  0.00     0.126 C 
BRANCH  15  16
HETATM   16  C   UNL     1      40.277 -16.238   1.752  1.00  0.00     0.061 C 
BRANCH  16  17
HETATM   17  C   UNL     1      41.363 -16.190   2.792  1.00  0.00    -0.022 A 
HETATM   18  C   UNL     1      42.729 -16.214   2.558  1.00  0.00     0.013 A 
HETATM   19  C   UNL     1      43.499 -16.290   1.288  1.00  0.00     0.068 C 
HETATM   20  N   UNL     1      43.364 -16.146   3.772  1.00  0.00    -0.358 N 
HETATM   21  H   UNL     1      44.369 -16.145   3.902  1.00  0.00     0.166 HD
HETATM   22  C   UNL     1      42.449 -16.102   4.801  1.00  0.00     0.058 A 
HETATM   23  C   UNL     1      41.184 -16.141   4.215  1.00  0.00    -0.000 A 
HETATM   24  C   UNL     1      42.657 -16.038   6.195  1.00  0.00     0.075 A 
HETATM   25  C   UNL     1      40.055 -16.125   5.057  1.00  0.00     0.014 A 
HETATM   26  C   UNL     1      40.222 -16.062   6.443  1.00  0.00     0.002 A 
HETATM   27  C   UNL     1      41.498 -16.015   6.998  1.00  0.00     0.018 A 
BRANCH  24  28
HETATM   28  C   UNL     1      44.016 -15.976   6.844  1.00  0.00     0.419 C 
HETATM   29  F   UNL     1      44.591 -14.740   6.776  1.00  0.00    -0.166 F 
HETATM   30  F   UNL     1      43.976 -16.291   8.168  1.00  0.00    -0.166 F 
HETATM   31  F   UNL     1      44.912 -16.834   6.281  1.00  0.00    -0.166 F 
ENDBRANCH  24  28
ENDBRANCH  16  17
ENDBRANCH  15  16
ENDBRANCH  13  15
ENDBRANCH   1  13
BRANCH   1  32
HETATM   32  N   UNL     1      42.144 -12.724   1.845  1.00  0.00    -0.342 N 
HETATM   33  H   UNL     1      42.968 -13.338   1.846  1.00  0.00     0.167 HD
BRANCH  32  34
HETATM   34  C   UNL     1      41.668 -12.634   3.182  1.00  0.00     0.033 A 
HETATM   35  C   UNL     1      40.315 -12.515   3.522  1.00  0.00     0.029 A 
HETATM   36  C   UNL     1      39.917 -12.399   4.858  1.00  0.00     0.002 A 
HETATM   37  C   UNL     1      40.870 -12.386   5.873  1.00  0.00     0.000 A 
HETATM   38  C   UNL     1      42.221 -12.485   5.554  1.00  0.00     0.002 A 
HETATM   39  C   UNL     1      42.615 -12.602   4.218  1.00  0.00     0.029 A 
ENDBRANCH  32  34
ENDBRANCH   1  32
TORSDOF 7
ENDMDL
MODEL 5
REMARK VINA RESULT:      -8.4      1.472      3.721
REMARK  7 active torsions:
REMARK  status: ('A' for Active; 'I' for Inactive)
REMARK    1  A    between atoms: C_7  and  C_8 
REMARK    2  A    between atoms: C_8  and  C_9 
REMARK    3  A    between atoms: C_9  and  N_10 
REMARK    4  A    between atoms: N_10  and  C_11 
REMARK    5  A    between atoms: C_11  and  N_12 
REMARK    6  A    between atoms: N_12  and  C_13 
REMARK    7  A    between atoms: C_30  and  C_31 
ROOT
HETATM    1  C   UNL     1      42.350 -11.694   6.020  1.00  0.00     0.123 C 
HETATM    2  C   UNL     1      42.759 -10.605   6.743  1.00  0.00     0.144 C 
HETATM    3  C   UNL     1      43.968 -10.666   7.605  1.00  0.00     0.270 C 
HETATM    4  O   UNL     1      44.505 -11.732   7.907  1.00  0.00    -0.267 OA
HETATM    5  N   UNL     1      44.438  -9.450   8.064  1.00  0.00    -0.270 N 
HETATM    6  C   UNL     1      45.712  -9.446   8.762  1.00  0.00     0.164 C 
HETATM    7  C   UNL     1      43.683  -8.292   8.134  1.00  0.00     0.333 C 
HETATM    8  O   UNL     1      44.101  -7.283   8.706  1.00  0.00    -0.246 OA
HETATM    9  N   UNL     1      42.438  -8.324   7.532  1.00  0.00    -0.270 N 
HETATM   10  C   UNL     1      41.648  -7.105   7.569  1.00  0.00     0.164 C 
HETATM   11  C   UNL     1      42.004  -9.325   6.682  1.00  0.00     0.270 C 
HETATM   12  O   UNL     1      41.070  -9.156   5.895  1.00  0.00    -0.267 OA
ENDROOT
BRANCH   1  13
HETATM   13  N   UNL     1      43.108 -12.870   5.992  1.00  0.00    -0.375 N 
HETATM   14  H   UNL     1      43.776 -12.905   5.215  1.00  0.00     0.161 HD
BRANCH  13  15
HETATM   15  C   UNL     1      42.578 -14.179   6.379  1.00  0.00     0.126 C 
BRANCH  15  16
HETATM   16  C   UNL     1      43.694 -15.199   6.645  1.00  0.00     0.061 C 
BRANCH  16  17
HETATM   17  C   UNL     1      43.588 -16.441   5.804  1.00  0.00    -0.022 A 
HETATM   18  C   UNL     1      43.630 -17.750   6.260  1.00  0.00     0.013 A 
HETATM   19  C   UNL     1      43.784 -18.299   7.632  1.00  0.00     0.068 C 
HETATM   20  N   UNL     1      43.491 -18.577   5.174  1.00  0.00    -0.358 N 
HETATM   21  H   UNL     1      43.486 -19.589   5.212  1.00  0.00     0.166 HD
HETATM   22  C   UNL     1      43.384 -17.844   4.012  1.00  0.00     0.058 A 
HETATM   23  C   UNL     1      43.454 -16.500   4.376  1.00  0.00    -0.000 A 
HETATM   24  C   UNL     1      43.237 -18.279   2.678  1.00  0.00     0.075 A 
HETATM   25  C   UNL     1      43.384 -15.526   3.361  1.00  0.00     0.014 A 
HETATM   26  C   UNL     1      43.239 -15.920   2.029  1.00  0.00     0.002 A 
HETATM   27  C   UNL     1      43.163 -17.270   1.697  1.00  0.00     0.018 A 
BRANCH  24  28
HETATM   28  C   UNL     1      43.141 -19.727   2.267  1.00  0.00     0.419 C 
HETATM   29  F   UNL     1      41.922 -20.062   1.750  1.00  0.00    -0.166 F 
HETATM   30  F   UNL     1      44.051 -20.060   1.311  1.00  0.00    -0.166 F 
HETATM   31  F   UNL     1      43.354 -20.586   3.302  1.00  0.00    -0.166 F 
ENDBRANCH  24  28
ENDBRANCH  16  17
ENDBRANCH  15  16
ENDBRANCH  13  15
ENDBRANCH   1  13
BRANCH   1  32
HETATM   32  N   UNL     1      41.191 -11.650   5.235  1.00  0.00    -0.342 N 
HETATM   33  H   UNL     1      40.343 -11.853   5.779  1.00  0.00     0.167 HD
BRANCH  32  34
HETATM   34  C   UNL     1      41.042 -12.250   3.955  1.00  0.00     0.033 A 
HETATM   35  C   UNL     1      41.789 -11.884   2.829  1.00  0.00     0.029 A 
HETATM   36  C   UNL     1      41.568 -12.495   1.590  1.00  0.00     0.002 A 
HETATM   37  C   UNL     1      40.586 -13.473   1.457  1.00  0.00     0.000 A 
HETATM   38  C   UNL     1      39.821 -13.838   2.561  1.00  0.00     0.002 A 
HETATM   39  C   UNL     1      40.044 -13.226   3.798  1.00  0.00     0.029 A 
ENDBRANCH  32  34
ENDBRANCH   1  32
TORSDOF 7
ENDMDL
MODEL 6
REMARK VINA RESULT:      -8.4      3.100      4.585
REMARK  7 active torsions:
REMARK  status: ('A' for Active; 'I' for Inactive)
REMARK    1  A    between atoms: C_7  and  C_8 
REMARK    2  A    between atoms: C_8  and  C_9 
REMARK    3  A    between atoms: C_9  and  N_10 
REMARK    4  A    between atoms: N_10  and  C_11 
REMARK    5  A    between atoms: C_11  and  N_12 
REMARK    6  A    between atoms: N_12  and  C_13 
REMARK    7  A    between atoms: C_30  and  C_31 
ROOT
HETATM    1  C   UNL     1      40.999 -12.717   4.494  1.00  0.00     0.123 C 
HETATM    2  C   UNL     1      40.642 -11.437   4.825  1.00  0.00     0.144 C 
HETATM    3  C   UNL     1      39.928 -11.142   6.094  1.00  0.00     0.270 C 
HETATM    4  O   UNL     1      39.409 -12.027   6.775  1.00  0.00    -0.267 OA
HETATM    5  N   UNL     1      39.865  -9.807   6.450  1.00  0.00    -0.270 N 
HETATM    6  C   UNL     1      39.332  -9.490   7.763  1.00  0.00     0.164 C 
HETATM    7  C   UNL     1      40.029  -8.752   5.570  1.00  0.00     0.333 C 
HETATM    8  O   UNL     1      39.796  -7.589   5.907  1.00  0.00    -0.246 OA
HETATM    9  N   UNL     1      40.465  -9.067   4.295  1.00  0.00    -0.270 N 
HETATM   10  C   UNL     1      40.673  -7.965   3.371  1.00  0.00     0.164 C 
HETATM   11  C   UNL     1      40.964 -10.301   3.921  1.00  0.00     0.270 C 
HETATM   12  O   UNL     1      41.665 -10.446   2.916  1.00  0.00    -0.267 OA
ENDROOT
BRANCH   1  13
HETATM   13  N   UNL     1      40.790 -13.778   5.382  1.00  0.00    -0.375 N 
HETATM   14  H   UNL     1      39.827 -13.834   5.730  1.00  0.00     0.161 HD
BRANCH  13  15
HETATM   15  C   UNL     1      41.798 -14.235   6.342  1.00  0.00     0.126 C 
BRANCH  15  16
HETATM   16  C   UNL     1      43.123 -14.600   5.659  1.00  0.00     0.061 C 
BRANCH  16  17
HETATM   17  C   UNL     1      43.392 -16.080   5.619  1.00  0.00    -0.022 A 
HETATM   18  C   UNL     1      43.687 -16.892   6.704  1.00  0.00     0.013 A 
HETATM   19  C   UNL     1      43.822 -16.577   8.150  1.00  0.00     0.068 C 
HETATM   20  N   UNL     1      43.854 -18.171   6.235  1.00  0.00    -0.358 N 
HETATM   21  H   UNL     1      44.078 -18.974   6.810  1.00  0.00     0.166 HD
HETATM   22  C   UNL     1      43.701 -18.215   4.867  1.00  0.00     0.058 A 
HETATM   23  C   UNL     1      43.422 -16.914   4.452  1.00  0.00    -0.000 A 
HETATM   24  C   UNL     1      43.796 -19.308   3.980  1.00  0.00     0.075 A 
HETATM   25  C   UNL     1      43.235 -16.675   3.076  1.00  0.00     0.014 A 
HETATM   26  C   UNL     1      43.322 -17.733   2.169  1.00  0.00     0.002 A 
HETATM   27  C   UNL     1      43.592 -19.024   2.615  1.00  0.00     0.018 A 
BRANCH  24  28
HETATM   28  C   UNL     1      44.078 -20.725   4.413  1.00  0.00     0.419 C 
HETATM   29  F   UNL     1      43.119 -21.238   5.238  1.00  0.00    -0.166 F 
HETATM   30  F   UNL     1      44.158 -21.585   3.361  1.00  0.00    -0.166 F 
HETATM   31  F   UNL     1      45.254 -20.848   5.089  1.00  0.00    -0.166 F 
ENDBRANCH  24  28
ENDBRANCH  16  17
ENDBRANCH  15  16
ENDBRANCH  13  15
ENDBRANCH   1  13
BRANCH   1  32
HETATM   32  N   UNL     1      41.640 -13.002   3.283  1.00  0.00    -0.342 N 
HETATM   33  H   UNL     1      42.113 -12.179   2.888  1.00  0.00     0.167 HD
BRANCH  32  34
HETATM   34  C   UNL     1      41.075 -13.737   2.205  1.00  0.00     0.033 A 
HETATM   35  C   UNL     1      41.046 -13.285   0.881  1.00  0.00     0.029 A 
HETATM   36  C   UNL     1      40.445 -14.046  -0.126  1.00  0.00     0.002 A 
HETATM   37  C   UNL     1      39.852 -15.268   0.180  1.00  0.00     0.000 A 
HETATM   38  C   UNL     1      39.854 -15.727   1.494  1.00  0.00     0.002 A 
HETATM   39  C   UNL     1      40.456 -14.963   2.499  1.00  0.00     0.029 A 
ENDBRANCH  32  34
ENDBRANCH   1  32
TORSDOF 7
ENDMDL
MODEL 7
REMARK VINA RESULT:      -8.4      2.209      4.523
REMARK  7 active torsions:
REMARK  status: ('A' for Active; 'I' for Inactive)
REMARK    1  A    between atoms: C_7  and  C_8 
REMARK    2  A    between atoms: C_8  and  C_9 
REMARK    3  A    between atoms: C_9  and  N_10 
REMARK    4  A    between atoms: N_10  and  C_11 
REMARK    5  A    between atoms: C_11  and  N_12 
REMARK    6  A    between atoms: N_12  and  C_13 
REMARK    7  A    between atoms: C_30  and  C_31 
ROOT
HETATM    1  C   UNL     1      42.826 -10.829   4.111  1.00  0.00     0.123 C 
HETATM    2  C   UNL     1      42.663 -10.421   5.407  1.00  0.00     0.144 C 
HETATM    3  C   UNL     1      43.447 -11.034   6.511  1.00  0.00     0.270 C 
HETATM    4  O   UNL     1      44.079 -12.081   6.363  1.00  0.00    -0.267 OA
HETATM    5  N   UNL     1      43.403 -10.366   7.720  1.00  0.00    -0.270 N 
HETATM    6  C   UNL     1      44.290 -10.830   8.773  1.00  0.00     0.164 C 
HETATM    7  C   UNL     1      42.417  -9.466   8.085  1.00  0.00     0.333 C 
HETATM    8  O   UNL     1      42.336  -9.030   9.235  1.00  0.00    -0.246 OA
HETATM    9  N   UNL     1      41.528  -9.084   7.096  1.00  0.00    -0.270 N 
HETATM   10  C   UNL     1      40.507  -8.114   7.457  1.00  0.00     0.164 C 
HETATM   11  C   UNL     1      41.695  -9.345   5.749  1.00  0.00     0.270 C 
HETATM   12  O   UNL     1      41.104  -8.700   4.879  1.00  0.00    -0.267 OA
ENDROOT
BRANCH   1  13
HETATM   13  N   UNL     1      43.804 -11.769   3.766  1.00  0.00    -0.375 N 
HETATM   14  H   UNL     1      44.718 -11.350   3.562  1.00  0.00     0.161 HD
BRANCH  13  15
HETATM   15  C   UNL     1      43.521 -12.981   2.996  1.00  0.00     0.126 C 
BRANCH  15  16
HETATM   16  C   UNL     1      42.636 -13.967   3.773  1.00  0.00     0.061 C 
BRANCH  16  17
HETATM   17  C   UNL     1      42.702 -15.376   3.252  1.00  0.00    -0.022 A 
HETATM   18  C   UNL     1      42.210 -15.828   2.037  1.00  0.00     0.013 A 
HETATM   19  C   UNL     1      41.506 -15.109   0.942  1.00  0.00     0.068 C 
HETATM   20  N   UNL     1      42.481 -17.170   1.948  1.00  0.00    -0.358 N 
HETATM   21  H   UNL     1      42.233 -17.761   1.164  1.00  0.00     0.166 HD
HETATM   22  C   UNL     1      43.118 -17.617   3.085  1.00  0.00     0.058 A 
HETATM   23  C   UNL     1      43.260 -16.513   3.926  1.00  0.00    -0.000 A 
HETATM   24  C   UNL     1      43.568 -18.911   3.421  1.00  0.00     0.075 A 
HETATM   25  C   UNL     1      43.874 -16.701   5.180  1.00  0.00     0.014 A 
HETATM   26  C   UNL     1      44.332 -17.968   5.546  1.00  0.00     0.002 A 
HETATM   27  C   UNL     1      44.185 -19.049   4.681  1.00  0.00     0.018 A 
BRANCH  24  28
HETATM   28  C   UNL     1      43.441 -20.110   2.517  1.00  0.00     0.419 C 
HETATM   29  F   UNL     1      42.228 -20.193   1.896  1.00  0.00    -0.166 F 
HETATM   30  F   UNL     1      44.367 -20.111   1.518  1.00  0.00    -0.166 F 
HETATM   31  F   UNL     1      43.602 -21.291   3.177  1.00  0.00    -0.166 F 
ENDBRANCH  24  28
ENDBRANCH  16  17
ENDBRANCH  15  16
ENDBRANCH  13  15
ENDBRANCH   1  13
BRANCH   1  32
HETATM   32  N   UNL     1      42.063 -10.278   3.074  1.00  0.00    -0.342 N 
HETATM   33  H   UNL     1      41.735  -9.329   3.294  1.00  0.00     0.167 HD
BRANCH  32  34
HETATM   34  C   UNL     1      41.025 -10.947   2.371  1.00  0.00     0.033 A 
HETATM   35  C   UNL     1      39.934 -11.566   2.992  1.00  0.00     0.029 A 
HETATM   36  C   UNL     1      38.962 -12.235   2.241  1.00  0.00     0.002 A 
HETATM   37  C   UNL     1      39.076 -12.305   0.855  1.00  0.00     0.000 A 
HETATM   38  C   UNL     1      40.162 -11.711   0.220  1.00  0.00     0.002 A 
HETATM   39  C   UNL     1      41.132 -11.043   0.974  1.00  0.00     0.029 A 
ENDBRANCH  32  34
ENDBRANCH   1  32
TORSDOF 7
ENDMDL
MODEL 8
REMARK VINA RESULT:      -8.3      2.361      4.825
REMARK  7 active torsions:
REMARK  status: ('A' for Active; 'I' for Inactive)
REMARK    1  A    between atoms: C_7  and  C_8 
REMARK    2  A    between atoms: C_8  and  C_9 
REMARK    3  A    between atoms: C_9  and  N_10 
REMARK    4  A    between atoms: N_10  and  C_11 
REMARK    5  A    between atoms: C_11  and  N_12 
REMARK    6  A    between atoms: N_12  and  C_13 
REMARK    7  A    between atoms: C_30  and  C_31 
ROOT
HETATM    1  C   UNL     1      43.098 -11.236   6.090  1.00  0.00     0.123 C 
HETATM    2  C   UNL     1      42.388 -10.558   5.135  1.00  0.00     0.144 C 
HETATM    3  C   UNL     1      42.632 -10.790   3.688  1.00  0.00     0.270 C 
HETATM    4  O   UNL     1      43.625 -11.393   3.278  1.00  0.00    -0.267 OA
HETATM    5  N   UNL     1      41.683 -10.266   2.828  1.00  0.00    -0.270 N 
HETATM    6  C   UNL     1      41.788 -10.617   1.423  1.00  0.00     0.164 C 
HETATM    7  C   UNL     1      40.807  -9.246   3.155  1.00  0.00     0.333 C 
HETATM    8  O   UNL     1      40.101  -8.706   2.302  1.00  0.00    -0.246 OA
HETATM    9  N   UNL     1      40.765  -8.864   4.484  1.00  0.00    -0.270 N 
HETATM   10  C   UNL     1      39.825  -7.816   4.846  1.00  0.00     0.164 C 
HETATM   11  C   UNL     1      41.346  -9.570   5.521  1.00  0.00     0.270 C 
HETATM   12  O   UNL     1      40.996  -9.417   6.694  1.00  0.00    -0.267 OA
ENDROOT
BRANCH   1  13
HETATM   13  N   UNL     1      44.009 -12.239   5.738  1.00  0.00    -0.375 N 
HETATM   14  H   UNL     1      44.392 -12.128   4.794  1.00  0.00     0.161 HD
BRANCH  13  15
HETATM   15  C   UNL     1      43.876 -13.633   6.167  1.00  0.00     0.126 C 
BRANCH  15  16
HETATM   16  C   UNL     1      42.597 -14.285   5.624  1.00  0.00     0.061 C 
BRANCH  16  17
HETATM   17  C   UNL     1      42.855 -15.482   4.749  1.00  0.00    -0.022 A 
HETATM   18  C   UNL     1      42.847 -15.506   3.363  1.00  0.00     0.013 A 
HETATM   19  C   UNL     1      42.593 -14.428   2.371  1.00  0.00     0.068 C 
HETATM   20  N   UNL     1      43.136 -16.786   2.965  1.00  0.00    -0.358 N 
HETATM   21  H   UNL     1      43.197 -17.094   2.001  1.00  0.00     0.166 HD
HETATM   22  C   UNL     1      43.312 -17.610   4.054  1.00  0.00     0.058 A 
HETATM   23  C   UNL     1      43.129 -16.820   5.189  1.00  0.00    -0.000 A 
HETATM   24  C   UNL     1      43.610 -18.988   4.109  1.00  0.00     0.075 A 
HETATM   25  C   UNL     1      43.239 -17.429   6.454  1.00  0.00     0.014 A 
HETATM   26  C   UNL     1      43.534 -18.791   6.547  1.00  0.00     0.002 A 
HETATM   27  C   UNL     1      43.720 -19.552   5.396  1.00  0.00     0.018 A 
BRANCH  24  28
HETATM   28  C   UNL     1      43.830 -19.853   2.894  1.00  0.00     0.419 C 
HETATM   29  F   UNL     1      44.165 -21.141   3.200  1.00  0.00    -0.166 F 
HETATM   30  F   UNL     1      42.722 -19.938   2.107  1.00  0.00    -0.166 F 
HETATM   31  F   UNL     1      44.827 -19.392   2.089  1.00  0.00    -0.166 F 
ENDBRANCH  24  28
ENDBRANCH  16  17
ENDBRANCH  15  16
ENDBRANCH  13  15
ENDBRANCH   1  13
BRANCH   1  32
HETATM   32  N   UNL     1      42.895 -10.994   7.454  1.00  0.00    -0.342 N 
HETATM   33  H   UNL     1      41.984 -10.555   7.641  1.00  0.00     0.167 HD
BRANCH  32  34
HETATM   34  C   UNL     1      43.846 -10.415   8.337  1.00  0.00     0.033 A 
HETATM   35  C   UNL     1      44.956  -9.675   7.914  1.00  0.00     0.029 A 
HETATM   36  C   UNL     1      45.872  -9.159   8.837  1.00  0.00     0.002 A 
HETATM   37  C   UNL     1      45.696  -9.389  10.199  1.00  0.00     0.000 A 
HETATM   38  C   UNL     1      44.608 -10.137  10.639  1.00  0.00     0.002 A 
HETATM   39  C   UNL     1      43.695 -10.651   9.714  1.00  0.00     0.029 A 
ENDBRANCH  32  34
ENDBRANCH   1  32
TORSDOF 7
ENDMDL
MODEL 9
REMARK VINA RESULT:      -8.0      2.631      4.824
REMARK  7 active torsions:
REMARK  status: ('A' for Active; 'I' for Inactive)
REMARK    1  A    between atoms: C_7  and  C_8 
REMARK    2  A    between atoms: C_8  and  C_9 
REMARK    3  A    between atoms: C_9  and  N_10 
REMARK    4  A    between atoms: N_10  and  C_11 
REMARK    5  A    between atoms: C_11  and  N_12 
REMARK    6  A    between atoms: N_12  and  C_13 
REMARK    7  A    between atoms: C_30  and  C_31 
ROOT
HETATM    1  C   UNL     1      40.497 -11.748   5.415  1.00  0.00     0.123 C 
HETATM    2  C   UNL     1      40.053 -10.866   4.467  1.00  0.00     0.144 C 
HETATM    3  C   UNL     1      39.204 -11.318   3.335  1.00  0.00     0.270 C 
HETATM    4  O   UNL     1      39.068 -12.509   3.052  1.00  0.00    -0.267 OA
HETATM    5  N   UNL     1      38.594 -10.314   2.605  1.00  0.00    -0.270 N 
HETATM    6  C   UNL     1      37.621 -10.713   1.603  1.00  0.00     0.164 C 
HETATM    7  C   UNL     1      39.017  -8.997   2.578  1.00  0.00     0.333 C 
HETATM    8  O   UNL     1      38.541  -8.184   1.782  1.00  0.00    -0.246 OA
HETATM    9  N   UNL     1      39.998  -8.639   3.484  1.00  0.00    -0.270 N 
HETATM   10  C   UNL     1      40.428  -7.251   3.488  1.00  0.00     0.164 C 
HETATM   11  C   UNL     1      40.406  -9.423   4.547  1.00  0.00     0.270 C 
HETATM   12  O   UNL     1      40.996  -8.950   5.522  1.00  0.00    -0.267 OA
ENDROOT
BRANCH   1  13
HETATM   13  N   UNL     1      40.089 -13.087   5.405  1.00  0.00    -0.375 N 
HETATM   14  H   UNL     1      39.274 -13.269   6.000  1.00  0.00     0.161 HD
BRANCH  13  15
HETATM   15  C   UNL     1      41.021 -14.213   5.313  1.00  0.00     0.126 C 
BRANCH  15  16
HETATM   16  C   UNL     1      41.776 -14.231   3.976  1.00  0.00     0.061 C 
BRANCH  16  17
HETATM   17  C   UNL     1      42.005 -15.614   3.432  1.00  0.00    -0.022 A 
HETATM   18  C   UNL     1      41.339 -16.199   2.366  1.00  0.00     0.013 A 
HETATM   19  C   UNL     1      40.260 -15.678   1.486  1.00  0.00     0.068 C 
HETATM   20  N   UNL     1      41.852 -17.460   2.192  1.00  0.00    -0.358 N 
HETATM   21  H   UNL     1      41.550 -18.116   1.482  1.00  0.00     0.166 HD
HETATM   22  C   UNL     1      42.822 -17.727   3.133  1.00  0.00     0.058 A 
HETATM   23  C   UNL     1      42.931 -16.589   3.932  1.00  0.00    -0.000 A 
HETATM   24  C   UNL     1      43.597 -18.889   3.329  1.00  0.00     0.075 A 
HETATM   25  C   UNL     1      43.853 -16.604   4.996  1.00  0.00     0.014 A 
HETATM   26  C   UNL     1      44.638 -17.737   5.220  1.00  0.00     0.002 A 
HETATM   27  C   UNL     1      44.514 -18.855   4.400  1.00  0.00     0.018 A 
BRANCH  24  28
HETATM   28  C   UNL     1      43.507 -20.120   2.463  1.00  0.00     0.419 C 
HETATM   29  F   UNL     1      42.290 -20.273   1.866  1.00  0.00    -0.166 F 
HETATM   30  F   UNL     1      44.417 -20.113   1.450  1.00  0.00    -0.166 F 
HETATM   31  F   UNL     1      43.728 -21.272   3.156  1.00  0.00    -0.166 F 
ENDBRANCH  24  28
ENDBRANCH  16  17
ENDBRANCH  15  16
ENDBRANCH  13  15
ENDBRANCH   1  13
BRANCH   1  32
HETATM   32  N   UNL     1      41.327 -11.332   6.463  1.00  0.00    -0.342 N 
HETATM   33  H   UNL     1      41.008 -10.450   6.886  1.00  0.00     0.167 HD
BRANCH  32  34
HETATM   34  C   UNL     1      42.747 -11.311   6.430  1.00  0.00     0.033 A 
HETATM   35  C   UNL     1      43.504 -11.490   5.267  1.00  0.00     0.029 A 
HETATM   36  C   UNL     1      44.902 -11.489   5.310  1.00  0.00     0.002 A 
HETATM   37  C   UNL     1      45.564 -11.322   6.524  1.00  0.00     0.000 A 
HETATM   38  C   UNL     1      44.829 -11.161   7.695  1.00  0.00     0.002 A 
HETATM   39  C   UNL     1      43.432 -11.161   7.647  1.00  0.00     0.029 A 
ENDBRANCH  32  34
ENDBRANCH   1  32
TORSDOF 7
ENDMDL
MODEL 10
REMARK VINA RESULT:      -8.0      4.486      8.304
REMARK  7 active torsions:
REMARK  status: ('A' for Active; 'I' for Inactive)
REMARK    1  A    between atoms: C_7  and  C_8 
REMARK    2  A    between atoms: C_8  and  C_9 
REMARK    3  A    between atoms: C_9  and  N_10 
REMARK    4  A    between atoms: N_10  and  C_11 
REMARK    5  A    between atoms: C_11  and  N_12 
REMARK    6  A    between atoms: N_12  and  C_13 
REMARK    7  A    between atoms: C_30  and  C_31 
ROOT
HETATM    1  C   UNL     1      43.011 -12.225   5.875  1.00  0.00     0.123 C 
HETATM    2  C   UNL     1      43.055 -13.466   5.297  1.00  0.00     0.144 C 
HETATM    3  C   UNL     1      42.866 -13.638   3.833  1.00  0.00     0.270 C 
HETATM    4  O   UNL     1      42.422 -12.738   3.119  1.00  0.00    -0.267 OA
HETATM    5  N   UNL     1      43.200 -14.881   3.329  1.00  0.00    -0.270 N 
HETATM    6  C   UNL     1      43.197 -15.039   1.885  1.00  0.00     0.164 C 
HETATM    7  C   UNL     1      43.287 -16.037   4.084  1.00  0.00     0.333 C 
HETATM    8  O   UNL     1      43.422 -17.143   3.557  1.00  0.00    -0.246 OA
HETATM    9  N   UNL     1      43.214 -15.890   5.458  1.00  0.00    -0.270 N 
HETATM   10  C   UNL     1      43.337 -17.092   6.264  1.00  0.00     0.164 C 
HETATM   11  C   UNL     1      43.297 -14.680   6.121  1.00  0.00     0.270 C 
HETATM   12  O   UNL     1      43.590 -14.607   7.317  1.00  0.00    -0.267 OA
ENDROOT
BRANCH   1  13
HETATM   13  N   UNL     1      42.884 -11.068   5.097  1.00  0.00    -0.375 N 
HETATM   14  H   UNL     1      43.706 -10.457   5.140  1.00  0.00     0.161 HD
BRANCH  13  15
HETATM   15  C   UNL     1      41.619 -10.354   4.918  1.00  0.00     0.126 C 
BRANCH  15  16
HETATM   16  C   UNL     1      41.632  -8.976   5.596  1.00  0.00     0.061 C 
BRANCH  16  17
HETATM   17  C   UNL     1      41.282  -9.021   7.058  1.00  0.00    -0.022 A 
HETATM   18  C   UNL     1      40.290  -9.793   7.644  1.00  0.00     0.013 A 
HETATM   19  C   UNL     1      39.323 -10.752   7.049  1.00  0.00     0.068 C 
HETATM   20  N   UNL     1      40.307  -9.544   8.992  1.00  0.00    -0.358 N 
HETATM   21  H   UNL     1      39.687  -9.972   9.669  1.00  0.00     0.166 HD
HETATM   22  C   UNL     1      41.270  -8.610   9.305  1.00  0.00     0.058 A 
HETATM   23  C   UNL     1      41.890  -8.255   8.108  1.00  0.00    -0.000 A 
HETATM   24  C   UNL     1      41.624  -8.058  10.555  1.00  0.00     0.075 A 
HETATM   25  C   UNL     1      42.915  -7.290   8.144  1.00  0.00     0.014 A 
HETATM   26  C   UNL     1      43.293  -6.723   9.363  1.00  0.00     0.002 A 
HETATM   27  C   UNL     1      42.662  -7.104  10.544  1.00  0.00     0.018 A 
BRANCH  24  28
HETATM   28  C   UNL     1      40.979  -8.444  11.861  1.00  0.00     0.419 C 
HETATM   29  F   UNL     1      39.634  -8.211  11.889  1.00  0.00    -0.166 F 
HETATM   30  F   UNL     1      41.130  -9.766  12.147  1.00  0.00    -0.166 F 
HETATM   31  F   UNL     1      41.494  -7.769  12.927  1.00  0.00    -0.166 F 
ENDBRANCH  24  28
ENDBRANCH  16  17
ENDBRANCH  15  16
ENDBRANCH  13  15
ENDBRANCH   1  13
BRANCH   1  32
HETATM   32  N   UNL     1      43.153 -12.063   7.259  1.00  0.00    -0.342 N 
HETATM   33  H   UNL     1      42.247 -11.982   7.737  1.00  0.00     0.167 HD
BRANCH  32  34
HETATM   34  C   UNL     1      44.063 -11.174   7.894  1.00  0.00     0.033 A 
HETATM   35  C   UNL     1      45.144 -10.568   7.244  1.00  0.00     0.029 A 
HETATM   36  C   UNL     1      46.020  -9.726   7.938  1.00  0.00     0.002 A 
HETATM   37  C   UNL     1      45.833  -9.490   9.297  1.00  0.00     0.000 A 
HETATM   38  C   UNL     1      44.774 -10.097   9.965  1.00  0.00     0.002 A 
HETATM   39  C   UNL     1      43.900 -10.938   9.269  1.00  0.00     0.029 A 
ENDBRANCH  32  34
ENDBRANCH   1  32
TORSDOF 7
ENDMDL
