MODEL 1
REMARK VINA RESULT:      -7.9      0.000      0.000
REMARK  8 active torsions:
REMARK  status: ('A' for Active; 'I' for Inactive)
REMARK    1  A    between atoms: O_2  and  C_3 
REMARK    2  A    between atoms: C_5  and  O_6 
REMARK    3  A    between atoms: C_8  and  N_9 
REMARK       I    between atoms: N_9  and  C_10 
REMARK    4  A    between atoms: C_10  and  C_11 
REMARK    5  A    between atoms: C_11  and  N_12 
REMARK    6  A    between atoms: N_12  and  C_13 
REMARK    7  A    between atoms: C_14  and  N_15 
REMARK    8  A    between atoms: C_23  and  C_24 
ROOT
HETATM    1  N   UNL     1      40.018 -12.016   2.435  1.00  0.00    -0.282 NA
HETATM    2  H   UNL     1      40.993 -12.166   2.727  1.00  0.00     0.128 HD
ENDROOT
BRANCH   1   3
HETATM    3  C   UNL     1      39.090 -12.296   3.535  1.00  0.00     0.195 C 
BRANCH   3   4
HETATM    4  C   UNL     1      39.829 -12.361   4.877  1.00  0.00     0.235 C 
HETATM    5  N   UNL     1      41.178 -12.077   4.764  1.00  0.00    -0.324 N 
HETATM    6  H   UNL     1      41.580 -12.074   3.829  1.00  0.00     0.169 HD
HETATM    7  O   UNL     1      39.228 -12.627   5.916  1.00  0.00    -0.272 OA
BRANCH   5   8
HETATM    8  C   UNL     1      42.097 -11.799   5.800  1.00  0.00     0.068 A 
HETATM    9  C   UNL     1      42.985 -12.827   6.177  1.00  0.00     0.097 A 
HETATM   10  C   UNL     1      43.960 -12.578   7.151  1.00  0.00     0.075 A 
HETATM   11  C   UNL     1      44.067 -11.320   7.750  1.00  0.00     0.070 A 
HETATM   12  C   UNL     1      43.173 -10.313   7.393  1.00  0.00     0.039 A 
HETATM   13  C   UNL     1      42.196 -10.553   6.422  1.00  0.00     0.035 A 
BRANCH   9  14
HETATM   14  O   UNL     1      42.825 -14.024   5.517  1.00  0.00    -0.354 OA
HETATM   15  C   UNL     1      43.537 -15.143   6.035  1.00  0.00     0.210 C 
ENDBRANCH   9  14
BRANCH  11  16
HETATM   16  O   UNL     1      45.078 -11.203   8.665  1.00  0.00    -0.356 OA
HETATM   17  C   UNL     1      45.388  -9.888   9.110  1.00  0.00     0.210 C 
ENDBRANCH  11  16
ENDBRANCH   5   8
ENDBRANCH   3   4
ENDBRANCH   1   3
BRANCH   1  18
HETATM   18  C   UNL     1      39.858 -12.810   1.263  1.00  0.00     0.036 A 
HETATM   19  C   UNL     1      40.550 -14.056   1.173  1.00  0.00     0.051 A 
HETATM   20  C   UNL     1      40.329 -14.844   0.033  1.00  0.00     0.032 A 
HETATM   21  C   UNL     1      39.512 -14.412  -1.015  1.00  0.00     0.018 A 
HETATM   22  C   UNL     1      38.896 -13.159  -0.962  1.00  0.00     0.049 A 
HETATM   23  C   UNL     1      39.089 -12.362   0.175  1.00  0.00     0.042 A 
BRANCH  19  24
HETATM   24  N   UNL     1      41.376 -14.479   2.228  1.00  0.00    -0.379 N 
HETATM   25  C   UNL     1      41.011 -15.656   3.029  1.00  0.00     0.123 C 
HETATM   26  C   UNL     1      41.711 -16.931   2.551  1.00  0.00     0.020 C 
HETATM   27  C   UNL     1      43.216 -16.726   2.413  1.00  0.00     0.003 C 
HETATM   28  C   UNL     1      43.508 -15.527   1.518  1.00  0.00     0.020 C 
HETATM   29  C   UNL     1      42.823 -14.266   2.041  1.00  0.00     0.123 C 
ENDBRANCH  19  24
BRANCH  22  30
HETATM   30  C   UNL     1      38.004 -12.678  -2.076  1.00  0.00     0.417 C 
HETATM   31  F   UNL     1      37.147 -11.687  -1.700  1.00  0.00    -0.166 F 
HETATM   32  F   UNL     1      38.713 -12.177  -3.127  1.00  0.00    -0.166 F 
HETATM   33  F   UNL     1      37.223 -13.667  -2.593  1.00  0.00    -0.166 F 
ENDBRANCH  22  30
ENDBRANCH   1  18
TORSDOF 8
ENDMDL
MODEL 2
REMARK VINA RESULT:      -7.8      4.890      8.279
REMARK  8 active torsions:
REMARK  status: ('A' for Active; 'I' for Inactive)
REMARK    1  A    between atoms: O_2  and  C_3 
REMARK    2  A    between atoms: C_5  and  O_6 
REMARK    3  A    between atoms: C_8  and  N_9 
REMARK       I    between atoms: N_9  and  C_10 
REMARK    4  A    between atoms: C_10  and  C_11 
REMARK    5  A    between atoms: C_11  and  N_12 
REMARK    6  A    between atoms: N_12  and  C_13 
REMARK    7  A    between atoms: C_14  and  N_15 
REMARK    8  A    between atoms: C_23  and  C_24 
ROOT
HETATM    1  N   UNL     1      42.931 -11.225   2.853  1.00  0.00    -0.282 NA
HETATM    2  H   UNL     1      43.772 -10.659   2.677  1.00  0.00     0.128 HD
ENDROOT
BRANCH   1   3
HETATM    3  C   UNL     1      41.724 -10.392   2.831  1.00  0.00     0.195 C 
BRANCH   3   4
HETATM    4  C   UNL     1      40.841 -10.733   1.625  1.00  0.00     0.235 C 
HETATM    5  N   UNL     1      41.437 -11.627   0.755  1.00  0.00    -0.324 N 
HETATM    6  H   UNL     1      42.434 -11.794   0.865  1.00  0.00     0.169 HD
HETATM    7  O   UNL     1      39.719 -10.243   1.505  1.00  0.00    -0.272 OA
BRANCH   5   8
HETATM    8  C   UNL     1      40.834 -12.346  -0.301  1.00  0.00     0.068 A 
HETATM    9  C   UNL     1      40.979 -11.832  -1.606  1.00  0.00     0.097 A 
HETATM   10  C   UNL     1      40.459 -12.545  -2.693  1.00  0.00     0.075 A 
HETATM   11  C   UNL     1      39.802 -13.763  -2.501  1.00  0.00     0.070 A 
HETATM   12  C   UNL     1      39.639 -14.257  -1.209  1.00  0.00     0.039 A 
HETATM   13  C   UNL     1      40.155 -13.552  -0.116  1.00  0.00     0.035 A 
BRANCH   9  14
HETATM   14  O   UNL     1      41.662 -10.641  -1.704  1.00  0.00    -0.354 OA
HETATM   15  C   UNL     1      40.946  -9.532  -2.238  1.00  0.00     0.210 C 
ENDBRANCH   9  14
BRANCH  11  16
HETATM   16  O   UNL     1      39.365 -14.368  -3.649  1.00  0.00    -0.356 OA
HETATM   17  C   UNL     1      37.999 -14.765  -3.682  1.00  0.00     0.210 C 
ENDBRANCH  11  16
ENDBRANCH   5   8
ENDBRANCH   3   4
ENDBRANCH   1   3
BRANCH   1  18
HETATM   18  C   UNL     1      43.195 -11.912   4.072  1.00  0.00     0.036 A 
HETATM   19  C   UNL     1      42.873 -13.300   4.167  1.00  0.00     0.051 A 
HETATM   20  C   UNL     1      43.197 -13.966   5.359  1.00  0.00     0.032 A 
HETATM   21  C   UNL     1      43.759 -13.294   6.449  1.00  0.00     0.018 A 
HETATM   22  C   UNL     1      44.003 -11.920   6.384  1.00  0.00     0.049 A 
HETATM   23  C   UNL     1      43.703 -11.238   5.196  1.00  0.00     0.042 A 
BRANCH  19  24
HETATM   24  N   UNL     1      42.300 -13.966   3.070  1.00  0.00    -0.379 N 
HETATM   25  C   UNL     1      43.150 -14.702   2.123  1.00  0.00     0.123 C 
HETATM   26  C   UNL     1      43.216 -16.199   2.437  1.00  0.00     0.020 C 
HETATM   27  C   UNL     1      41.825 -16.798   2.605  1.00  0.00     0.003 C 
HETATM   28  C   UNL     1      41.033 -16.016   3.648  1.00  0.00     0.020 C 
HETATM   29  C   UNL     1      40.957 -14.534   3.288  1.00  0.00     0.123 C 
ENDBRANCH  19  24
BRANCH  22  30
HETATM   30  C   UNL     1      44.617 -11.179   7.543  1.00  0.00     0.417 C 
HETATM   31  F   UNL     1      45.961 -11.367   7.661  1.00  0.00    -0.166 F 
HETATM   32  F   UNL     1      44.437  -9.831   7.448  1.00  0.00    -0.166 F 
HETATM   33  F   UNL     1      44.084 -11.541   8.743  1.00  0.00    -0.166 F 
ENDBRANCH  22  30
ENDBRANCH   1  18
TORSDOF 8
ENDMDL
MODEL 3
REMARK VINA RESULT:      -7.7      3.225      4.503
REMARK  8 active torsions:
REMARK  status: ('A' for Active; 'I' for Inactive)
REMARK    1  A    between atoms: O_2  and  C_3 
REMARK    2  A    between atoms: C_5  and  O_6 
REMARK    3  A    between atoms: C_8  and  N_9 
REMARK       I    between atoms: N_9  and  C_10 
REMARK    4  A    between atoms: C_10  and  C_11 
REMARK    5  A    between atoms: C_11  and  N_12 
REMARK    6  A    between atoms: N_12  and  C_13 
REMARK    7  A    between atoms: C_14  and  N_15 
REMARK    8  A    between atoms: C_23  and  C_24 
ROOT
HETATM    1  N   UNL     1      39.032 -14.005   2.888  1.00  0.00    -0.282 NA
HETATM    2  H   UNL     1      38.386 -14.031   2.087  1.00  0.00     0.128 HD
ENDROOT
BRANCH   1   3
HETATM    3  C   UNL     1      39.180 -12.639   3.399  1.00  0.00     0.195 C 
BRANCH   3   4
HETATM    4  C   UNL     1      39.912 -12.632   4.746  1.00  0.00     0.235 C 
HETATM    5  N   UNL     1      41.234 -12.238   4.640  1.00  0.00    -0.324 N 
HETATM    6  H   UNL     1      41.641 -12.210   3.708  1.00  0.00     0.169 HD
HETATM    7  O   UNL     1      39.328 -12.938   5.784  1.00  0.00    -0.272 OA
BRANCH   5   8
HETATM    8  C   UNL     1      42.119 -11.877   5.679  1.00  0.00     0.068 A 
HETATM    9  C   UNL     1      42.855 -12.908   6.298  1.00  0.00     0.097 A 
HETATM   10  C   UNL     1      43.796 -12.592   7.286  1.00  0.00     0.075 A 
HETATM   11  C   UNL     1      44.019 -11.265   7.663  1.00  0.00     0.070 A 
HETATM   12  C   UNL     1      43.274 -10.250   7.068  1.00  0.00     0.039 A 
HETATM   13  C   UNL     1      42.331 -10.556   6.080  1.00  0.00     0.035 A 
BRANCH   9  14
HETATM   14  O   UNL     1      42.590 -14.182   5.847  1.00  0.00    -0.354 OA
HETATM   15  C   UNL     1      42.040 -15.095   6.790  1.00  0.00     0.210 C 
ENDBRANCH   9  14
BRANCH  11  16
HETATM   16  O   UNL     1      44.983 -11.093   8.619  1.00  0.00    -0.356 OA
HETATM   17  C   UNL     1      45.495  -9.775   8.780  1.00  0.00     0.210 C 
ENDBRANCH  11  16
ENDBRANCH   5   8
ENDBRANCH   3   4
ENDBRANCH   1   3
BRANCH   1  18
HETATM   18  C   UNL     1      40.223 -14.632   2.421  1.00  0.00     0.036 A 
HETATM   19  C   UNL     1      40.666 -14.367   1.089  1.00  0.00     0.051 A 
HETATM   20  C   UNL     1      41.873 -14.952   0.675  1.00  0.00     0.032 A 
HETATM   21  C   UNL     1      42.596 -15.815   1.503  1.00  0.00     0.018 A 
HETATM   22  C   UNL     1      42.123 -16.135   2.778  1.00  0.00     0.049 A 
HETATM   23  C   UNL     1      40.928 -15.548   3.219  1.00  0.00     0.042 A 
BRANCH  19  24
HETATM   24  N   UNL     1      39.929 -13.505   0.260  1.00  0.00    -0.379 N 
HETATM   25  C   UNL     1      40.353 -12.110   0.076  1.00  0.00     0.123 C 
HETATM   26  C   UNL     1      41.181 -11.913  -1.196  1.00  0.00     0.020 C 
HETATM   27  C   UNL     1      40.486 -12.507  -2.416  1.00  0.00     0.003 C 
HETATM   28  C   UNL     1      40.136 -13.971  -2.166  1.00  0.00     0.020 C 
HETATM   29  C   UNL     1      39.282 -14.129  -0.910  1.00  0.00     0.123 C 
ENDBRANCH  19  24
BRANCH  22  30
HETATM   30  C   UNL     1      42.892 -17.055   3.690  1.00  0.00     0.417 C 
HETATM   31  F   UNL     1      42.170 -17.489   4.761  1.00  0.00    -0.166 F 
HETATM   32  F   UNL     1      43.320 -18.179   3.049  1.00  0.00    -0.166 F 
HETATM   33  F   UNL     1      44.010 -16.473   4.206  1.00  0.00    -0.166 F 
ENDBRANCH  22  30
ENDBRANCH   1  18
TORSDOF 8
ENDMDL
MODEL 4
REMARK VINA RESULT:      -7.7      4.840      7.775
REMARK  8 active torsions:
REMARK  status: ('A' for Active; 'I' for Inactive)
REMARK    1  A    between atoms: O_2  and  C_3 
REMARK    2  A    between atoms: C_5  and  O_6 
REMARK    3  A    between atoms: C_8  and  N_9 
REMARK       I    between atoms: N_9  and  C_10 
REMARK    4  A    between atoms: C_10  and  C_11 
REMARK    5  A    between atoms: C_11  and  N_12 
REMARK    6  A    between atoms: N_12  and  C_13 
REMARK    7  A    between atoms: C_14  and  N_15 
REMARK    8  A    between atoms: C_23  and  C_24 
ROOT
HETATM    1  N   UNL     1      42.101 -14.489   0.788  1.00  0.00    -0.282 NA
HETATM    2  H   UNL     1      42.451 -13.526   0.884  1.00  0.00     0.128 HD
ENDROOT
BRANCH   1   3
HETATM    3  C   UNL     1      40.660 -14.500   0.519  1.00  0.00     0.195 C 
BRANCH   3   4
HETATM    4  C   UNL     1      40.200 -13.163  -0.076  1.00  0.00     0.235 C 
HETATM    5  N   UNL     1      41.241 -12.422  -0.606  1.00  0.00    -0.324 N 
HETATM    6  H   UNL     1      42.188 -12.706  -0.367  1.00  0.00     0.169 HD
HETATM    7  O   UNL     1      39.013 -12.843  -0.068  1.00  0.00    -0.272 OA
BRANCH   5   8
HETATM    8  C   UNL     1      41.161 -11.287  -1.443  1.00  0.00     0.068 A 
HETATM    9  C   UNL     1      41.584 -10.052  -0.909  1.00  0.00     0.097 A 
HETATM   10  C   UNL     1      41.590  -8.912  -1.721  1.00  0.00     0.075 A 
HETATM   11  C   UNL     1      41.185  -8.983  -3.058  1.00  0.00     0.070 A 
HETATM   12  C   UNL     1      40.745 -10.199  -3.575  1.00  0.00     0.039 A 
HETATM   13  C   UNL     1      40.736 -11.344  -2.772  1.00  0.00     0.035 A 
BRANCH   9  14
HETATM   14  O   UNL     1      41.990 -10.079   0.406  1.00  0.00    -0.354 OA
HETATM   15  C   UNL     1      41.056  -9.616   1.376  1.00  0.00     0.210 C 
ENDBRANCH   9  14
BRANCH  11  16
HETATM   16  O   UNL     1      41.264  -7.803  -3.746  1.00  0.00    -0.356 OA
HETATM   17  C   UNL     1      42.486  -7.082  -3.638  1.00  0.00     0.210 C 
ENDBRANCH  11  16
ENDBRANCH   5   8
ENDBRANCH   3   4
ENDBRANCH   1   3
BRANCH   1  18
HETATM   18  C   UNL     1      42.521 -15.154   1.976  1.00  0.00     0.036 A 
HETATM   19  C   UNL     1      42.602 -14.410   3.193  1.00  0.00     0.051 A 
HETATM   20  C   UNL     1      42.963 -15.103   4.359  1.00  0.00     0.032 A 
HETATM   21  C   UNL     1      43.294 -16.461   4.336  1.00  0.00     0.018 A 
HETATM   22  C   UNL     1      43.289 -17.171   3.134  1.00  0.00     0.049 A 
HETATM   23  C   UNL     1      42.916 -16.503   1.958  1.00  0.00     0.042 A 
BRANCH  19  24
HETATM   24  N   UNL     1      42.275 -13.044   3.205  1.00  0.00    -0.379 N 
HETATM   25  C   UNL     1      41.122 -12.564   3.980  1.00  0.00     0.123 C 
HETATM   26  C   UNL     1      41.523 -12.030   5.358  1.00  0.00     0.020 C 
HETATM   27  C   UNL     1      42.658 -11.018   5.258  1.00  0.00     0.003 C 
HETATM   28  C   UNL     1      43.837 -11.615   4.496  1.00  0.00     0.020 C 
HETATM   29  C   UNL     1      43.410 -12.107   3.114  1.00  0.00     0.123 C 
ENDBRANCH  19  24
BRANCH  22  30
HETATM   30  C   UNL     1      43.634 -18.637   3.088  1.00  0.00     0.417 C 
HETATM   31  F   UNL     1      44.862 -18.893   2.557  1.00  0.00    -0.166 F 
HETATM   32  F   UNL     1      43.638 -19.206   4.327  1.00  0.00    -0.166 F 
HETATM   33  F   UNL     1      42.751 -19.363   2.349  1.00  0.00    -0.166 F 
ENDBRANCH  22  30
ENDBRANCH   1  18
TORSDOF 8
ENDMDL
MODEL 5
REMARK VINA RESULT:      -7.6      2.134      3.304
REMARK  8 active torsions:
REMARK  status: ('A' for Active; 'I' for Inactive)
REMARK    1  A    between atoms: O_2  and  C_3 
REMARK    2  A    between atoms: C_5  and  O_6 
REMARK    3  A    between atoms: C_8  and  N_9 
REMARK       I    between atoms: N_9  and  C_10 
REMARK    4  A    between atoms: C_10  and  C_11 
REMARK    5  A    between atoms: C_11  and  N_12 
REMARK    6  A    between atoms: N_12  and  C_13 
REMARK    7  A    between atoms: C_14  and  N_15 
REMARK    8  A    between atoms: C_23  and  C_24 
ROOT
HETATM    1  N   UNL     1      41.037 -11.922   3.077  1.00  0.00    -0.282 NA
HETATM    2  H   UNL     1      40.204 -11.344   2.904  1.00  0.00     0.128 HD
ENDROOT
BRANCH   1   3
HETATM    3  C   UNL     1      42.248 -11.263   2.576  1.00  0.00     0.195 C 
BRANCH   3   4
HETATM    4  C   UNL     1      43.289 -11.102   3.689  1.00  0.00     0.235 C 
HETATM    5  N   UNL     1      42.742 -10.655   4.878  1.00  0.00    -0.324 N 
HETATM    6  H   UNL     1      41.798 -10.279   4.848  1.00  0.00     0.169 HD
HETATM    7  O   UNL     1      44.472 -11.373   3.492  1.00  0.00    -0.272 OA
BRANCH   5   8
HETATM    8  C   UNL     1      43.341 -10.636   6.158  1.00  0.00     0.068 A 
HETATM    9  C   UNL     1      42.694  -9.899   7.170  1.00  0.00     0.097 A 
HETATM   10  C   UNL     1      43.211  -9.907   8.472  1.00  0.00     0.075 A 
HETATM   11  C   UNL     1      44.360 -10.643   8.781  1.00  0.00     0.070 A 
HETATM   12  C   UNL     1      45.010 -11.350   7.773  1.00  0.00     0.039 A 
HETATM   13  C   UNL     1      44.501 -11.348   6.470  1.00  0.00     0.035 A 
BRANCH   9  14
HETATM   14  O   UNL     1      41.557  -9.227   6.784  1.00  0.00    -0.354 OA
HETATM   15  C   UNL     1      41.138  -8.145   7.609  1.00  0.00     0.210 C 
ENDBRANCH   9  14
BRANCH  11  16
HETATM   16  O   UNL     1      44.743 -10.585  10.093  1.00  0.00    -0.356 OA
HETATM   17  C   UNL     1      43.714 -10.732  11.065  1.00  0.00     0.210 C 
ENDBRANCH  11  16
ENDBRANCH   5   8
ENDBRANCH   3   4
ENDBRANCH   1   3
BRANCH   1  18
HETATM   18  C   UNL     1      40.732 -13.190   2.505  1.00  0.00     0.036 A 
HETATM   19  C   UNL     1      40.873 -14.363   3.308  1.00  0.00     0.051 A 
HETATM   20  C   UNL     1      40.511 -15.593   2.738  1.00  0.00     0.032 A 
HETATM   21  C   UNL     1      40.084 -15.692   1.410  1.00  0.00     0.018 A 
HETATM   22  C   UNL     1      40.019 -14.556   0.601  1.00  0.00     0.049 A 
HETATM   23  C   UNL     1      40.360 -13.313   1.155  1.00  0.00     0.042 A 
BRANCH  19  24
HETATM   24  N   UNL     1      41.312 -14.255   4.639  1.00  0.00    -0.379 N 
HETATM   25  C   UNL     1      40.373 -14.473   5.749  1.00  0.00     0.123 C 
HETATM   26  C   UNL     1      40.442 -15.898   6.303  1.00  0.00     0.020 C 
HETATM   27  C   UNL     1      41.875 -16.306   6.624  1.00  0.00     0.003 C 
HETATM   28  C   UNL     1      42.768 -16.109   5.404  1.00  0.00     0.020 C 
HETATM   29  C   UNL     1      42.703 -14.670   4.897  1.00  0.00     0.123 C 
ENDBRANCH  19  24
BRANCH  22  30
HETATM   30  C   UNL     1      39.552 -14.639  -0.829  1.00  0.00     0.417 C 
HETATM   31  F   UNL     1      38.553 -13.763  -1.129  1.00  0.00    -0.166 F 
HETATM   32  F   UNL     1      40.554 -14.379  -1.716  1.00  0.00    -0.166 F 
HETATM   33  F   UNL     1      39.076 -15.872  -1.158  1.00  0.00    -0.166 F 
ENDBRANCH  22  30
ENDBRANCH   1  18
TORSDOF 8
ENDMDL
MODEL 6
REMARK VINA RESULT:      -7.6      4.657      7.919
REMARK  8 active torsions:
REMARK  status: ('A' for Active; 'I' for Inactive)
REMARK    1  A    between atoms: O_2  and  C_3 
REMARK    2  A    between atoms: C_5  and  O_6 
REMARK    3  A    between atoms: C_8  and  N_9 
REMARK       I    between atoms: N_9  and  C_10 
REMARK    4  A    between atoms: C_10  and  C_11 
REMARK    5  A    between atoms: C_11  and  N_12 
REMARK    6  A    between atoms: N_12  and  C_13 
REMARK    7  A    between atoms: C_14  and  N_15 
REMARK    8  A    between atoms: C_23  and  C_24 
ROOT
HETATM    1  N   UNL     1      40.375 -15.370   2.553  1.00  0.00    -0.282 NA
HETATM    2  H   UNL     1      39.585 -15.916   2.921  1.00  0.00     0.128 HD
ENDROOT
BRANCH   1   3
HETATM    3  C   UNL     1      40.314 -15.278   1.090  1.00  0.00     0.195 C 
BRANCH   3   4
HETATM    4  C   UNL     1      40.189 -13.819   0.635  1.00  0.00     0.235 C 
HETATM    5  N   UNL     1      40.999 -13.520  -0.445  1.00  0.00    -0.324 N 
HETATM    6  H   UNL     1      41.729 -14.187  -0.683  1.00  0.00     0.169 HD
HETATM    7  O   UNL     1      39.419 -13.045   1.200  1.00  0.00    -0.272 OA
BRANCH   5   8
HETATM    8  C   UNL     1      40.958 -12.375  -1.272  1.00  0.00     0.068 A 
HETATM    9  C   UNL     1      40.513 -12.545  -2.599  1.00  0.00     0.097 A 
HETATM   10  C   UNL     1      40.388 -11.429  -3.436  1.00  0.00     0.075 A 
HETATM   11  C   UNL     1      40.694 -10.147  -2.970  1.00  0.00     0.070 A 
HETATM   12  C   UNL     1      41.157  -9.986  -1.666  1.00  0.00     0.039 A 
HETATM   13  C   UNL     1      41.285 -11.094  -0.823  1.00  0.00     0.035 A 
BRANCH   9  14
HETATM   14  O   UNL     1      40.208 -13.836  -2.964  1.00  0.00    -0.354 OA
HETATM   15  C   UNL     1      38.835 -14.129  -3.202  1.00  0.00     0.210 C 
ENDBRANCH   9  14
BRANCH  11  16
HETATM   16  O   UNL     1      40.504  -9.144  -3.881  1.00  0.00    -0.356 OA
HETATM   17  C   UNL     1      41.497  -8.126  -3.926  1.00  0.00     0.210 C 
ENDBRANCH  11  16
ENDBRANCH   5   8
ENDBRANCH   3   4
ENDBRANCH   1   3
BRANCH   1  18
HETATM   18  C   UNL     1      41.537 -15.992   3.093  1.00  0.00     0.036 A 
HETATM   19  C   UNL     1      42.292 -15.300   4.089  1.00  0.00     0.051 A 
HETATM   20  C   UNL     1      43.399 -15.959   4.645  1.00  0.00     0.032 A 
HETATM   21  C   UNL     1      43.799 -17.225   4.206  1.00  0.00     0.018 A 
HETATM   22  C   UNL     1      43.108 -17.870   3.179  1.00  0.00     0.049 A 
HETATM   23  C   UNL     1      41.988 -17.237   2.620  1.00  0.00     0.042 A 
BRANCH  19  24
HETATM   24  N   UNL     1      41.887 -14.025   4.517  1.00  0.00    -0.379 N 
HETATM   25  C   UNL     1      41.840 -13.704   5.951  1.00  0.00     0.123 C 
HETATM   26  C   UNL     1      43.102 -12.984   6.433  1.00  0.00     0.020 C 
HETATM   27  C   UNL     1      43.437 -11.788   5.549  1.00  0.00     0.003 C 
HETATM   28  C   UNL     1      43.529 -12.217   4.088  1.00  0.00     0.020 C 
HETATM   29  C   UNL     1      42.242 -12.901   3.630  1.00  0.00     0.123 C 
ENDBRANCH  19  24
BRANCH  22  30
HETATM   30  C   UNL     1      43.516 -19.238   2.698  1.00  0.00     0.417 C 
HETATM   31  F   UNL     1      42.611 -19.815   1.859  1.00  0.00    -0.166 F 
HETATM   32  F   UNL     1      44.695 -19.215   2.015  1.00  0.00    -0.166 F 
HETATM   33  F   UNL     1      43.695 -20.123   3.717  1.00  0.00    -0.166 F 
ENDBRANCH  22  30
ENDBRANCH   1  18
TORSDOF 8
ENDMDL
MODEL 7
REMARK VINA RESULT:      -7.5      3.618      5.285
REMARK  8 active torsions:
REMARK  status: ('A' for Active; 'I' for Inactive)
REMARK    1  A    between atoms: O_2  and  C_3 
REMARK    2  A    between atoms: C_5  and  O_6 
REMARK    3  A    between atoms: C_8  and  N_9 
REMARK       I    between atoms: N_9  and  C_10 
REMARK    4  A    between atoms: C_10  and  C_11 
REMARK    5  A    between atoms: C_11  and  N_12 
REMARK    6  A    between atoms: N_12  and  C_13 
REMARK    7  A    between atoms: C_14  and  N_15 
REMARK    8  A    between atoms: C_23  and  C_24 
ROOT
HETATM    1  N   UNL     1      40.538 -15.545   4.918  1.00  0.00    -0.282 NA
HETATM    2  H   UNL     1      40.468 -14.521   4.853  1.00  0.00     0.128 HD
ENDROOT
BRANCH   1   3
HETATM    3  C   UNL     1      40.929 -15.961   6.268  1.00  0.00     0.195 C 
BRANCH   3   4
HETATM    4  C   UNL     1      42.064 -15.082   6.808  1.00  0.00     0.235 C 
HETATM    5  N   UNL     1      42.202 -13.893   6.114  1.00  0.00    -0.324 N 
HETATM    6  H   UNL     1      41.721 -13.812   5.222  1.00  0.00     0.169 HD
HETATM    7  O   UNL     1      42.738 -15.441   7.771  1.00  0.00    -0.272 OA
BRANCH   5   8
HETATM    8  C   UNL     1      42.954 -12.755   6.481  1.00  0.00     0.068 A 
HETATM    9  C   UNL     1      42.262 -11.536   6.629  1.00  0.00     0.097 A 
HETATM   10  C   UNL     1      42.951 -10.395   7.060  1.00  0.00     0.075 A 
HETATM   11  C   UNL     1      44.318 -10.452   7.349  1.00  0.00     0.070 A 
HETATM   12  C   UNL     1      45.004 -11.651   7.178  1.00  0.00     0.039 A 
HETATM   13  C   UNL     1      44.324 -12.796   6.749  1.00  0.00     0.035 A 
BRANCH   9  14
HETATM   14  O   UNL     1      40.915 -11.578   6.349  1.00  0.00    -0.354 OA
HETATM   15  C   UNL     1      40.347 -10.417   5.751  1.00  0.00     0.210 C 
ENDBRANCH   9  14
BRANCH  11  16
HETATM   16  O   UNL     1      44.862  -9.274   7.784  1.00  0.00    -0.356 OA
HETATM   17  C   UNL     1      46.198  -9.330   8.271  1.00  0.00     0.210 C 
ENDBRANCH  11  16
ENDBRANCH   5   8
ENDBRANCH   3   4
ENDBRANCH   1   3
BRANCH   1  18
HETATM   18  C   UNL     1      41.422 -15.922   3.866  1.00  0.00     0.036 A 
HETATM   19  C   UNL     1      41.596 -15.037   2.759  1.00  0.00     0.051 A 
HETATM   20  C   UNL     1      42.515 -15.406   1.765  1.00  0.00     0.032 A 
HETATM   21  C   UNL     1      43.200 -16.624   1.812  1.00  0.00     0.018 A 
HETATM   22  C   UNL     1      42.974 -17.524   2.855  1.00  0.00     0.049 A 
HETATM   23  C   UNL     1      42.071 -17.169   3.868  1.00  0.00     0.042 A 
BRANCH  19  24
HETATM   24  N   UNL     1      40.896 -13.819   2.716  1.00  0.00    -0.379 N 
HETATM   25  C   UNL     1      41.616 -12.545   2.863  1.00  0.00     0.123 C 
HETATM   26  C   UNL     1      41.945 -11.899   1.515  1.00  0.00     0.020 C 
HETATM   27  C   UNL     1      40.714 -11.807   0.621  1.00  0.00     0.003 C 
HETATM   28  C   UNL     1      40.065 -13.179   0.470  1.00  0.00     0.020 C 
HETATM   29  C   UNL     1      39.718 -13.780   1.830  1.00  0.00     0.123 C 
ENDBRANCH  19  24
BRANCH  22  30
HETATM   30  C   UNL     1      43.708 -18.838   2.929  1.00  0.00     0.417 C 
HETATM   31  F   UNL     1      43.235 -19.778   2.064  1.00  0.00    -0.166 F 
HETATM   32  F   UNL     1      45.035 -18.705   2.646  1.00  0.00    -0.166 F 
HETATM   33  F   UNL     1      43.648 -19.406   4.165  1.00  0.00    -0.166 F 
ENDBRANCH  22  30
ENDBRANCH   1  18
TORSDOF 8
ENDMDL
MODEL 8
REMARK VINA RESULT:      -7.4      3.632      5.766
REMARK  8 active torsions:
REMARK  status: ('A' for Active; 'I' for Inactive)
REMARK    1  A    between atoms: O_2  and  C_3 
REMARK    2  A    between atoms: C_5  and  O_6 
REMARK    3  A    between atoms: C_8  and  N_9 
REMARK       I    between atoms: N_9  and  C_10 
REMARK    4  A    between atoms: C_10  and  C_11 
REMARK    5  A    between atoms: C_11  and  N_12 
REMARK    6  A    between atoms: N_12  and  C_13 
REMARK    7  A    between atoms: C_14  and  N_15 
REMARK    8  A    between atoms: C_23  and  C_24 
ROOT
HETATM    1  N   UNL     1      40.779 -11.084   0.985  1.00  0.00    -0.282 NA
HETATM    2  H   UNL     1      39.821 -10.851   1.275  1.00  0.00     0.128 HD
ENDROOT
BRANCH   1   3
HETATM    3  C   UNL     1      41.760 -10.565   1.944  1.00  0.00     0.195 C 
BRANCH   3   4
HETATM    4  C   UNL     1      42.559 -11.705   2.586  1.00  0.00     0.235 C 
HETATM    5  N   UNL     1      41.887 -12.914   2.565  1.00  0.00    -0.324 N 
HETATM    6  H   UNL     1      40.894 -12.894   2.346  1.00  0.00     0.169 HD
HETATM    7  O   UNL     1      43.685 -11.509   3.041  1.00  0.00    -0.272 OA
BRANCH   5   8
HETATM    8  C   UNL     1      42.405 -14.201   2.829  1.00  0.00     0.068 A 
HETATM    9  C   UNL     1      42.340 -14.671   4.156  1.00  0.00     0.097 A 
HETATM   10  C   UNL     1      42.778 -15.968   4.455  1.00  0.00     0.075 A 
HETATM   11  C   UNL     1      43.273 -16.804   3.450  1.00  0.00     0.070 A 
HETATM   12  C   UNL     1      43.359 -16.329   2.144  1.00  0.00     0.039 A 
HETATM   13  C   UNL     1      42.924 -15.035   1.836  1.00  0.00     0.035 A 
BRANCH   9  14
HETATM   14  O   UNL     1      41.815 -13.791   5.075  1.00  0.00    -0.354 OA
HETATM   15  C   UNL     1      40.696 -14.243   5.830  1.00  0.00     0.210 C 
ENDBRANCH   9  14
BRANCH  11  16
HETATM   16  O   UNL     1      43.641 -18.053   3.872  1.00  0.00    -0.356 OA
HETATM   17  C   UNL     1      43.958 -19.001   2.860  1.00  0.00     0.210 C 
ENDBRANCH  11  16
ENDBRANCH   5   8
ENDBRANCH   3   4
ENDBRANCH   1   3
BRANCH   1  18
HETATM   18  C   UNL     1      40.890 -10.596  -0.349  1.00  0.00     0.036 A 
HETATM   19  C   UNL     1      40.209 -11.287  -1.397  1.00  0.00     0.051 A 
HETATM   20  C   UNL     1      40.288 -10.753  -2.692  1.00  0.00     0.032 A 
HETATM   21  C   UNL     1      41.053  -9.617  -2.974  1.00  0.00     0.018 A 
HETATM   22  C   UNL     1      41.781  -8.985  -1.964  1.00  0.00     0.049 A 
HETATM   23  C   UNL     1      41.704  -9.492  -0.659  1.00  0.00     0.042 A 
BRANCH  19  24
HETATM   24  N   UNL     1      39.449 -12.433  -1.105  1.00  0.00    -0.379 N 
HETATM   25  C   UNL     1      37.995 -12.433  -1.320  1.00  0.00     0.123 C 
HETATM   26  C   UNL     1      37.601 -13.050  -2.664  1.00  0.00     0.020 C 
HETATM   27  C   UNL     1      38.250 -14.414  -2.866  1.00  0.00     0.003 C 
HETATM   28  C   UNL     1      39.761 -14.315  -2.688  1.00  0.00     0.020 C 
HETATM   29  C   UNL     1      40.120 -13.728  -1.325  1.00  0.00     0.123 C 
ENDBRANCH  19  24
BRANCH  22  30
HETATM   30  C   UNL     1      42.605  -7.755  -2.245  1.00  0.00     0.417 C 
HETATM   31  F   UNL     1      43.818  -7.757  -1.627  1.00  0.00    -0.166 F 
HETATM   32  F   UNL     1      42.864  -7.599  -3.574  1.00  0.00    -0.166 F 
HETATM   33  F   UNL     1      41.988  -6.606  -1.850  1.00  0.00    -0.166 F 
ENDBRANCH  22  30
ENDBRANCH   1  18
TORSDOF 8
ENDMDL
MODEL 9
REMARK VINA RESULT:      -7.3      1.648      2.307
REMARK  8 active torsions:
REMARK  status: ('A' for Active; 'I' for Inactive)
REMARK    1  A    between atoms: O_2  and  C_3 
REMARK    2  A    between atoms: C_5  and  O_6 
REMARK    3  A    between atoms: C_8  and  N_9 
REMARK       I    between atoms: N_9  and  C_10 
REMARK    4  A    between atoms: C_10  and  C_11 
REMARK    5  A    between atoms: C_11  and  N_12 
REMARK    6  A    between atoms: N_12  and  C_13 
REMARK    7  A    between atoms: C_14  and  N_15 
REMARK    8  A    between atoms: C_23  and  C_24 
ROOT
HETATM    1  N   UNL     1      41.620 -11.825   1.414  1.00  0.00    -0.282 NA
HETATM    2  H   UNL     1      42.331 -12.243   2.029  1.00  0.00     0.128 HD
ENDROOT
BRANCH   1   3
HETATM    3  C   UNL     1      40.770 -10.888   2.156  1.00  0.00     0.195 C 
BRANCH   3   4
HETATM    4  C   UNL     1      41.487 -10.363   3.405  1.00  0.00     0.235 C 
HETATM    5  N   UNL     1      42.063 -11.370   4.159  1.00  0.00    -0.324 N 
HETATM    6  H   UNL     1      41.785 -12.326   3.955  1.00  0.00     0.169 HD
HETATM    7  O   UNL     1      41.527  -9.159   3.652  1.00  0.00    -0.272 OA
BRANCH   5   8
HETATM    8  C   UNL     1      42.998 -11.241   5.210  1.00  0.00     0.068 A 
HETATM    9  C   UNL     1      42.498 -10.953   6.496  1.00  0.00     0.097 A 
HETATM   10  C   UNL     1      43.379 -10.885   7.583  1.00  0.00     0.075 A 
HETATM   11  C   UNL     1      44.749 -11.104   7.409  1.00  0.00     0.070 A 
HETATM   12  C   UNL     1      45.243 -11.365   6.134  1.00  0.00     0.039 A 
HETATM   13  C   UNL     1      44.371 -11.435   5.041  1.00  0.00     0.035 A 
BRANCH   9  14
HETATM   14  O   UNL     1      41.136 -10.777   6.580  1.00  0.00    -0.354 OA
HETATM   15  C   UNL     1      40.680  -9.591   7.222  1.00  0.00     0.210 C 
ENDBRANCH   9  14
BRANCH  11  16
HETATM   16  O   UNL     1      45.492 -11.034   8.556  1.00  0.00    -0.356 OA
HETATM   17  C   UNL     1      45.482  -9.790   9.247  1.00  0.00     0.210 C 
ENDBRANCH  11  16
ENDBRANCH   5   8
ENDBRANCH   3   4
ENDBRANCH   1   3
BRANCH   1  18
HETATM   18  C   UNL     1      40.955 -12.932   0.813  1.00  0.00     0.036 A 
HETATM   19  C   UNL     1      41.054 -14.216   1.430  1.00  0.00     0.051 A 
HETATM   20  C   UNL     1      40.343 -15.277   0.849  1.00  0.00     0.032 A 
HETATM   21  C   UNL     1      39.608 -15.113  -0.329  1.00  0.00     0.018 A 
HETATM   22  C   UNL     1      39.573 -13.876  -0.975  1.00  0.00     0.049 A 
HETATM   23  C   UNL     1      40.263 -12.797  -0.403  1.00  0.00     0.042 A 
BRANCH  19  24
HETATM   24  N   UNL     1      41.803 -14.373   2.609  1.00  0.00    -0.379 N 
HETATM   25  C   UNL     1      41.134 -14.726   3.870  1.00  0.00     0.123 C 
HETATM   26  C   UNL     1      41.184 -16.229   4.159  1.00  0.00     0.020 C 
HETATM   27  C   UNL     1      42.602 -16.776   4.044  1.00  0.00     0.003 C 
HETATM   28  C   UNL     1      43.199 -16.421   2.686  1.00  0.00     0.020 C 
HETATM   29  C   UNL     1      43.165 -14.913   2.443  1.00  0.00     0.123 C 
ENDBRANCH  19  24
BRANCH  22  30
HETATM   30  C   UNL     1      38.780 -13.675  -2.240  1.00  0.00     0.417 C 
HETATM   31  F   UNL     1      38.715 -14.785  -3.027  1.00  0.00    -0.166 F 
HETATM   32  F   UNL     1      37.488 -13.321  -1.989  1.00  0.00    -0.166 F 
HETATM   33  F   UNL     1      39.288 -12.689  -3.030  1.00  0.00    -0.166 F 
ENDBRANCH  22  30
ENDBRANCH   1  18
TORSDOF 8
ENDMDL
MODEL 10
REMARK VINA RESULT:      -7.2      3.811      7.916
REMARK  8 active torsions:
REMARK  status: ('A' for Active; 'I' for Inactive)
REMARK    1  A    between atoms: O_2  and  C_3 
REMARK    2  A    between atoms: C_5  and  O_6 
REMARK    3  A    between atoms: C_8  and  N_9 
REMARK       I    between atoms: N_9  and  C_10 
REMARK    4  A    between atoms: C_10  and  C_11 
REMARK    5  A    between atoms: C_11  and  N_12 
REMARK    6  A    between atoms: N_12  and  C_13 
REMARK    7  A    between atoms: C_14  and  N_15 
REMARK    8  A    between atoms: C_23  and  C_24 
ROOT
HETATM    1  N   UNL     1      42.397 -11.898   3.894  1.00  0.00    -0.282 NA
HETATM    2  H   UNL     1      43.115 -11.170   4.005  1.00  0.00     0.128 HD
ENDROOT
BRANCH   1   3
HETATM    3  C   UNL     1      41.060 -11.364   4.170  1.00  0.00     0.195 C 
BRANCH   3   4
HETATM    4  C   UNL     1      40.024 -11.942   3.198  1.00  0.00     0.235 C 
HETATM    5  N   UNL     1      40.177 -11.473   1.906  1.00  0.00    -0.324 N 
HETATM    6  H   UNL     1      40.779 -10.666   1.768  1.00  0.00     0.169 HD
HETATM    7  O   UNL     1      39.179 -12.747   3.582  1.00  0.00    -0.272 OA
BRANCH   5   8
HETATM    8  C   UNL     1      39.582 -11.971   0.725  1.00  0.00     0.068 A 
HETATM    9  C   UNL     1      40.175 -13.097   0.119  1.00  0.00     0.097 A 
HETATM   10  C   UNL     1      39.581 -13.669  -1.013  1.00  0.00     0.075 A 
HETATM   11  C   UNL     1      38.403 -13.139  -1.547  1.00  0.00     0.070 A 
HETATM   12  C   UNL     1      37.833 -12.011  -0.962  1.00  0.00     0.039 A 
HETATM   13  C   UNL     1      38.418 -11.433   0.169  1.00  0.00     0.035 A 
BRANCH   9  14
HETATM   14  O   UNL     1      41.316 -13.568   0.727  1.00  0.00    -0.354 OA
HETATM   15  C   UNL     1      41.338 -14.950   1.070  1.00  0.00     0.210 C 
ENDBRANCH   9  14
BRANCH  11  16
HETATM   16  O   UNL     1      37.915 -13.807  -2.637  1.00  0.00    -0.356 OA
HETATM   17  C   UNL     1      38.559 -15.030  -2.976  1.00  0.00     0.210 C 
ENDBRANCH  11  16
ENDBRANCH   5   8
ENDBRANCH   3   4
ENDBRANCH   1   3
BRANCH   1  18
HETATM   18  C   UNL     1      42.827 -12.971   4.727  1.00  0.00     0.036 A 
HETATM   19  C   UNL     1      43.593 -12.674   5.896  1.00  0.00     0.051 A 
HETATM   20  C   UNL     1      43.954 -13.744   6.728  1.00  0.00     0.032 A 
HETATM   21  C   UNL     1      43.636 -15.067   6.408  1.00  0.00     0.018 A 
HETATM   22  C   UNL     1      42.953 -15.365   5.227  1.00  0.00     0.049 A 
HETATM   23  C   UNL     1      42.568 -14.310   4.387  1.00  0.00     0.042 A 
BRANCH  19  24
HETATM   24  N   UNL     1      43.916 -11.342   6.205  1.00  0.00    -0.379 N 
HETATM   25  C   UNL     1      43.182 -10.627   7.259  1.00  0.00     0.123 C 
HETATM   26  C   UNL     1      43.911 -10.656   8.604  1.00  0.00     0.020 C 
HETATM   27  C   UNL     1      45.364 -10.216   8.464  1.00  0.00     0.003 C 
HETATM   28  C   UNL     1      46.069 -11.048   7.398  1.00  0.00     0.020 C 
HETATM   29  C   UNL     1      45.336 -10.970   6.060  1.00  0.00     0.123 C 
ENDBRANCH  19  24
BRANCH  22  30
HETATM   30  C   UNL     1      42.592 -16.783   4.867  1.00  0.00     0.417 C 
HETATM   31  F   UNL     1      43.528 -17.406   4.098  1.00  0.00    -0.166 F 
HETATM   32  F   UNL     1      42.429 -17.570   5.968  1.00  0.00    -0.166 F 
HETATM   33  F   UNL     1      41.423 -16.869   4.173  1.00  0.00    -0.166 F 
ENDBRANCH  22  30
ENDBRANCH   1  18
TORSDOF 8
ENDMDL
