MODEL 1
REMARK VINA RESULT:      -9.0      0.000      0.000
REMARK  6 active torsions:
REMARK  status: ('A' for Active; 'I' for Inactive)
REMARK    1  A    between atoms: C_4  and  N_5 
REMARK    2  A    between atoms: C_7  and  C_8 
REMARK       I    between atoms: C_8  and  N_9 
REMARK    3  A    between atoms: N_9  and  N_10 
REMARK       I    between atoms: N_10  and  C_11 
REMARK    4  A    between atoms: C_11  and  C_12 
REMARK    5  A    between atoms: C_12  and  C_13 
REMARK    6  A    between atoms: C_22  and  O_23 
ROOT
HETATM    1  C   UNL     1      42.745 -13.257   6.655  1.00  0.00     0.293 C 
HETATM    2  N   UNL     1      43.513 -12.658   7.630  1.00  0.00    -0.262 N 
HETATM    3  O   UNL     1      41.931 -12.647   5.962  1.00  0.00    -0.264 OA
HETATM    4  H   UNL     1      44.222 -13.194   8.136  1.00  0.00     0.190 HD
ENDROOT
BRANCH   1   5
HETATM    5  C   UNL     1      42.984 -14.692   6.507  1.00  0.00     0.181 A 
HETATM    6  N   UNL     1      43.038 -15.304   5.309  1.00  0.00    -0.159 NA
HETATM    7  N   UNL     1      43.271 -16.622   5.594  1.00  0.00    -0.242 N 
HETATM    8  C   UNL     1      43.360 -16.837   6.952  1.00  0.00     0.158 A 
HETATM    9  C   UNL     1      43.183 -15.621   7.546  1.00  0.00     0.119 A 
BRANCH   7  10
HETATM   10  C   UNL     1      43.390 -17.580   4.547  1.00  0.00     0.058 A 
HETATM   11  C   UNL     1      44.008 -18.814   4.806  1.00  0.00     0.031 A 
HETATM   12  C   UNL     1      44.132 -19.766   3.792  1.00  0.00     0.002 A 
HETATM   13  C   UNL     1      43.644 -19.496   2.516  1.00  0.00     0.000 A 
HETATM   14  C   UNL     1      43.030 -18.274   2.251  1.00  0.00     0.002 A 
HETATM   15  C   UNL     1      42.901 -17.315   3.260  1.00  0.00     0.031 A 
ENDBRANCH   7  10
BRANCH   9  16
HETATM   16  O   UNL     1      43.207 -15.429   8.875  1.00  0.00    -0.357 OA
HETATM   17  H   UNL     1      42.337 -15.663   9.260  1.00  0.00     0.218 HD
ENDBRANCH   9  16
ENDBRANCH   1   5
BRANCH   2  18
HETATM   18  N   UNL     1      43.437 -11.279   7.836  1.00  0.00    -0.267 N 
HETATM   19  C   UNL     1      44.599 -10.606   8.159  1.00  0.00     0.240 C 
HETATM   20  O   UNL     1      45.671 -11.181   8.338  1.00  0.00    -0.272 OA
HETATM   21  H   UNL     1      42.601 -10.808   7.493  1.00  0.00     0.190 HD
BRANCH  19  22
HETATM   22  C   UNL     1      44.437  -9.103   8.273  1.00  0.00     0.143 C 
BRANCH  22  23
HETATM   23  C   UNL     1      43.932  -8.585   9.602  1.00  0.00    -0.049 A 
HETATM   24  C   UNL     1      44.159  -9.233  10.823  1.00  0.00     0.009 A 
HETATM   25  C   UNL     1      43.644  -8.713  12.016  1.00  0.00     0.019 A 
HETATM   26  C   UNL     1      42.892  -7.542  11.994  1.00  0.00     0.011 A 
HETATM   27 BR   UNL     1      42.188  -6.846  13.605  1.00  0.00    -0.051 Br
HETATM   28  C   UNL     1      42.647  -6.885  10.793  1.00  0.00     0.019 A 
HETATM   29  C   UNL     1      43.165  -7.406   9.603  1.00  0.00     0.009 A 
ENDBRANCH  22  23
ENDBRANCH  19  22
ENDBRANCH   2  18
TORSDOF 6
ENDMDL
MODEL 2
REMARK VINA RESULT:      -8.9      1.525      1.723
REMARK  6 active torsions:
REMARK  status: ('A' for Active; 'I' for Inactive)
REMARK    1  A    between atoms: C_4  and  N_5 
REMARK    2  A    between atoms: C_7  and  C_8 
REMARK       I    between atoms: C_8  and  N_9 
REMARK    3  A    between atoms: N_9  and  N_10 
REMARK       I    between atoms: N_10  and  C_11 
REMARK    4  A    between atoms: C_11  and  C_12 
REMARK    5  A    between atoms: C_12  and  C_13 
REMARK    6  A    between atoms: C_22  and  O_23 
ROOT
HETATM    1  C   UNL     1      42.550 -12.498   6.405  1.00  0.00     0.293 C 
HETATM    2  N   UNL     1      43.642 -12.605   7.239  1.00  0.00    -0.262 N 
HETATM    3  O   UNL     1      41.975 -11.435   6.173  1.00  0.00    -0.264 OA
HETATM    4  H   UNL     1      44.125 -13.499   7.351  1.00  0.00     0.190 HD
ENDROOT
BRANCH   1   5
HETATM    5  C   UNL     1      42.130 -13.765   5.808  1.00  0.00     0.181 A 
HETATM    6  N   UNL     1      42.996 -14.633   5.252  1.00  0.00    -0.159 NA
HETATM    7  N   UNL     1      42.223 -15.673   4.814  1.00  0.00    -0.242 N 
HETATM    8  C   UNL     1      40.890 -15.463   5.088  1.00  0.00     0.158 A 
HETATM    9  C   UNL     1      40.814 -14.256   5.722  1.00  0.00     0.119 A 
BRANCH   7  10
HETATM   10  C   UNL     1      42.816 -16.793   4.162  1.00  0.00     0.058 A 
HETATM   11  C   UNL     1      43.818 -17.525   4.819  1.00  0.00     0.031 A 
HETATM   12  C   UNL     1      44.408 -18.627   4.196  1.00  0.00     0.002 A 
HETATM   13  C   UNL     1      44.006 -19.005   2.917  1.00  0.00     0.000 A 
HETATM   14  C   UNL     1      43.013 -18.283   2.258  1.00  0.00     0.002 A 
HETATM   15  C   UNL     1      42.416 -17.179   2.875  1.00  0.00     0.031 A 
ENDBRANCH   7  10
BRANCH   9  16
HETATM   16  O   UNL     1      39.665 -13.711   6.152  1.00  0.00    -0.357 OA
HETATM   17  H   UNL     1      38.980 -14.406   6.243  1.00  0.00     0.218 HD
ENDBRANCH   9  16
ENDBRANCH   1   5
BRANCH   2  18
HETATM   18  N   UNL     1      44.192 -11.464   7.827  1.00  0.00    -0.267 N 
HETATM   19  C   UNL     1      45.376 -10.975   7.310  1.00  0.00     0.240 C 
HETATM   20  O   UNL     1      45.992 -11.542   6.410  1.00  0.00    -0.272 OA
HETATM   21  H   UNL     1      43.577 -10.911   8.423  1.00  0.00     0.190 HD
BRANCH  19  22
HETATM   22  C   UNL     1      45.848  -9.684   7.949  1.00  0.00     0.143 C 
BRANCH  22  23
HETATM   23  C   UNL     1      44.981  -9.132   9.061  1.00  0.00    -0.049 A 
HETATM   24  C   UNL     1      44.963  -9.655  10.360  1.00  0.00     0.009 A 
HETATM   25  C   UNL     1      44.120  -9.113  11.337  1.00  0.00     0.019 A 
HETATM   26  C   UNL     1      43.283  -8.047  11.018  1.00  0.00     0.011 A 
HETATM   27 BR   UNL     1      42.138  -7.323  12.335  1.00  0.00    -0.051 Br
HETATM   28  C   UNL     1      43.279  -7.517   9.732  1.00  0.00     0.019 A 
HETATM   29  C   UNL     1      44.124  -8.058   8.759  1.00  0.00     0.009 A 
ENDBRANCH  22  23
ENDBRANCH  19  22
ENDBRANCH   2  18
TORSDOF 6
ENDMDL
MODEL 3
REMARK VINA RESULT:      -8.6      1.666      2.386
REMARK  6 active torsions:
REMARK  status: ('A' for Active; 'I' for Inactive)
REMARK    1  A    between atoms: C_4  and  N_5 
REMARK    2  A    between atoms: C_7  and  C_8 
REMARK       I    between atoms: C_8  and  N_9 
REMARK    3  A    between atoms: N_9  and  N_10 
REMARK       I    between atoms: N_10  and  C_11 
REMARK    4  A    between atoms: C_11  and  C_12 
REMARK    5  A    between atoms: C_12  and  C_13 
REMARK    6  A    between atoms: C_22  and  O_23 
ROOT
HETATM    1  C   UNL     1      42.080 -12.147   5.416  1.00  0.00     0.293 C 
HETATM    2  N   UNL     1      42.367 -12.221   6.762  1.00  0.00    -0.262 N 
HETATM    3  O   UNL     1      42.080 -11.093   4.779  1.00  0.00    -0.264 OA
HETATM    4  H   UNL     1      42.417 -13.127   7.233  1.00  0.00     0.190 HD
ENDROOT
BRANCH   1   5
HETATM    5  C   UNL     1      41.776 -13.438   4.799  1.00  0.00     0.181 A 
HETATM    6  N   UNL     1      42.693 -14.413   4.658  1.00  0.00    -0.159 NA
HETATM    7  N   UNL     1      42.028 -15.439   4.044  1.00  0.00    -0.242 N 
HETATM    8  C   UNL     1      40.711 -15.113   3.800  1.00  0.00     0.158 A 
HETATM    9  C   UNL     1      40.535 -13.846   4.276  1.00  0.00     0.119 A 
BRANCH   7  10
HETATM   10  C   UNL     1      42.699 -16.656   3.734  1.00  0.00     0.058 A 
HETATM   11  C   UNL     1      42.392 -17.330   2.541  1.00  0.00     0.031 A 
HETATM   12  C   UNL     1      43.042 -18.524   2.220  1.00  0.00     0.002 A 
HETATM   13  C   UNL     1      43.997 -19.054   3.084  1.00  0.00     0.000 A 
HETATM   14  C   UNL     1      44.307 -18.392   4.270  1.00  0.00     0.002 A 
HETATM   15  C   UNL     1      43.662 -17.196   4.599  1.00  0.00     0.031 A 
ENDBRANCH   7  10
BRANCH   9  16
HETATM   16  O   UNL     1      39.368 -13.184   4.219  1.00  0.00    -0.357 OA
HETATM   17  H   UNL     1      39.394 -12.412   4.822  1.00  0.00     0.218 HD
ENDBRANCH   9  16
ENDBRANCH   1   5
BRANCH   2  18
HETATM   18  N   UNL     1      42.739 -11.074   7.466  1.00  0.00    -0.267 N 
HETATM   19  C   UNL     1      44.049 -10.971   7.892  1.00  0.00     0.240 C 
HETATM   20  O   UNL     1      44.870 -11.872   7.738  1.00  0.00    -0.272 OA
HETATM   21  H   UNL     1      42.110 -10.274   7.407  1.00  0.00     0.190 HD
BRANCH  19  22
HETATM   22  C   UNL     1      44.383  -9.654   8.565  1.00  0.00     0.143 C 
BRANCH  22  23
HETATM   23  C   UNL     1      43.848  -9.467   9.969  1.00  0.00    -0.049 A 
HETATM   24  C   UNL     1      43.675 -10.519  10.878  1.00  0.00     0.009 A 
HETATM   25  C   UNL     1      43.154 -10.282  12.155  1.00  0.00     0.019 A 
HETATM   26  C   UNL     1      42.796  -8.990  12.530  1.00  0.00     0.011 A 
HETATM   27 BR   UNL     1      42.083  -8.673  14.251  1.00  0.00    -0.051 Br
HETATM   28  C   UNL     1      42.952  -7.931  11.641  1.00  0.00     0.019 A 
HETATM   29  C   UNL     1      43.475  -8.170  10.367  1.00  0.00     0.009 A 
ENDBRANCH  22  23
ENDBRANCH  19  22
ENDBRANCH   2  18
TORSDOF 6
ENDMDL
MODEL 4
REMARK VINA RESULT:      -8.6      1.580      2.338
REMARK  6 active torsions:
REMARK  status: ('A' for Active; 'I' for Inactive)
REMARK    1  A    between atoms: C_4  and  N_5 
REMARK    2  A    between atoms: C_7  and  C_8 
REMARK       I    between atoms: C_8  and  N_9 
REMARK    3  A    between atoms: N_9  and  N_10 
REMARK       I    between atoms: N_10  and  C_11 
REMARK    4  A    between atoms: C_11  and  C_12 
REMARK    5  A    between atoms: C_12  and  C_13 
REMARK    6  A    between atoms: C_22  and  O_23 
ROOT
HETATM    1  C   UNL     1      43.566 -14.154   6.807  1.00  0.00     0.293 C 
HETATM    2  N   UNL     1      44.099 -12.909   6.549  1.00  0.00    -0.262 N 
HETATM    3  O   UNL     1      43.307 -14.559   7.941  1.00  0.00    -0.264 OA
HETATM    4  H   UNL     1      44.237 -12.593   5.587  1.00  0.00     0.190 HD
ENDROOT
BRANCH   1   5
HETATM    5  C   UNL     1      43.326 -14.960   5.611  1.00  0.00     0.181 A 
HETATM    6  N   UNL     1      43.631 -16.268   5.539  1.00  0.00    -0.159 NA
HETATM    7  N   UNL     1      43.264 -16.649   4.277  1.00  0.00    -0.242 N 
HETATM    8  C   UNL     1      42.738 -15.595   3.564  1.00  0.00     0.158 A 
HETATM    9  C   UNL     1      42.768 -14.514   4.398  1.00  0.00     0.119 A 
BRANCH   7  10
HETATM   10  C   UNL     1      43.445 -17.994   3.844  1.00  0.00     0.058 A 
HETATM   11  C   UNL     1      43.939 -18.951   4.745  1.00  0.00     0.031 A 
HETATM   12  C   UNL     1      44.120 -20.275   4.337  1.00  0.00     0.002 A 
HETATM   13  C   UNL     1      43.813 -20.653   3.032  1.00  0.00     0.000 A 
HETATM   14  C   UNL     1      43.323 -19.709   2.131  1.00  0.00     0.002 A 
HETATM   15  C   UNL     1      43.138 -18.382   2.532  1.00  0.00     0.031 A 
ENDBRANCH   7  10
BRANCH   9  16
HETATM   16  O   UNL     1      42.329 -13.294   4.052  1.00  0.00    -0.357 OA
HETATM   17  H   UNL     1      41.650 -12.991   4.690  1.00  0.00     0.218 HD
ENDBRANCH   9  16
ENDBRANCH   1   5
BRANCH   2  18
HETATM   18  N   UNL     1      44.319 -12.008   7.593  1.00  0.00    -0.267 N 
HETATM   19  C   UNL     1      45.336 -11.085   7.449  1.00  0.00     0.240 C 
HETATM   20  O   UNL     1      46.091 -11.075   6.479  1.00  0.00    -0.272 OA
HETATM   21  H   UNL     1      43.572 -11.908   8.279  1.00  0.00     0.190 HD
BRANCH  19  22
HETATM   22  C   UNL     1      45.441 -10.091   8.589  1.00  0.00     0.143 C 
BRANCH  22  23
HETATM   23  C   UNL     1      44.227  -9.974   9.487  1.00  0.00    -0.049 A 
HETATM   24  C   UNL     1      43.033  -9.354   9.096  1.00  0.00     0.009 A 
HETATM   25  C   UNL     1      41.955  -9.259   9.983  1.00  0.00     0.019 A 
HETATM   26  C   UNL     1      42.066  -9.778  11.270  1.00  0.00     0.011 A 
HETATM   27 BR   UNL     1      40.612  -9.639  12.470  1.00  0.00    -0.051 Br
HETATM   28  C   UNL     1      43.245 -10.391  11.682  1.00  0.00     0.019 A 
HETATM   29  C   UNL     1      44.320 -10.487  10.793  1.00  0.00     0.009 A 
ENDBRANCH  22  23
ENDBRANCH  19  22
ENDBRANCH   2  18
TORSDOF 6
ENDMDL
MODEL 5
REMARK VINA RESULT:      -8.3      2.276      3.248
REMARK  6 active torsions:
REMARK  status: ('A' for Active; 'I' for Inactive)
REMARK    1  A    between atoms: C_4  and  N_5 
REMARK    2  A    between atoms: C_7  and  C_8 
REMARK       I    between atoms: C_8  and  N_9 
REMARK    3  A    between atoms: N_9  and  N_10 
REMARK       I    between atoms: N_10  and  C_11 
REMARK    4  A    between atoms: C_11  and  C_12 
REMARK    5  A    between atoms: C_12  and  C_13 
REMARK    6  A    between atoms: C_22  and  O_23 
ROOT
HETATM    1  C   UNL     1      42.962 -10.991   6.609  1.00  0.00     0.293 C 
HETATM    2  N   UNL     1      43.681 -11.671   7.568  1.00  0.00    -0.262 N 
HETATM    3  O   UNL     1      42.433  -9.897   6.807  1.00  0.00    -0.264 OA
HETATM    4  H   UNL     1      44.156 -12.547   7.338  1.00  0.00     0.190 HD
ENDROOT
BRANCH   1   5
HETATM    5  C   UNL     1      42.883 -11.681   5.322  1.00  0.00     0.181 A 
HETATM    6  N   UNL     1      43.047 -13.011   5.196  1.00  0.00    -0.159 NA
HETATM    7  N   UNL     1      42.905 -13.261   3.859  1.00  0.00    -0.242 N 
HETATM    8  C   UNL     1      42.655 -12.104   3.153  1.00  0.00     0.158 A 
HETATM    9  C   UNL     1      42.636 -11.092   4.068  1.00  0.00     0.119 A 
BRANCH   7  10
HETATM   10  C   UNL     1      43.018 -14.587   3.352  1.00  0.00     0.058 A 
HETATM   11  C   UNL     1      43.169 -14.790   1.971  1.00  0.00     0.031 A 
HETATM   12  C   UNL     1      43.284 -16.083   1.457  1.00  0.00     0.002 A 
HETATM   13  C   UNL     1      43.246 -17.181   2.313  1.00  0.00     0.000 A 
HETATM   14  C   UNL     1      43.095 -16.989   3.685  1.00  0.00     0.002 A 
HETATM   15  C   UNL     1      42.981 -15.697   4.208  1.00  0.00     0.031 A 
ENDBRANCH   7  10
BRANCH   9  16
HETATM   16  O   UNL     1      42.416  -9.806   3.753  1.00  0.00    -0.357 OA
HETATM   17  H   UNL     1      42.378  -9.704   2.779  1.00  0.00     0.218 HD
ENDBRANCH   9  16
ENDBRANCH   1   5
BRANCH   2  18
HETATM   18  N   UNL     1      43.894 -11.100   8.824  1.00  0.00    -0.267 N 
HETATM   19  C   UNL     1      45.096 -10.459   9.050  1.00  0.00     0.240 C 
HETATM   20  O   UNL     1      46.002 -10.434   8.219  1.00  0.00    -0.272 OA
HETATM   21  H   UNL     1      43.073 -10.961   9.412  1.00  0.00     0.190 HD
BRANCH  19  22
HETATM   22  C   UNL     1      45.201  -9.791  10.407  1.00  0.00     0.143 C 
BRANCH  22  23
HETATM   23  C   UNL     1      43.893  -9.402  11.063  1.00  0.00    -0.049 A 
HETATM   24  C   UNL     1      43.208 -10.222  11.969  1.00  0.00     0.009 A 
HETATM   25  C   UNL     1      41.990  -9.813  12.523  1.00  0.00     0.019 A 
HETATM   26  C   UNL     1      41.444  -8.582  12.168  1.00  0.00     0.011 A 
HETATM   27 BR   UNL     1      39.794  -8.036  12.910  1.00  0.00    -0.051 Br
HETATM   28  C   UNL     1      42.103  -7.755  11.264  1.00  0.00     0.019 A 
HETATM   29  C   UNL     1      43.321  -8.165  10.715  1.00  0.00     0.009 A 
ENDBRANCH  22  23
ENDBRANCH  19  22
ENDBRANCH   2  18
TORSDOF 6
ENDMDL
MODEL 6
REMARK VINA RESULT:      -7.8      8.458     10.822
REMARK  6 active torsions:
REMARK  status: ('A' for Active; 'I' for Inactive)
REMARK    1  A    between atoms: C_4  and  N_5 
REMARK    2  A    between atoms: C_7  and  C_8 
REMARK       I    between atoms: C_8  and  N_9 
REMARK    3  A    between atoms: N_9  and  N_10 
REMARK       I    between atoms: N_10  and  C_11 
REMARK    4  A    between atoms: C_11  and  C_12 
REMARK    5  A    between atoms: C_12  and  C_13 
REMARK    6  A    between atoms: C_22  and  O_23 
ROOT
HETATM    1  C   UNL     1      40.286 -13.770   0.038  1.00  0.00     0.293 C 
HETATM    2  N   UNL     1      39.029 -13.972  -0.491  1.00  0.00    -0.262 N 
HETATM    3  O   UNL     1      41.111 -12.998  -0.450  1.00  0.00    -0.264 OA
HETATM    4  H   UNL     1      38.355 -14.575  -0.014  1.00  0.00     0.190 HD
ENDROOT
BRANCH   1   5
HETATM    5  C   UNL     1      40.559 -14.554   1.242  1.00  0.00     0.181 A 
HETATM    6  N   UNL     1      41.614 -15.382   1.350  1.00  0.00    -0.159 NA
HETATM    7  N   UNL     1      41.515 -15.922   2.603  1.00  0.00    -0.242 N 
HETATM    8  C   UNL     1      40.411 -15.442   3.274  1.00  0.00     0.158 A 
HETATM    9  C   UNL     1      39.794 -14.570   2.423  1.00  0.00     0.119 A 
BRANCH   7  10
HETATM   10  C   UNL     1      42.482 -16.858   3.069  1.00  0.00     0.058 A 
HETATM   11  C   UNL     1      42.820 -17.961   2.267  1.00  0.00     0.031 A 
HETATM   12  C   UNL     1      43.767 -18.887   2.707  1.00  0.00     0.002 A 
HETATM   13  C   UNL     1      44.381 -18.725   3.947  1.00  0.00     0.000 A 
HETATM   14  C   UNL     1      44.050 -17.634   4.749  1.00  0.00     0.002 A 
HETATM   15  C   UNL     1      43.104 -16.701   4.315  1.00  0.00     0.031 A 
ENDBRANCH   7  10
BRANCH   9  16
HETATM   16  O   UNL     1      38.675 -13.896   2.730  1.00  0.00    -0.357 OA
HETATM   17  H   UNL     1      37.945 -14.525   2.906  1.00  0.00     0.218 HD
ENDBRANCH   9  16
ENDBRANCH   1   5
BRANCH   2  18
HETATM   18  N   UNL     1      38.608 -13.240  -1.603  1.00  0.00    -0.267 N 
HETATM   19  C   UNL     1      37.854 -12.104  -1.385  1.00  0.00     0.240 C 
HETATM   20  O   UNL     1      37.484 -11.758  -0.264  1.00  0.00    -0.272 OA
HETATM   21  H   UNL     1      39.084 -13.428  -2.485  1.00  0.00     0.190 HD
BRANCH  19  22
HETATM   22  C   UNL     1      37.522 -11.325  -2.642  1.00  0.00     0.143 C 
BRANCH  22  23
HETATM   23  C   UNL     1      36.068 -10.948  -2.830  1.00  0.00    -0.049 A 
HETATM   24  C   UNL     1      35.473  -9.832  -2.227  1.00  0.00     0.009 A 
HETATM   25  C   UNL     1      34.117  -9.552  -2.423  1.00  0.00     0.019 A 
HETATM   26  C   UNL     1      33.343 -10.390  -3.221  1.00  0.00     0.011 A 
HETATM   27 BR   UNL     1      31.508 -10.016  -3.477  1.00  0.00    -0.051 Br
HETATM   28  C   UNL     1      33.911 -11.508  -3.824  1.00  0.00     0.019 A 
HETATM   29  C   UNL     1      35.267 -11.784  -3.628  1.00  0.00     0.009 A 
ENDBRANCH  22  23
ENDBRANCH  19  22
ENDBRANCH   2  18
TORSDOF 6
ENDMDL
MODEL 7
REMARK VINA RESULT:      -7.7      2.106      2.759
REMARK  6 active torsions:
REMARK  status: ('A' for Active; 'I' for Inactive)
REMARK    1  A    between atoms: C_4  and  N_5 
REMARK    2  A    between atoms: C_7  and  C_8 
REMARK       I    between atoms: C_8  and  N_9 
REMARK    3  A    between atoms: N_9  and  N_10 
REMARK       I    between atoms: N_10  and  C_11 
REMARK    4  A    between atoms: C_11  and  C_12 
REMARK    5  A    between atoms: C_12  and  C_13 
REMARK    6  A    between atoms: C_22  and  O_23 
ROOT
HETATM    1  C   UNL     1      41.923 -12.242   5.543  1.00  0.00     0.293 C 
HETATM    2  N   UNL     1      41.321 -11.734   6.675  1.00  0.00    -0.262 N 
HETATM    3  O   UNL     1      42.576 -11.557   4.757  1.00  0.00    -0.264 OA
HETATM    4  H   UNL     1      40.842 -12.353   7.332  1.00  0.00     0.190 HD
ENDROOT
BRANCH   1   5
HETATM    5  C   UNL     1      41.722 -13.678   5.356  1.00  0.00     0.181 A 
HETATM    6  N   UNL     1      42.607 -14.461   4.712  1.00  0.00    -0.159 NA
HETATM    7  N   UNL     1      42.061 -15.715   4.746  1.00  0.00    -0.242 N 
HETATM    8  C   UNL     1      40.849 -15.722   5.401  1.00  0.00     0.158 A 
HETATM    9  C   UNL     1      40.620 -14.435   5.797  1.00  0.00     0.119 A 
BRANCH   7  10
HETATM   10  C   UNL     1      42.738 -16.818   4.149  1.00  0.00     0.058 A 
HETATM   11  C   UNL     1      42.375 -17.236   2.859  1.00  0.00     0.031 A 
HETATM   12  C   UNL     1      43.029 -18.313   2.258  1.00  0.00     0.002 A 
HETATM   13  C   UNL     1      44.044 -18.982   2.937  1.00  0.00     0.000 A 
HETATM   14  C   UNL     1      44.409 -18.575   4.219  1.00  0.00     0.002 A 
HETATM   15  C   UNL     1      43.761 -17.496   4.827  1.00  0.00     0.031 A 
ENDBRANCH   7  10
BRANCH   9  16
HETATM   16  O   UNL     1      39.528 -14.047   6.474  1.00  0.00    -0.357 OA
HETATM   17  H   UNL     1      39.741 -13.271   7.032  1.00  0.00     0.218 HD
ENDBRANCH   9  16
ENDBRANCH   1   5
BRANCH   2  18
HETATM   18  N   UNL     1      41.484 -10.389   7.014  1.00  0.00    -0.267 N 
HETATM   19  C   UNL     1      40.397  -9.715   7.536  1.00  0.00     0.240 C 
HETATM   20  O   UNL     1      39.287 -10.231   7.645  1.00  0.00    -0.272 OA
HETATM   21  H   UNL     1      42.441 -10.049   7.101  1.00  0.00     0.190 HD
BRANCH  19  22
HETATM   22  C   UNL     1      40.693  -8.290   7.959  1.00  0.00     0.143 C 
BRANCH  22  23
HETATM   23  C   UNL     1      41.312  -8.115   9.330  1.00  0.00    -0.049 A 
HETATM   24  C   UNL     1      42.690  -8.194   9.572  1.00  0.00     0.009 A 
HETATM   25  C   UNL     1      43.197  -8.045  10.868  1.00  0.00     0.019 A 
HETATM   26  C   UNL     1      42.327  -7.823  11.933  1.00  0.00     0.011 A 
HETATM   27 BR   UNL     1      43.013  -7.633  13.684  1.00  0.00    -0.051 Br
HETATM   28  C   UNL     1      40.955  -7.749  11.716  1.00  0.00     0.019 A 
HETATM   29  C   UNL     1      40.452  -7.895  10.420  1.00  0.00     0.009 A 
ENDBRANCH  22  23
ENDBRANCH  19  22
ENDBRANCH   2  18
TORSDOF 6
ENDMDL
MODEL 8
REMARK VINA RESULT:      -7.5      3.344      3.894
REMARK  6 active torsions:
REMARK  status: ('A' for Active; 'I' for Inactive)
REMARK    1  A    between atoms: C_4  and  N_5 
REMARK    2  A    between atoms: C_7  and  C_8 
REMARK       I    between atoms: C_8  and  N_9 
REMARK    3  A    between atoms: N_9  and  N_10 
REMARK       I    between atoms: N_10  and  C_11 
REMARK    4  A    between atoms: C_11  and  C_12 
REMARK    5  A    between atoms: C_12  and  C_13 
REMARK    6  A    between atoms: C_22  and  O_23 
ROOT
HETATM    1  C   UNL     1      42.115 -11.679   6.117  1.00  0.00     0.293 C 
HETATM    2  N   UNL     1      42.950 -12.326   7.005  1.00  0.00    -0.262 N 
HETATM    3  O   UNL     1      41.966 -10.458   6.095  1.00  0.00    -0.264 OA
HETATM    4  H   UNL     1      43.090 -13.336   6.943  1.00  0.00     0.190 HD
ENDROOT
BRANCH   1   5
HETATM    5  C   UNL     1      41.420 -12.574   5.194  1.00  0.00     0.181 A 
HETATM    6  N   UNL     1      41.497 -12.446   3.856  1.00  0.00    -0.159 NA
HETATM    7  N   UNL     1      40.717 -13.453   3.358  1.00  0.00    -0.242 N 
HETATM    8  C   UNL     1      40.156 -14.205   4.367  1.00  0.00     0.158 A 
HETATM    9  C   UNL     1      40.594 -13.660   5.540  1.00  0.00     0.119 A 
BRANCH   7  10
HETATM   10  C   UNL     1      40.564 -13.625   1.952  1.00  0.00     0.058 A 
HETATM   11  C   UNL     1      40.887 -12.568   1.086  1.00  0.00     0.031 A 
HETATM   12  C   UNL     1      40.745 -12.720  -0.295  1.00  0.00     0.002 A 
HETATM   13  C   UNL     1      40.279 -13.922  -0.821  1.00  0.00     0.000 A 
HETATM   14  C   UNL     1      39.954 -14.976   0.031  1.00  0.00     0.002 A 
HETATM   15  C   UNL     1      40.095 -14.833   1.415  1.00  0.00     0.031 A 
ENDBRANCH   7  10
BRANCH   9  16
HETATM   16  O   UNL     1      40.257 -14.130   6.752  1.00  0.00    -0.357 OA
HETATM   17  H   UNL     1      41.007 -14.632   7.134  1.00  0.00     0.218 HD
ENDBRANCH   9  16
ENDBRANCH   1   5
BRANCH   2  18
HETATM   18  N   UNL     1      43.727 -11.591   7.902  1.00  0.00    -0.267 N 
HETATM   19  C   UNL     1      45.013 -11.258   7.524  1.00  0.00     0.240 C 
HETATM   20  O   UNL     1      45.515 -11.641   6.470  1.00  0.00    -0.272 OA
HETATM   21  H   UNL     1      43.235 -11.125   8.663  1.00  0.00     0.190 HD
BRANCH  19  22
HETATM   22  C   UNL     1      45.748 -10.383   8.521  1.00  0.00     0.143 C 
BRANCH  22  23
HETATM   23  C   UNL     1      44.890  -9.453   9.353  1.00  0.00    -0.049 A 
HETATM   24  C   UNL     1      44.567  -9.693  10.695  1.00  0.00     0.009 A 
HETATM   25  C   UNL     1      43.749  -8.804  11.403  1.00  0.00     0.019 A 
HETATM   26  C   UNL     1      43.244  -7.672  10.770  1.00  0.00     0.011 A 
HETATM   27 BR   UNL     1      42.132  -6.478  11.724  1.00  0.00    -0.051 Br
HETATM   28  C   UNL     1      43.546  -7.418   9.436  1.00  0.00     0.019 A 
HETATM   29  C   UNL     1      44.365  -8.306   8.732  1.00  0.00     0.009 A 
ENDBRANCH  22  23
ENDBRANCH  19  22
ENDBRANCH   2  18
TORSDOF 6
ENDMDL
MODEL 9
REMARK VINA RESULT:      -7.5     18.052     20.317
REMARK  6 active torsions:
REMARK  status: ('A' for Active; 'I' for Inactive)
REMARK    1  A    between atoms: C_4  and  N_5 
REMARK    2  A    between atoms: C_7  and  C_8 
REMARK       I    between atoms: C_8  and  N_9 
REMARK    3  A    between atoms: N_9  and  N_10 
REMARK       I    between atoms: N_10  and  C_11 
REMARK    4  A    between atoms: C_11  and  C_12 
REMARK    5  A    between atoms: C_12  and  C_13 
REMARK    6  A    between atoms: C_22  and  O_23 
ROOT
HETATM    1  C   UNL     1      47.646 -30.128   2.421  1.00  0.00     0.293 C 
HETATM    2  N   UNL     1      47.579 -28.894   1.809  1.00  0.00    -0.262 N 
HETATM    3  O   UNL     1      46.702 -30.916   2.464  1.00  0.00    -0.264 OA
HETATM    4  H   UNL     1      48.409 -28.301   1.743  1.00  0.00     0.190 HD
ENDROOT
BRANCH   1   5
HETATM    5  C   UNL     1      48.947 -30.427   3.018  1.00  0.00     0.181 A 
HETATM    6  N   UNL     1      49.081 -31.027   4.215  1.00  0.00    -0.159 NA
HETATM    7  N   UNL     1      50.431 -31.123   4.415  1.00  0.00    -0.242 N 
HETATM    8  C   UNL     1      51.137 -30.589   3.359  1.00  0.00     0.158 A 
HETATM    9  C   UNL     1      50.209 -30.144   2.462  1.00  0.00     0.119 A 
BRANCH   7  10
HETATM   10  C   UNL     1      50.949 -31.717   5.601  1.00  0.00     0.058 A 
HETATM   11  C   UNL     1      50.167 -32.644   6.309  1.00  0.00     0.031 A 
HETATM   12  C   UNL     1      50.659 -33.238   7.473  1.00  0.00     0.002 A 
HETATM   13  C   UNL     1      51.930 -32.912   7.940  1.00  0.00     0.000 A 
HETATM   14  C   UNL     1      52.712 -31.992   7.245  1.00  0.00     0.002 A 
HETATM   15  C   UNL     1      52.227 -31.393   6.078  1.00  0.00     0.031 A 
ENDBRANCH   7  10
BRANCH   9  16
HETATM   16  O   UNL     1      50.522 -29.560   1.295  1.00  0.00    -0.357 OA
HETATM   17  H   UNL     1      51.263 -30.039   0.871  1.00  0.00     0.218 HD
ENDBRANCH   9  16
ENDBRANCH   1   5
BRANCH   2  18
HETATM   18  N   UNL     1      46.417 -28.504   1.141  1.00  0.00    -0.267 N 
HETATM   19  C   UNL     1      46.536 -28.059  -0.161  1.00  0.00     0.240 C 
HETATM   20  O   UNL     1      47.622 -27.930  -0.722  1.00  0.00    -0.272 OA
HETATM   21  H   UNL     1      45.530 -28.802   1.546  1.00  0.00     0.190 HD
BRANCH  19  22
HETATM   22  C   UNL     1      45.214 -27.745  -0.835  1.00  0.00     0.143 C 
BRANCH  22  23
HETATM   23  C   UNL     1      44.886 -28.554  -2.072  1.00  0.00    -0.049 A 
HETATM   24  C   UNL     1      44.316 -29.833  -2.032  1.00  0.00     0.009 A 
HETATM   25  C   UNL     1      44.058 -30.538  -3.213  1.00  0.00     0.019 A 
HETATM   26  C   UNL     1      44.375 -29.970  -4.444  1.00  0.00     0.011 A 
HETATM   27 BR   UNL     1      44.036 -30.928  -6.037  1.00  0.00    -0.051 Br
HETATM   28  C   UNL     1      44.950 -28.704  -4.507  1.00  0.00     0.019 A 
HETATM   29  C   UNL     1      45.203 -28.001  -3.326  1.00  0.00     0.009 A 
ENDBRANCH  22  23
ENDBRANCH  19  22
ENDBRANCH   2  18
TORSDOF 6
ENDMDL
MODEL 10
REMARK VINA RESULT:      -7.5      2.993      3.827
REMARK  6 active torsions:
REMARK  status: ('A' for Active; 'I' for Inactive)
REMARK    1  A    between atoms: C_4  and  N_5 
REMARK    2  A    between atoms: C_7  and  C_8 
REMARK       I    between atoms: C_8  and  N_9 
REMARK    3  A    between atoms: N_9  and  N_10 
REMARK       I    between atoms: N_10  and  C_11 
REMARK    4  A    between atoms: C_11  and  C_12 
REMARK    5  A    between atoms: C_12  and  C_13 
REMARK    6  A    between atoms: C_22  and  O_23 
ROOT
HETATM    1  C   UNL     1      41.114 -12.364   4.160  1.00  0.00     0.293 C 
HETATM    2  N   UNL     1      40.183 -12.040   5.124  1.00  0.00    -0.262 N 
HETATM    3  O   UNL     1      41.940 -11.565   3.719  1.00  0.00    -0.264 OA
HETATM    4  H   UNL     1      39.560 -12.754   5.506  1.00  0.00     0.190 HD
ENDROOT
BRANCH   1   5
HETATM    5  C   UNL     1      41.041 -13.751   3.704  1.00  0.00     0.181 A 
HETATM    6  N   UNL     1      42.058 -14.621   3.845  1.00  0.00    -0.159 NA
HETATM    7  N   UNL     1      41.604 -15.790   3.299  1.00  0.00    -0.242 N 
HETATM    8  C   UNL     1      40.319 -15.658   2.820  1.00  0.00     0.158 A 
HETATM    9  C   UNL     1      39.946 -14.369   3.072  1.00  0.00     0.119 A 
BRANCH   7  10
HETATM   10  C   UNL     1      42.431 -16.949   3.274  1.00  0.00     0.058 A 
HETATM   11  C   UNL     1      43.296 -17.206   4.350  1.00  0.00     0.031 A 
HETATM   12  C   UNL     1      44.112 -18.339   4.343  1.00  0.00     0.002 A 
HETATM   13  C   UNL     1      44.076 -19.220   3.265  1.00  0.00     0.000 A 
HETATM   14  C   UNL     1      43.222 -18.972   2.192  1.00  0.00     0.002 A 
HETATM   15  C   UNL     1      42.399 -17.841   2.192  1.00  0.00     0.031 A 
ENDBRANCH   7  10
BRANCH   9  16
HETATM   16  O   UNL     1      38.745 -13.864   2.747  1.00  0.00    -0.357 OA
HETATM   17  H   UNL     1      38.239 -14.519   2.223  1.00  0.00     0.218 HD
ENDBRANCH   9  16
ENDBRANCH   1   5
BRANCH   2  18
HETATM   18  N   UNL     1      40.180 -10.767   5.698  1.00  0.00    -0.267 N 
HETATM   19  C   UNL     1      39.253 -10.504   6.688  1.00  0.00     0.240 C 
HETATM   20  O   UNL     1      38.396 -11.317   7.027  1.00  0.00    -0.272 OA
HETATM   21  H   UNL     1      41.008 -10.192   5.548  1.00  0.00     0.190 HD
BRANCH  19  22
HETATM   22  C   UNL     1      39.384  -9.130   7.315  1.00  0.00     0.143 C 
BRANCH  22  23
HETATM   23  C   UNL     1      40.266  -9.038   8.543  1.00  0.00    -0.049 A 
HETATM   24  C   UNL     1      39.836  -9.380   9.832  1.00  0.00     0.009 A 
HETATM   25  C   UNL     1      40.695  -9.250  10.929  1.00  0.00     0.019 A 
HETATM   26  C   UNL     1      41.989  -8.770  10.745  1.00  0.00     0.011 A 
HETATM   27 BR   UNL     1      43.144  -8.585  12.229  1.00  0.00    -0.051 Br
HETATM   28  C   UNL     1      42.434  -8.417   9.475  1.00  0.00     0.019 A 
HETATM   29  C   UNL     1      41.575  -8.551   8.380  1.00  0.00     0.009 A 
ENDBRANCH  22  23
ENDBRANCH  19  22
ENDBRANCH   2  18
TORSDOF 6
ENDMDL
