MODEL 1
REMARK VINA RESULT:      -9.5      0.000      0.000
REMARK  9 active torsions:
REMARK  status: ('A' for Active; 'I' for Inactive)
REMARK    1  A    between atoms: C_7  and  C_8 
REMARK    2  A    between atoms: C_9  and  O_10 
REMARK    3  A    between atoms: C_13  and  N_14 
REMARK    4  A    between atoms: N_14  and  C_15 
REMARK    5  A    between atoms: C_15  and  N_16 
REMARK       I    between atoms: N_16  and  C_17 
REMARK    6  A    between atoms: C_17  and  C_18 
REMARK    7  A    between atoms: C_20  and  O_21 
REMARK    8  A    between atoms: O_21  and  C_22 
REMARK    9  A    between atoms: C_22  and  C_23 
ROOT
HETATM    1  C   UNL     1      41.239 -13.670   3.085  1.00  0.00     0.052 A 
HETATM    2  C   UNL     1      39.848 -13.584   2.945  1.00  0.00     0.080 A 
HETATM    3  C   UNL     1      39.170 -12.396   3.235  1.00  0.00     0.040 A 
HETATM    4  C   UNL     1      39.878 -11.273   3.671  1.00  0.00     0.032 A 
HETATM    5  C   UNL     1      41.268 -11.310   3.747  1.00  0.00     0.035 A 
HETATM    6  C   UNL     1      41.935 -12.503   3.456  1.00  0.00     0.048 A 
ENDROOT
BRANCH   5   7
HETATM    7  N   UNL     1      41.952 -10.186   4.250  1.00  0.00    -0.333 N 
HETATM    8  H   UNL     1      42.747  -9.861   3.701  1.00  0.00     0.168 HD
BRANCH   7   9
HETATM    9  C   UNL     1      41.609  -9.400   5.319  1.00  0.00     0.179 C 
HETATM   10  S   UNL     1      40.737  -7.970   5.282  1.00  0.00    -0.040 SA
BRANCH   9  11
HETATM   11  N   UNL     1      42.031  -9.836   6.552  1.00  0.00    -0.299 N 
HETATM   12  C   UNL     1      43.285 -10.331   6.880  1.00  0.00     0.257 C 
HETATM   13  O   UNL     1      44.042 -10.899   6.104  1.00  0.00    -0.267 OA
HETATM   14  H   UNL     1      41.475  -9.432   7.295  1.00  0.00     0.171 HD
BRANCH  12  15
HETATM   15  C   UNL     1      43.669 -10.117   8.297  1.00  0.00     0.035 A 
HETATM   16  C   UNL     1      42.755  -9.587   9.218  1.00  0.00     0.053 A 
HETATM   17  C   UNL     1      43.179  -9.264  10.507  1.00  0.00     0.069 A 
HETATM   18  C   UNL     1      44.509  -9.501  10.870  1.00  0.00     0.037 A 
HETATM   19  C   UNL     1      45.411 -10.062   9.963  1.00  0.00     0.004 A 
HETATM   20  C   UNL     1      44.991 -10.374   8.671  1.00  0.00     0.017 A 
BRANCH  17  21
HETATM   21  O   UNL     1      42.411  -8.694  11.483  1.00  0.00    -0.351 OA
BRANCH  21  22
HETATM   22  C   UNL     1      42.040  -9.515  12.592  1.00  0.00     0.179 C 
BRANCH  22  23
HETATM   23  C   UNL     1      42.394  -8.811  13.911  1.00  0.00     0.002 C 
HETATM   24  C   UNL     1      43.141  -7.501  13.668  1.00  0.00     0.011 C 
HETATM   25  C   UNL     1      41.139  -8.553  14.748  1.00  0.00     0.011 C 
ENDBRANCH  22  23
ENDBRANCH  21  22
ENDBRANCH  17  21
ENDBRANCH  12  15
ENDBRANCH   9  11
ENDBRANCH   7   9
ENDBRANCH   5   7
BRANCH   1  26
HETATM   26  C   UNL     1      41.976 -14.931   2.979  1.00  0.00     0.183 A 
HETATM   27  O   UNL     1      42.773 -15.243   4.058  1.00  0.00    -0.288 OA
HETATM   28  C   UNL     1      43.176 -16.525   3.827  1.00  0.00     0.112 A 
HETATM   29  C   UNL     1      42.633 -16.918   2.617  1.00  0.00     0.094 A 
HETATM   30  C   UNL     1      43.958 -17.325   4.659  1.00  0.00    -0.025 A 
HETATM   31  C   UNL     1      42.862 -18.222   2.162  1.00  0.00     0.041 A 
HETATM   32  N   UNL     1      41.891 -15.897   2.080  1.00  0.00    -0.221 NA
HETATM   33  C   UNL     1      43.633 -19.087   2.961  1.00  0.00    -0.059 A 
HETATM   34  C   UNL     1      43.832 -20.516   2.542  1.00  0.00     0.048 C 
HETATM   35  C   UNL     1      44.156 -18.637   4.188  1.00  0.00     0.016 A 
HETATM   36  C   UNL     1      44.496 -16.882   5.981  1.00  0.00     0.051 C 
ENDBRANCH   1  26
BRANCH   2  37
HETATM   37  O   UNL     1      39.133 -14.669   2.522  1.00  0.00    -0.360 OA
HETATM   38  H   UNL     1      38.449 -14.888   3.173  1.00  0.00     0.217 HD
ENDBRANCH   2  37
TORSDOF 9
ENDMDL
MODEL 2
REMARK VINA RESULT:      -9.3      2.011     10.769
REMARK  9 active torsions:
REMARK  status: ('A' for Active; 'I' for Inactive)
REMARK    1  A    between atoms: C_7  and  C_8 
REMARK    2  A    between atoms: C_9  and  O_10 
REMARK    3  A    between atoms: C_13  and  N_14 
REMARK    4  A    between atoms: N_14  and  C_15 
REMARK    5  A    between atoms: C_15  and  N_16 
REMARK       I    between atoms: N_16  and  C_17 
REMARK    6  A    between atoms: C_17  and  C_18 
REMARK    7  A    between atoms: C_20  and  O_21 
REMARK    8  A    between atoms: O_21  and  C_22 
REMARK    9  A    between atoms: C_22  and  C_23 
ROOT
HETATM    1  C   UNL     1      43.434  -9.737   9.175  1.00  0.00     0.052 A 
HETATM    2  C   UNL     1      44.628 -10.455   9.035  1.00  0.00     0.080 A 
HETATM    3  C   UNL     1      44.910 -11.158   7.859  1.00  0.00     0.040 A 
HETATM    4  C   UNL     1      43.995 -11.149   6.802  1.00  0.00     0.032 A 
HETATM    5  C   UNL     1      42.836 -10.382   6.888  1.00  0.00     0.035 A 
HETATM    6  C   UNL     1      42.565  -9.686   8.068  1.00  0.00     0.048 A 
ENDROOT
BRANCH   5   7
HETATM    7  N   UNL     1      41.902 -10.442   5.836  1.00  0.00    -0.333 N 
HETATM    8  H   UNL     1      41.960  -9.699   5.140  1.00  0.00     0.168 HD
BRANCH   7   9
HETATM    9  C   UNL     1      41.003 -11.440   5.562  1.00  0.00     0.179 C 
HETATM   10  S   UNL     1      39.393 -11.502   6.024  1.00  0.00    -0.040 SA
BRANCH   9  11
HETATM   11  N   UNL     1      41.479 -12.502   4.831  1.00  0.00    -0.299 N 
HETATM   12  C   UNL     1      41.759 -13.779   5.296  1.00  0.00     0.257 C 
HETATM   13  O   UNL     1      42.086 -14.054   6.443  1.00  0.00    -0.267 OA
HETATM   14  H   UNL     1      41.270 -12.394   3.847  1.00  0.00     0.171 HD
BRANCH  12  15
HETATM   15  C   UNL     1      41.627 -14.840   4.267  1.00  0.00     0.035 A 
HETATM   16  C   UNL     1      42.646 -15.781   4.071  1.00  0.00     0.053 A 
HETATM   17  C   UNL     1      42.564 -16.680   3.008  1.00  0.00     0.069 A 
HETATM   18  C   UNL     1      41.446 -16.646   2.168  1.00  0.00     0.037 A 
HETATM   19  C   UNL     1      40.413 -15.731   2.385  1.00  0.00     0.004 A 
HETATM   20  C   UNL     1      40.501 -14.825   3.440  1.00  0.00     0.017 A 
BRANCH  17  21
HETATM   21  O   UNL     1      43.507 -17.610   2.670  1.00  0.00    -0.351 OA
BRANCH  21  22
HETATM   22  C   UNL     1      43.960 -18.492   3.698  1.00  0.00     0.179 C 
BRANCH  22  23
HETATM   23  C   UNL     1      44.082 -19.922   3.150  1.00  0.00     0.002 C 
HETATM   24  C   UNL     1      43.857 -20.966   4.242  1.00  0.00     0.011 C 
HETATM   25  C   UNL     1      43.107 -20.152   1.993  1.00  0.00     0.011 C 
ENDBRANCH  22  23
ENDBRANCH  21  22
ENDBRANCH  17  21
ENDBRANCH  12  15
ENDBRANCH   9  11
ENDBRANCH   7   9
ENDBRANCH   5   7
BRANCH   1  26
HETATM   26  C   UNL     1      43.004  -9.144  10.443  1.00  0.00     0.183 A 
HETATM   27  O   UNL     1      41.904  -9.732  11.029  1.00  0.00    -0.288 OA
HETATM   28  C   UNL     1      41.828  -9.162  12.265  1.00  0.00     0.112 A 
HETATM   29  C   UNL     1      42.859  -8.243  12.361  1.00  0.00     0.094 A 
HETATM   30  C   UNL     1      40.916  -9.461  13.275  1.00  0.00    -0.025 A 
HETATM   31  C   UNL     1      43.032  -7.542  13.561  1.00  0.00     0.041 A 
HETATM   32  N   UNL     1      43.584  -8.226  11.198  1.00  0.00    -0.221 NA
HETATM   33  C   UNL     1      42.152  -7.806  14.627  1.00  0.00    -0.059 A 
HETATM   34  C   UNL     1      42.357  -7.131  15.953  1.00  0.00     0.048 C 
HETATM   35  C   UNL     1      41.125  -8.758  14.477  1.00  0.00     0.016 A 
HETATM   36  C   UNL     1      39.840 -10.490  13.152  1.00  0.00     0.051 C 
ENDBRANCH   1  26
BRANCH   2  37
HETATM   37  O   UNL     1      45.538 -10.481  10.055  1.00  0.00    -0.360 OA
HETATM   38  H   UNL     1      46.417 -10.246   9.720  1.00  0.00     0.217 HD
ENDBRANCH   2  37
TORSDOF 9
ENDMDL
MODEL 3
REMARK VINA RESULT:      -9.2      2.163      2.955
REMARK  9 active torsions:
REMARK  status: ('A' for Active; 'I' for Inactive)
REMARK    1  A    between atoms: C_7  and  C_8 
REMARK    2  A    between atoms: C_9  and  O_10 
REMARK    3  A    between atoms: C_13  and  N_14 
REMARK    4  A    between atoms: N_14  and  C_15 
REMARK    5  A    between atoms: C_15  and  N_16 
REMARK       I    between atoms: N_16  and  C_17 
REMARK    6  A    between atoms: C_17  and  C_18 
REMARK    7  A    between atoms: C_20  and  O_21 
REMARK    8  A    between atoms: O_21  and  C_22 
REMARK    9  A    between atoms: C_22  and  C_23 
ROOT
HETATM    1  C   UNL     1      40.789 -13.920   3.580  1.00  0.00     0.052 A 
HETATM    2  C   UNL     1      39.753 -13.470   2.751  1.00  0.00     0.080 A 
HETATM    3  C   UNL     1      38.892 -12.450   3.170  1.00  0.00     0.040 A 
HETATM    4  C   UNL     1      39.057 -11.864   4.428  1.00  0.00     0.032 A 
HETATM    5  C   UNL     1      40.125 -12.243   5.239  1.00  0.00     0.035 A 
HETATM    6  C   UNL     1      40.978 -13.263   4.812  1.00  0.00     0.048 A 
ENDROOT
BRANCH   5   7
HETATM    7  N   UNL     1      40.231 -11.683   6.527  1.00  0.00    -0.333 N 
HETATM    8  H   UNL     1      39.770 -12.194   7.278  1.00  0.00     0.168 HD
BRANCH   7   9
HETATM    9  C   UNL     1      40.978 -10.602   6.917  1.00  0.00     0.179 C 
HETATM   10  S   UNL     1      42.528 -10.213   6.415  1.00  0.00    -0.040 SA
BRANCH   9  11
HETATM   11  N   UNL     1      40.387  -9.751   7.820  1.00  0.00    -0.299 N 
HETATM   12  C   UNL     1      39.378 -10.057   8.721  1.00  0.00     0.257 C 
HETATM   13  O   UNL     1      38.537 -10.933   8.565  1.00  0.00    -0.267 OA
HETATM   14  H   UNL     1      40.991  -8.969   8.036  1.00  0.00     0.171 HD
BRANCH  12  15
HETATM   15  C   UNL     1      39.383  -9.217   9.944  1.00  0.00     0.035 A 
HETATM   16  C   UNL     1      40.037  -9.645  11.108  1.00  0.00     0.053 A 
HETATM   17  C   UNL     1      39.910  -8.908  12.285  1.00  0.00     0.069 A 
HETATM   18  C   UNL     1      39.152  -7.733  12.278  1.00  0.00     0.037 A 
HETATM   19  C   UNL     1      38.530  -7.287  11.109  1.00  0.00     0.004 A 
HETATM   20  C   UNL     1      38.646  -8.030   9.936  1.00  0.00     0.017 A 
BRANCH  17  21
HETATM   21  O   UNL     1      40.446  -9.237  13.498  1.00  0.00    -0.351 OA
BRANCH  21  22
HETATM   22  C   UNL     1      41.865  -9.390  13.570  1.00  0.00     0.179 C 
BRANCH  22  23
HETATM   23  C   UNL     1      42.560  -8.148  12.991  1.00  0.00     0.002 C 
HETATM   24  C   UNL     1      43.156  -7.271  14.091  1.00  0.00     0.011 C 
HETATM   25  C   UNL     1      43.645  -8.545  11.988  1.00  0.00     0.011 C 
ENDBRANCH  22  23
ENDBRANCH  21  22
ENDBRANCH  17  21
ENDBRANCH  12  15
ENDBRANCH   9  11
ENDBRANCH   7   9
ENDBRANCH   5   7
BRANCH   1  26
HETATM   26  C   UNL     1      41.596 -15.104   3.276  1.00  0.00     0.183 A 
HETATM   27  O   UNL     1      42.551 -15.426   4.216  1.00  0.00    -0.288 OA
HETATM   28  C   UNL     1      43.014 -16.648   3.828  1.00  0.00     0.112 A 
HETATM   29  C   UNL     1      42.345 -16.996   2.668  1.00  0.00     0.094 A 
HETATM   30  C   UNL     1      43.957 -17.438   4.485  1.00  0.00    -0.025 A 
HETATM   31  C   UNL     1      42.609 -18.239   2.080  1.00  0.00     0.041 A 
HETATM   32  N   UNL     1      41.465 -16.004   2.317  1.00  0.00    -0.221 NA
HETATM   33  C   UNL     1      43.541 -19.092   2.699  1.00  0.00    -0.059 A 
HETATM   34  C   UNL     1      43.789 -20.463   2.141  1.00  0.00     0.048 C 
HETATM   35  C   UNL     1      44.187 -18.691   3.885  1.00  0.00     0.016 A 
HETATM   36  C   UNL     1      44.631 -17.049   5.760  1.00  0.00     0.051 C 
ENDBRANCH   1  26
BRANCH   2  37
HETATM   37  O   UNL     1      39.569 -14.028   1.517  1.00  0.00    -0.360 OA
HETATM   38  H   UNL     1      39.173 -14.908   1.608  1.00  0.00     0.217 HD
ENDBRANCH   2  37
TORSDOF 9
ENDMDL
MODEL 4
REMARK VINA RESULT:      -9.1      2.046      2.914
REMARK  9 active torsions:
REMARK  status: ('A' for Active; 'I' for Inactive)
REMARK    1  A    between atoms: C_7  and  C_8 
REMARK    2  A    between atoms: C_9  and  O_10 
REMARK    3  A    between atoms: C_13  and  N_14 
REMARK    4  A    between atoms: N_14  and  C_15 
REMARK    5  A    between atoms: C_15  and  N_16 
REMARK       I    between atoms: N_16  and  C_17 
REMARK    6  A    between atoms: C_17  and  C_18 
REMARK    7  A    between atoms: C_20  and  O_21 
REMARK    8  A    between atoms: O_21  and  C_22 
REMARK    9  A    between atoms: C_22  and  C_23 
ROOT
HETATM    1  C   UNL     1      41.271 -13.256   1.327  1.00  0.00     0.052 A 
HETATM    2  C   UNL     1      40.078 -13.423   0.612  1.00  0.00     0.080 A 
HETATM    3  C   UNL     1      39.287 -12.322   0.269  1.00  0.00     0.040 A 
HETATM    4  C   UNL     1      39.682 -11.033   0.637  1.00  0.00     0.032 A 
HETATM    5  C   UNL     1      40.900 -10.833   1.282  1.00  0.00     0.035 A 
HETATM    6  C   UNL     1      41.681 -11.941   1.621  1.00  0.00     0.048 A 
ENDROOT
BRANCH   5   7
HETATM    7  N   UNL     1      41.243  -9.533   1.698  1.00  0.00    -0.333 N 
HETATM    8  H   UNL     1      41.707  -8.947   1.004  1.00  0.00     0.168 HD
BRANCH   7   9
HETATM    9  C   UNL     1      40.924  -8.913   2.878  1.00  0.00     0.179 C 
HETATM   10  S   UNL     1      39.708  -7.789   3.131  1.00  0.00    -0.040 SA
BRANCH   9  11
HETATM   11  N   UNL     1      41.689  -9.253   3.968  1.00  0.00    -0.299 N 
HETATM   12  C   UNL     1      41.434 -10.260   4.888  1.00  0.00     0.257 C 
HETATM   13  O   UNL     1      40.322 -10.680   5.179  1.00  0.00    -0.267 OA
HETATM   14  H   UNL     1      42.649  -8.955   3.850  1.00  0.00     0.171 HD
BRANCH  12  15
HETATM   15  C   UNL     1      42.650 -10.822   5.524  1.00  0.00     0.035 A 
HETATM   16  C   UNL     1      42.788 -10.844   6.919  1.00  0.00     0.053 A 
HETATM   17  C   UNL     1      43.995 -11.245   7.490  1.00  0.00     0.069 A 
HETATM   18  C   UNL     1      45.044 -11.650   6.658  1.00  0.00     0.037 A 
HETATM   19  C   UNL     1      44.895 -11.662   5.269  1.00  0.00     0.004 A 
HETATM   20  C   UNL     1      43.693 -11.249   4.698  1.00  0.00     0.017 A 
BRANCH  17  21
HETATM   21  O   UNL     1      44.283 -11.264   8.825  1.00  0.00    -0.351 OA
BRANCH  21  22
HETATM   22  C   UNL     1      45.147 -10.242   9.327  1.00  0.00     0.179 C 
BRANCH  22  23
HETATM   23  C   UNL     1      44.573  -9.658  10.627  1.00  0.00     0.002 C 
HETATM   24  C   UNL     1      43.687  -8.443  10.356  1.00  0.00     0.011 C 
HETATM   25  C   UNL     1      43.792 -10.717  11.407  1.00  0.00     0.011 C 
ENDBRANCH  22  23
ENDBRANCH  21  22
ENDBRANCH  17  21
ENDBRANCH  12  15
ENDBRANCH   9  11
ENDBRANCH   7   9
ENDBRANCH   5   7
BRANCH   1  26
HETATM   26  C   UNL     1      42.037 -14.377   1.875  1.00  0.00     0.183 A 
HETATM   27  O   UNL     1      42.410 -14.251   3.195  1.00  0.00    -0.288 OA
HETATM   28  C   UNL     1      42.910 -15.474   3.528  1.00  0.00     0.112 A 
HETATM   29  C   UNL     1      42.843 -16.271   2.399  1.00  0.00     0.094 A 
HETATM   30  C   UNL     1      43.371 -15.883   4.779  1.00  0.00    -0.025 A 
HETATM   31  C   UNL     1      43.261 -17.605   2.484  1.00  0.00     0.041 A 
HETATM   32  N   UNL     1      42.308 -15.562   1.354  1.00  0.00    -0.221 NA
HETATM   33  C   UNL     1      43.726 -18.086   3.722  1.00  0.00    -0.059 A 
HETATM   34  C   UNL     1      44.106 -19.531   3.869  1.00  0.00     0.048 C 
HETATM   35  C   UNL     1      43.765 -17.234   4.842  1.00  0.00     0.016 A 
HETATM   36  C   UNL     1      43.391 -15.008   5.990  1.00  0.00     0.051 C 
ENDBRANCH   1  26
BRANCH   2  37
HETATM   37  O   UNL     1      39.669 -14.674   0.242  1.00  0.00    -0.360 OA
HETATM   38  H   UNL     1      40.104 -14.933  -0.585  1.00  0.00     0.217 HD
ENDBRANCH   2  37
TORSDOF 9
ENDMDL
MODEL 5
REMARK VINA RESULT:      -9.0      3.330      8.399
REMARK  9 active torsions:
REMARK  status: ('A' for Active; 'I' for Inactive)
REMARK    1  A    between atoms: C_7  and  C_8 
REMARK    2  A    between atoms: C_9  and  O_10 
REMARK    3  A    between atoms: C_13  and  N_14 
REMARK    4  A    between atoms: N_14  and  C_15 
REMARK    5  A    between atoms: C_15  and  N_16 
REMARK       I    between atoms: N_16  and  C_17 
REMARK    6  A    between atoms: C_17  and  C_18 
REMARK    7  A    between atoms: C_20  and  O_21 
REMARK    8  A    between atoms: O_21  and  C_22 
REMARK    9  A    between atoms: C_22  and  C_23 
ROOT
HETATM    1  C   UNL     1      42.766 -12.882   5.732  1.00  0.00     0.052 A 
HETATM    2  C   UNL     1      43.201 -12.365   6.959  1.00  0.00     0.080 A 
HETATM    3  C   UNL     1      43.264 -10.984   7.173  1.00  0.00     0.040 A 
HETATM    4  C   UNL     1      42.889 -10.099   6.158  1.00  0.00     0.032 A 
HETATM    5  C   UNL     1      42.383 -10.589   4.957  1.00  0.00     0.035 A 
HETATM    6  C   UNL     1      42.326 -11.970   4.753  1.00  0.00     0.048 A 
ENDROOT
BRANCH   5   7
HETATM    7  N   UNL     1      42.073  -9.678   3.929  1.00  0.00    -0.333 N 
HETATM    8  H   UNL     1      42.863  -9.194   3.504  1.00  0.00     0.168 HD
BRANCH   7   9
HETATM    9  C   UNL     1      40.855  -9.450   3.343  1.00  0.00     0.179 C 
HETATM   10  S   UNL     1      39.797  -8.193   3.672  1.00  0.00    -0.040 SA
BRANCH   9  11
HETATM   11  N   UNL     1      40.464 -10.354   2.384  1.00  0.00    -0.299 N 
HETATM   12  C   UNL     1      41.211 -10.806   1.306  1.00  0.00     0.257 C 
HETATM   13  O   UNL     1      42.102 -10.173   0.754  1.00  0.00    -0.267 OA
HETATM   14  H   UNL     1      39.718 -10.948   2.723  1.00  0.00     0.171 HD
BRANCH  12  15
HETATM   15  C   UNL     1      40.848 -12.168   0.845  1.00  0.00     0.035 A 
HETATM   16  C   UNL     1      40.775 -12.470  -0.521  1.00  0.00     0.053 A 
HETATM   17  C   UNL     1      40.296 -13.713  -0.932  1.00  0.00     0.069 A 
HETATM   18  C   UNL     1      39.920 -14.654   0.032  1.00  0.00     0.037 A 
HETATM   19  C   UNL     1      40.025 -14.366   1.395  1.00  0.00     0.004 A 
HETATM   20  C   UNL     1      40.493 -13.120   1.806  1.00  0.00     0.017 A 
BRANCH  17  21
HETATM   21  O   UNL     1      40.123 -14.118  -2.226  1.00  0.00    -0.351 OA
BRANCH  21  22
HETATM   22  C   UNL     1      39.405 -13.244  -3.099  1.00  0.00     0.179 C 
BRANCH  22  23
HETATM   23  C   UNL     1      38.120 -12.752  -2.413  1.00  0.00     0.002 C 
HETATM   24  C   UNL     1      37.986 -11.232  -2.493  1.00  0.00     0.011 C 
HETATM   25  C   UNL     1      36.885 -13.423  -3.016  1.00  0.00     0.011 C 
ENDBRANCH  22  23
ENDBRANCH  21  22
ENDBRANCH  17  21
ENDBRANCH  12  15
ENDBRANCH   9  11
ENDBRANCH   7   9
ENDBRANCH   5   7
BRANCH   1  26
HETATM   26  C   UNL     1      42.859 -14.303   5.387  1.00  0.00     0.183 A 
HETATM   27  O   UNL     1      42.841 -14.587   4.039  1.00  0.00    -0.288 OA
HETATM   28  C   UNL     1      43.147 -15.913   3.964  1.00  0.00     0.112 A 
HETATM   29  C   UNL     1      43.308 -16.375   5.259  1.00  0.00     0.094 A 
HETATM   30  C   UNL     1      43.311 -16.675   2.809  1.00  0.00    -0.025 A 
HETATM   31  C   UNL     1      43.671 -17.711   5.462  1.00  0.00     0.041 A 
HETATM   32  N   UNL     1      43.105 -15.353   6.151  1.00  0.00    -0.221 NA
HETATM   33  C   UNL     1      43.866 -18.534   4.337  1.00  0.00    -0.059 A 
HETATM   34  C   UNL     1      44.334 -19.950   4.515  1.00  0.00     0.048 C 
HETATM   35  C   UNL     1      43.697 -18.010   3.041  1.00  0.00     0.016 A 
HETATM   36  C   UNL     1      43.170 -16.135   1.423  1.00  0.00     0.051 C 
ENDBRANCH   1  26
BRANCH   2  37
HETATM   37  O   UNL     1      43.575 -13.209   7.966  1.00  0.00    -0.360 OA
HETATM   38  H   UNL     1      42.969 -13.116   8.717  1.00  0.00     0.217 HD
ENDBRANCH   2  37
TORSDOF 9
ENDMDL
MODEL 6
REMARK VINA RESULT:      -8.8      1.708      2.385
REMARK  9 active torsions:
REMARK  status: ('A' for Active; 'I' for Inactive)
REMARK    1  A    between atoms: C_7  and  C_8 
REMARK    2  A    between atoms: C_9  and  O_10 
REMARK    3  A    between atoms: C_13  and  N_14 
REMARK    4  A    between atoms: N_14  and  C_15 
REMARK    5  A    between atoms: C_15  and  N_16 
REMARK       I    between atoms: N_16  and  C_17 
REMARK    6  A    between atoms: C_17  and  C_18 
REMARK    7  A    between atoms: C_20  and  O_21 
REMARK    8  A    between atoms: O_21  and  C_22 
REMARK    9  A    between atoms: C_22  and  C_23 
ROOT
HETATM    1  C   UNL     1      40.531 -13.690   4.295  1.00  0.00     0.052 A 
HETATM    2  C   UNL     1      39.890 -13.652   5.540  1.00  0.00     0.080 A 
HETATM    3  C   UNL     1      39.250 -12.489   5.982  1.00  0.00     0.040 A 
HETATM    4  C   UNL     1      39.242 -11.345   5.180  1.00  0.00     0.032 A 
HETATM    5  C   UNL     1      39.807 -11.381   3.907  1.00  0.00     0.035 A 
HETATM    6  C   UNL     1      40.445 -12.547   3.477  1.00  0.00     0.048 A 
ENDROOT
BRANCH   5   7
HETATM    7  N   UNL     1      39.842 -10.197   3.146  1.00  0.00    -0.333 N 
HETATM    8  H   UNL     1      39.107 -10.088   2.449  1.00  0.00     0.168 HD
BRANCH   7   9
HETATM    9  C   UNL     1      40.669  -9.115   3.307  1.00  0.00     0.179 C 
HETATM   10  S   UNL     1      40.523  -7.616   2.572  1.00  0.00    -0.040 SA
BRANCH   9  11
HETATM   11  N   UNL     1      41.730  -9.284   4.163  1.00  0.00    -0.299 N 
HETATM   12  C   UNL     1      41.731  -9.108   5.539  1.00  0.00     0.257 C 
HETATM   13  O   UNL     1      40.990  -8.349   6.151  1.00  0.00    -0.267 OA
HETATM   14  H   UNL     1      42.426  -9.902   3.767  1.00  0.00     0.171 HD
BRANCH  12  15
HETATM   15  C   UNL     1      42.731  -9.937   6.256  1.00  0.00     0.035 A 
HETATM   16  C   UNL     1      43.112  -9.629   7.569  1.00  0.00     0.053 A 
HETATM   17  C   UNL     1      44.153 -10.334   8.171  1.00  0.00     0.069 A 
HETATM   18  C   UNL     1      44.785 -11.361   7.461  1.00  0.00     0.037 A 
HETATM   19  C   UNL     1      44.382 -11.691   6.165  1.00  0.00     0.004 A 
HETATM   20  C   UNL     1      43.349 -10.978   5.559  1.00  0.00     0.017 A 
BRANCH  17  21
HETATM   21  O   UNL     1      44.660 -10.105   9.419  1.00  0.00    -0.351 OA
BRANCH  21  22
HETATM   22  C   UNL     1      44.204  -8.942  10.111  1.00  0.00     0.179 C 
BRANCH  22  23
HETATM   23  C   UNL     1      43.841  -9.299  11.562  1.00  0.00     0.002 C 
HETATM   24  C   UNL     1      43.390  -8.069  12.349  1.00  0.00     0.011 C 
HETATM   25  C   UNL     1      42.759 -10.378  11.606  1.00  0.00     0.011 C 
ENDBRANCH  22  23
ENDBRANCH  21  22
ENDBRANCH  17  21
ENDBRANCH  12  15
ENDBRANCH   9  11
ENDBRANCH   7   9
ENDBRANCH   5   7
BRANCH   1  26
HETATM   26  C   UNL     1      41.373 -14.809   3.865  1.00  0.00     0.183 A 
HETATM   27  O   UNL     1      42.385 -15.156   4.733  1.00  0.00    -0.288 OA
HETATM   28  C   UNL     1      42.880 -16.323   4.232  1.00  0.00     0.112 A 
HETATM   29  C   UNL     1      42.172 -16.613   3.079  1.00  0.00     0.094 A 
HETATM   30  C   UNL     1      43.886 -17.116   4.783  1.00  0.00    -0.025 A 
HETATM   31  C   UNL     1      42.459 -17.795   2.385  1.00  0.00     0.041 A 
HETATM   32  N   UNL     1      41.235 -15.639   2.845  1.00  0.00    -0.221 NA
HETATM   33  C   UNL     1      43.456 -18.648   2.894  1.00  0.00    -0.059 A 
HETATM   34  C   UNL     1      43.734 -19.961   2.221  1.00  0.00     0.048 C 
HETATM   35  C   UNL     1      44.140 -18.308   4.077  1.00  0.00     0.016 A 
HETATM   36  C   UNL     1      44.603 -16.794   6.053  1.00  0.00     0.051 C 
ENDBRANCH   1  26
BRANCH   2  37
HETATM   37  O   UNL     1      39.886 -14.757   6.344  1.00  0.00    -0.360 OA
HETATM   38  H   UNL     1      39.927 -15.560   5.802  1.00  0.00     0.217 HD
ENDBRANCH   2  37
TORSDOF 9
ENDMDL
MODEL 7
REMARK VINA RESULT:      -8.8      3.217      5.314
REMARK  9 active torsions:
REMARK  status: ('A' for Active; 'I' for Inactive)
REMARK    1  A    between atoms: C_7  and  C_8 
REMARK    2  A    between atoms: C_9  and  O_10 
REMARK    3  A    between atoms: C_13  and  N_14 
REMARK    4  A    between atoms: N_14  and  C_15 
REMARK    5  A    between atoms: C_15  and  N_16 
REMARK       I    between atoms: N_16  and  C_17 
REMARK    6  A    between atoms: C_17  and  C_18 
REMARK    7  A    between atoms: C_20  and  O_21 
REMARK    8  A    between atoms: O_21  and  C_22 
REMARK    9  A    between atoms: C_22  and  C_23 
ROOT
HETATM    1  C   UNL     1      41.551 -14.267   2.006  1.00  0.00     0.052 A 
HETATM    2  C   UNL     1      42.542 -15.256   2.040  1.00  0.00     0.080 A 
HETATM    3  C   UNL     1      43.008 -15.763   3.258  1.00  0.00     0.040 A 
HETATM    4  C   UNL     1      42.484 -15.285   4.462  1.00  0.00     0.032 A 
HETATM    5  C   UNL     1      41.446 -14.356   4.453  1.00  0.00     0.035 A 
HETATM    6  C   UNL     1      40.990 -13.856   3.231  1.00  0.00     0.048 A 
ENDROOT
BRANCH   5   7
HETATM    7  N   UNL     1      40.982 -13.844   5.679  1.00  0.00    -0.333 N 
HETATM    8  H   UNL     1      40.613 -14.526   6.340  1.00  0.00     0.168 HD
BRANCH   7   9
HETATM    9  C   UNL     1      41.074 -12.558   6.146  1.00  0.00     0.179 C 
HETATM   10  S   UNL     1      39.924 -11.349   6.005  1.00  0.00    -0.040 SA
BRANCH   9  11
HETATM   11  N   UNL     1      42.240 -12.232   6.797  1.00  0.00    -0.299 N 
HETATM   12  C   UNL     1      43.408 -11.747   6.227  1.00  0.00     0.257 C 
HETATM   13  O   UNL     1      43.775 -11.967   5.080  1.00  0.00    -0.267 OA
HETATM   14  H   UNL     1      42.070 -12.025   7.772  1.00  0.00     0.171 HD
BRANCH  12  15
HETATM   15  C   UNL     1      44.222 -10.905   7.138  1.00  0.00     0.035 A 
HETATM   16  C   UNL     1      43.618  -9.945   7.962  1.00  0.00     0.053 A 
HETATM   17  C   UNL     1      44.411  -9.070   8.703  1.00  0.00     0.069 A 
HETATM   18  C   UNL     1      45.803  -9.184   8.634  1.00  0.00     0.037 A 
HETATM   19  C   UNL     1      46.405 -10.163   7.841  1.00  0.00     0.004 A 
HETATM   20  C   UNL     1      45.613 -11.030   7.091  1.00  0.00     0.017 A 
BRANCH  17  21
HETATM   21  O   UNL     1      43.957  -8.058   9.501  1.00  0.00    -0.351 OA
BRANCH  21  22
HETATM   22  C   UNL     1      42.950  -8.378  10.462  1.00  0.00     0.179 C 
BRANCH  22  23
HETATM   23  C   UNL     1      43.601  -8.884  11.760  1.00  0.00     0.002 C 
HETATM   24  C   UNL     1      43.188  -8.039  12.964  1.00  0.00     0.011 C 
HETATM   25  C   UNL     1      43.260 -10.355  12.007  1.00  0.00     0.011 C 
ENDBRANCH  22  23
ENDBRANCH  21  22
ENDBRANCH  17  21
ENDBRANCH  12  15
ENDBRANCH   9  11
ENDBRANCH   7   9
ENDBRANCH   5   7
BRANCH   1  26
HETATM   26  C   UNL     1      41.162 -13.569   0.778  1.00  0.00     0.183 A 
HETATM   27  O   UNL     1      40.558 -14.351  -0.182  1.00  0.00    -0.288 OA
HETATM   28  C   UNL     1      40.108 -13.464  -1.113  1.00  0.00     0.112 A 
HETATM   29  C   UNL     1      40.480 -12.198  -0.694  1.00  0.00     0.094 A 
HETATM   30  C   UNL     1      39.372 -13.750  -2.263  1.00  0.00    -0.025 A 
HETATM   31  C   UNL     1      40.099 -11.090  -1.461  1.00  0.00     0.041 A 
HETATM   32  N   UNL     1      41.162 -12.278   0.492  1.00  0.00    -0.221 NA
HETATM   33  C   UNL     1      39.343 -11.308  -2.628  1.00  0.00    -0.059 A 
HETATM   34  C   UNL     1      38.849 -10.138  -3.430  1.00  0.00     0.048 C 
HETATM   35  C   UNL     1      38.984 -12.617  -3.003  1.00  0.00     0.016 A 
HETATM   36  C   UNL     1      38.951 -15.126  -2.665  1.00  0.00     0.051 C 
ENDBRANCH   1  26
BRANCH   2  37
HETATM   37  O   UNL     1      43.071 -15.738   0.876  1.00  0.00    -0.360 OA
HETATM   38  H   UNL     1      43.583 -16.542   1.054  1.00  0.00     0.217 HD
ENDBRANCH   2  37
TORSDOF 9
ENDMDL
MODEL 8
REMARK VINA RESULT:      -8.7      1.857      2.508
REMARK  9 active torsions:
REMARK  status: ('A' for Active; 'I' for Inactive)
REMARK    1  A    between atoms: C_7  and  C_8 
REMARK    2  A    between atoms: C_9  and  O_10 
REMARK    3  A    between atoms: C_13  and  N_14 
REMARK    4  A    between atoms: N_14  and  C_15 
REMARK    5  A    between atoms: C_15  and  N_16 
REMARK       I    between atoms: N_16  and  C_17 
REMARK    6  A    between atoms: C_17  and  C_18 
REMARK    7  A    between atoms: C_20  and  O_21 
REMARK    8  A    between atoms: O_21  and  C_22 
REMARK    9  A    between atoms: C_22  and  C_23 
ROOT
HETATM    1  C   UNL     1      41.949 -13.529   4.252  1.00  0.00     0.052 A 
HETATM    2  C   UNL     1      40.570 -13.285   4.255  1.00  0.00     0.080 A 
HETATM    3  C   UNL     1      40.053 -12.097   4.784  1.00  0.00     0.040 A 
HETATM    4  C   UNL     1      40.915 -11.135   5.318  1.00  0.00     0.032 A 
HETATM    5  C   UNL     1      42.294 -11.322   5.259  1.00  0.00     0.035 A 
HETATM    6  C   UNL     1      42.798 -12.512   4.730  1.00  0.00     0.048 A 
ENDROOT
BRANCH   5   7
HETATM    7  N   UNL     1      43.135 -10.367   5.861  1.00  0.00    -0.333 N 
HETATM    8  H   UNL     1      43.098  -9.426   5.472  1.00  0.00     0.168 HD
BRANCH   7   9
HETATM    9  C   UNL     1      43.908 -10.512   6.984  1.00  0.00     0.179 C 
HETATM   10  S   UNL     1      45.440 -11.185   7.074  1.00  0.00    -0.040 SA
BRANCH   9  11
HETATM   11  N   UNL     1      43.361 -10.058   8.160  1.00  0.00    -0.299 N 
HETATM   12  C   UNL     1      42.395  -9.073   8.307  1.00  0.00     0.257 C 
HETATM   13  O   UNL     1      42.215  -8.143   7.531  1.00  0.00    -0.267 OA
HETATM   14  H   UNL     1      43.448 -10.747   8.896  1.00  0.00     0.171 HD
BRANCH  12  15
HETATM   15  C   UNL     1      41.553  -9.226   9.519  1.00  0.00     0.035 A 
HETATM   16  C   UNL     1      42.136  -9.377  10.785  1.00  0.00     0.053 A 
HETATM   17  C   UNL     1      41.331  -9.660  11.888  1.00  0.00     0.069 A 
HETATM   18  C   UNL     1      39.947  -9.761  11.718  1.00  0.00     0.037 A 
HETATM   19  C   UNL     1      39.363  -9.576  10.462  1.00  0.00     0.004 A 
HETATM   20  C   UNL     1      40.167  -9.305   9.357  1.00  0.00     0.017 A 
BRANCH  17  21
HETATM   21  O   UNL     1      41.770  -9.883  13.163  1.00  0.00    -0.351 OA
BRANCH  21  22
HETATM   22  C   UNL     1      41.375  -8.947  14.168  1.00  0.00     0.179 C 
BRANCH  22  23
HETATM   23  C   UNL     1      41.796  -7.526  13.760  1.00  0.00     0.002 C 
HETATM   24  C   UNL     1      40.857  -6.471  14.343  1.00  0.00     0.011 C 
HETATM   25  C   UNL     1      43.238  -7.239  14.182  1.00  0.00     0.011 C 
ENDBRANCH  22  23
ENDBRANCH  21  22
ENDBRANCH  17  21
ENDBRANCH  12  15
ENDBRANCH   9  11
ENDBRANCH   7   9
ENDBRANCH   5   7
BRANCH   1  26
HETATM   26  C   UNL     1      42.529 -14.824   3.888  1.00  0.00     0.183 A 
HETATM   27  O   UNL     1      42.883 -15.633   4.946  1.00  0.00    -0.288 OA
HETATM   28  C   UNL     1      43.189 -16.831   4.373  1.00  0.00     0.112 A 
HETATM   29  C   UNL     1      43.036 -16.688   3.006  1.00  0.00     0.094 A 
HETATM   30  C   UNL     1      43.554 -18.008   5.027  1.00  0.00    -0.025 A 
HETATM   31  C   UNL     1      43.252 -17.798   2.179  1.00  0.00     0.041 A 
HETATM   32  N   UNL     1      42.637 -15.411   2.708  1.00  0.00    -0.221 NA
HETATM   33  C   UNL     1      43.610 -19.021   2.776  1.00  0.00    -0.059 A 
HETATM   34  C   UNL     1      43.770 -20.250   1.928  1.00  0.00     0.048 C 
HETATM   35  C   UNL     1      43.744 -19.113   4.174  1.00  0.00     0.016 A 
HETATM   36  C   UNL     1      43.670 -18.139   6.510  1.00  0.00     0.051 C 
ENDBRANCH   1  26
BRANCH   2  37
HETATM   37  O   UNL     1      39.707 -14.211   3.740  1.00  0.00    -0.360 OA
HETATM   38  H   UNL     1      39.620 -14.958   4.353  1.00  0.00     0.217 HD
ENDBRANCH   2  37
TORSDOF 9
ENDMDL
MODEL 9
REMARK VINA RESULT:      -8.7      2.720      3.788
REMARK  9 active torsions:
REMARK  status: ('A' for Active; 'I' for Inactive)
REMARK    1  A    between atoms: C_7  and  C_8 
REMARK    2  A    between atoms: C_9  and  O_10 
REMARK    3  A    between atoms: C_13  and  N_14 
REMARK    4  A    between atoms: N_14  and  C_15 
REMARK    5  A    between atoms: C_15  and  N_16 
REMARK       I    between atoms: N_16  and  C_17 
REMARK    6  A    between atoms: C_17  and  C_18 
REMARK    7  A    between atoms: C_20  and  O_21 
REMARK    8  A    between atoms: O_21  and  C_22 
REMARK    9  A    between atoms: C_22  and  C_23 
ROOT
HETATM    1  C   UNL     1      41.351 -12.553   5.749  1.00  0.00     0.052 A 
HETATM    2  C   UNL     1      40.047 -12.179   6.099  1.00  0.00     0.080 A 
HETATM    3  C   UNL     1      39.800 -10.968   6.755  1.00  0.00     0.040 A 
HETATM    4  C   UNL     1      40.859 -10.112   7.069  1.00  0.00     0.032 A 
HETATM    5  C   UNL     1      42.154 -10.426   6.665  1.00  0.00     0.035 A 
HETATM    6  C   UNL     1      42.390 -11.638   6.011  1.00  0.00     0.048 A 
ENDROOT
BRANCH   5   7
HETATM    7  N   UNL     1      43.210  -9.578   7.049  1.00  0.00    -0.333 N 
HETATM    8  H   UNL     1      43.180  -8.627   6.682  1.00  0.00     0.168 HD
BRANCH   7   9
HETATM    9  C   UNL     1      44.210  -9.832   7.953  1.00  0.00     0.179 C 
HETATM   10  S   UNL     1      45.509 -10.871   7.754  1.00  0.00    -0.040 SA
BRANCH   9  11
HETATM   11  N   UNL     1      44.131  -9.160   9.149  1.00  0.00    -0.299 N 
HETATM   12  C   UNL     1      43.664  -7.870   9.354  1.00  0.00     0.257 C 
HETATM   13  O   UNL     1      43.695  -6.970   8.524  1.00  0.00    -0.267 OA
HETATM   14  H   UNL     1      44.098  -9.803   9.930  1.00  0.00     0.171 HD
BRANCH  12  15
HETATM   15  C   UNL     1      43.095  -7.639  10.705  1.00  0.00     0.035 A 
HETATM   16  C   UNL     1      42.194  -6.592  10.937  1.00  0.00     0.053 A 
HETATM   17  C   UNL     1      41.783  -6.306  12.238  1.00  0.00     0.069 A 
HETATM   18  C   UNL     1      42.257  -7.093  13.293  1.00  0.00     0.037 A 
HETATM   19  C   UNL     1      43.128  -8.159  13.059  1.00  0.00     0.004 A 
HETATM   20  C   UNL     1      43.549  -8.437  11.759  1.00  0.00     0.017 A 
BRANCH  17  21
HETATM   21  O   UNL     1      40.954  -5.286  12.611  1.00  0.00    -0.351 OA
BRANCH  21  22
HETATM   22  C   UNL     1      39.872  -5.604  13.489  1.00  0.00     0.179 C 
BRANCH  22  23
HETATM   23  C   UNL     1      38.592  -5.858  12.677  1.00  0.00     0.002 C 
HETATM   24  C   UNL     1      37.883  -7.134  13.127  1.00  0.00     0.011 C 
HETATM   25  C   UNL     1      37.638  -4.665  12.771  1.00  0.00     0.011 C 
ENDBRANCH  22  23
ENDBRANCH  21  22
ENDBRANCH  17  21
ENDBRANCH  12  15
ENDBRANCH   9  11
ENDBRANCH   7   9
ENDBRANCH   5   7
BRANCH   1  26
HETATM   26  C   UNL     1      41.689 -13.882   5.235  1.00  0.00     0.183 A 
HETATM   27  O   UNL     1      40.968 -14.293   4.135  1.00  0.00    -0.288 OA
HETATM   28  C   UNL     1      41.591 -15.433   3.724  1.00  0.00     0.112 A 
HETATM   29  C   UNL     1      42.634 -15.675   4.601  1.00  0.00     0.094 A 
HETATM   30  C   UNL     1      41.279 -16.208   2.608  1.00  0.00    -0.025 A 
HETATM   31  C   UNL     1      43.469 -16.777   4.375  1.00  0.00     0.041 A 
HETATM   32  N   UNL     1      42.676 -14.699   5.563  1.00  0.00    -0.221 NA
HETATM   33  C   UNL     1      43.216 -17.594   3.257  1.00  0.00    -0.059 A 
HETATM   34  C   UNL     1      44.138 -18.736   2.940  1.00  0.00     0.048 C 
HETATM   35  C   UNL     1      42.145 -17.296   2.392  1.00  0.00     0.016 A 
HETATM   36  C   UNL     1      40.169 -15.895   1.657  1.00  0.00     0.051 C 
ENDBRANCH   1  26
BRANCH   2  37
HETATM   37  O   UNL     1      38.995 -13.000   5.805  1.00  0.00    -0.360 OA
HETATM   38  H   UNL     1      38.455 -13.142   6.598  1.00  0.00     0.217 HD
ENDBRANCH   2  37
TORSDOF 9
ENDMDL
MODEL 10
REMARK VINA RESULT:      -8.7      2.600      4.251
REMARK  9 active torsions:
REMARK  status: ('A' for Active; 'I' for Inactive)
REMARK    1  A    between atoms: C_7  and  C_8 
REMARK    2  A    between atoms: C_9  and  O_10 
REMARK    3  A    between atoms: C_13  and  N_14 
REMARK    4  A    between atoms: N_14  and  C_15 
REMARK    5  A    between atoms: C_15  and  N_16 
REMARK       I    between atoms: N_16  and  C_17 
REMARK    6  A    between atoms: C_17  and  C_18 
REMARK    7  A    between atoms: C_20  and  O_21 
REMARK    8  A    between atoms: O_21  and  C_22 
REMARK    9  A    between atoms: C_22  and  C_23 
ROOT
HETATM    1  C   UNL     1      40.996 -14.143   1.186  1.00  0.00     0.052 A 
HETATM    2  C   UNL     1      40.002 -14.638   0.332  1.00  0.00     0.080 A 
HETATM    3  C   UNL     1      39.450 -13.832  -0.670  1.00  0.00     0.040 A 
HETATM    4  C   UNL     1      39.887 -12.515  -0.830  1.00  0.00     0.032 A 
HETATM    5  C   UNL     1      40.926 -12.023  -0.043  1.00  0.00     0.035 A 
HETATM    6  C   UNL     1      41.469 -12.836   0.955  1.00  0.00     0.048 A 
ENDROOT
BRANCH   5   7
HETATM    7  N   UNL     1      41.304 -10.674  -0.182  1.00  0.00    -0.333 N 
HETATM    8  H   UNL     1      41.736 -10.417  -1.068  1.00  0.00     0.168 HD
BRANCH   7   9
HETATM    9  C   UNL     1      41.053  -9.635   0.677  1.00  0.00     0.179 C 
HETATM   10  S   UNL     1      40.014  -8.345   0.424  1.00  0.00    -0.040 SA
BRANCH   9  11
HETATM   11  N   UNL     1      41.731  -9.659   1.872  1.00  0.00    -0.299 N 
HETATM   12  C   UNL     1      41.220  -9.995   3.117  1.00  0.00     0.257 C 
HETATM   13  O   UNL     1      40.051  -9.862   3.456  1.00  0.00    -0.267 OA
HETATM   14  H   UNL     1      42.727  -9.765   1.726  1.00  0.00     0.171 HD
BRANCH  12  15
HETATM   15  C   UNL     1      42.226 -10.552   4.054  1.00  0.00     0.035 A 
HETATM   16  C   UNL     1      42.193 -10.232   5.418  1.00  0.00     0.053 A 
HETATM   17  C   UNL     1      43.228 -10.652   6.254  1.00  0.00     0.069 A 
HETATM   18  C   UNL     1      44.272 -11.414   5.720  1.00  0.00     0.037 A 
HETATM   19  C   UNL     1      44.287 -11.763   4.367  1.00  0.00     0.004 A 
HETATM   20  C   UNL     1      43.259 -11.333   3.530  1.00  0.00     0.017 A 
BRANCH  17  21
HETATM   21  O   UNL     1      43.349 -10.367   7.585  1.00  0.00    -0.351 OA
BRANCH  21  22
HETATM   22  C   UNL     1      43.688  -9.027   7.943  1.00  0.00     0.179 C 
BRANCH  22  23
HETATM   23  C   UNL     1      44.923  -9.022   8.858  1.00  0.00     0.002 C 
HETATM   24  C   UNL     1      44.816 -10.080   9.955  1.00  0.00     0.011 C 
HETATM   25  C   UNL     1      46.205  -9.231   8.050  1.00  0.00     0.011 C 
ENDBRANCH  22  23
ENDBRANCH  21  22
ENDBRANCH  17  21
ENDBRANCH  12  15
ENDBRANCH   9  11
ENDBRANCH   7   9
ENDBRANCH   5   7
BRANCH   1  26
HETATM   26  C   UNL     1      41.472 -14.872   2.363  1.00  0.00     0.183 A 
HETATM   27  O   UNL     1      42.007 -16.116   2.112  1.00  0.00    -0.288 OA
HETATM   28  C   UNL     1      42.560 -16.497   3.298  1.00  0.00     0.112 A 
HETATM   29  C   UNL     1      42.313 -15.489   4.213  1.00  0.00     0.094 A 
HETATM   30  C   UNL     1      43.280 -17.663   3.556  1.00  0.00    -0.025 A 
HETATM   31  C   UNL     1      42.817 -15.614   5.513  1.00  0.00     0.041 A 
HETATM   32  N   UNL     1      41.609 -14.475   3.617  1.00  0.00    -0.221 NA
HETATM   33  C   UNL     1      43.565 -16.762   5.837  1.00  0.00    -0.059 A 
HETATM   34  C   UNL     1      44.187 -16.892   7.197  1.00  0.00     0.048 C 
HETATM   35  C   UNL     1      43.793 -17.754   4.864  1.00  0.00     0.016 A 
HETATM   36  C   UNL     1      43.563 -18.714   2.533  1.00  0.00     0.051 C 
ENDBRANCH   1  26
BRANCH   2  37
HETATM   37  O   UNL     1      39.556 -15.922   0.470  1.00  0.00    -0.360 OA
HETATM   38  H   UNL     1      38.897 -15.969   1.180  1.00  0.00     0.217 HD
ENDBRANCH   2  37
TORSDOF 9
ENDMDL
