MODEL 1
REMARK VINA RESULT:      -7.7      0.000      0.000
REMARK  5 active torsions:
REMARK  status: ('A' for Active; 'I' for Inactive)
REMARK    1  A    between atoms: C_2  and  C_3 
REMARK       I    between atoms: C_3  and  N_4 
REMARK    2  A    between atoms: N_4  and  C_5 
REMARK    3  A    between atoms: C_7  and  N_8 
REMARK       I    between atoms: N_8  and  C_9 
REMARK       I    between atoms: C_9  and  N_10 
REMARK    4  A    between atoms: N_10  and  C_11 
REMARK    5  A    between atoms: C_11  and  C_12 
ROOT
HETATM    1  N   UNL     1      39.875 -13.652   4.232  1.00  0.00    -0.306 N 
HETATM    2  C   UNL     1      40.496 -13.953   5.384  1.00  0.00     0.321 C 
HETATM    3  N   UNL     1      41.737 -14.438   5.492  1.00  0.00    -0.338 N 
HETATM    4  O   UNL     1      39.898 -13.701   6.435  1.00  0.00    -0.247 OA
HETATM    5  H   UNL     1      39.077 -13.053   4.431  1.00  0.00     0.171 HD
HETATM    6  H   UNL     1      41.980 -14.541   6.468  1.00  0.00     0.164 HD
ENDROOT
BRANCH   1   7
HETATM    7  C   UNL     1      39.975 -14.023   2.882  1.00  0.00     0.077 C 
HETATM    8  C   UNL     1      40.229 -13.155   1.820  1.00  0.00     0.062 C 
HETATM    9  C   UNL     1      40.220 -13.617   0.496  1.00  0.00     0.037 C 
HETATM   10  C   UNL     1      40.095 -14.990   0.248  1.00  0.00     0.032 C 
HETATM   11  C   UNL     1      39.941 -15.884   1.306  1.00  0.00     0.047 C 
HETATM   12  C   UNL     1      39.871 -15.393   2.603  1.00  0.00     0.143 C 
HETATM   13  F   UNL     1      39.694 -16.263   3.610  1.00  0.00    -0.204 F 
BRANCH   9  14
HETATM   14  N   UNL     1      40.275 -12.773  -0.634  1.00  0.00    -0.327 N 
HETATM   15  C   UNL     1      39.218 -12.368  -1.431  1.00  0.00     0.221 C 
HETATM   16  O   UNL     1      38.024 -12.514  -1.193  1.00  0.00    -0.273 OA
HETATM   17  H   UNL     1      41.202 -12.524  -0.958  1.00  0.00     0.169 HD
BRANCH  15  18
HETATM   18  C   UNL     1      39.675 -11.733  -2.730  1.00  0.00     0.098 C 
HETATM   19  C   UNL     1      41.097 -12.152  -3.071  1.00  0.00     0.014 C 
ENDBRANCH  15  18
ENDBRANCH   9  14
ENDBRANCH   1   7
BRANCH   3  20
HETATM   20  C   UNL     1      42.858 -14.446   4.580  1.00  0.00     0.167 C 
BRANCH  20  21
HETATM   21  C   UNL     1      43.168 -15.847   4.167  1.00  0.00     0.009 A 
HETATM   22  C   UNL     1      43.425 -16.322   2.850  1.00  0.00     0.060 A 
HETATM   23  C   UNL     1      43.463 -15.541   1.588  1.00  0.00     0.073 C 
HETATM   24  N   UNL     1      43.617 -17.646   2.824  1.00  0.00    -0.179 NA
HETATM   25  N   UNL     1      43.475 -18.023   4.101  1.00  0.00    -0.282 N 
HETATM   26  H   UNL     1      43.569 -19.009   4.322  1.00  0.00     0.189 HD
HETATM   27  C   UNL     1      43.187 -16.993   4.950  1.00  0.00     0.034 A 
HETATM   28  C   UNL     1      42.948 -17.210   6.396  1.00  0.00     0.070 C 
ENDBRANCH  20  21
ENDBRANCH   3  20
TORSDOF 5
ENDMDL
MODEL 2
REMARK VINA RESULT:      -7.6      0.127      1.658
REMARK  5 active torsions:
REMARK  status: ('A' for Active; 'I' for Inactive)
REMARK    1  A    between atoms: C_2  and  C_3 
REMARK       I    between atoms: C_3  and  N_4 
REMARK    2  A    between atoms: N_4  and  C_5 
REMARK    3  A    between atoms: C_7  and  N_8 
REMARK       I    between atoms: N_8  and  C_9 
REMARK       I    between atoms: C_9  and  N_10 
REMARK    4  A    between atoms: N_10  and  C_11 
REMARK    5  A    between atoms: C_11  and  C_12 
ROOT
HETATM    1  N   UNL     1      39.847 -13.715   4.219  1.00  0.00    -0.306 N 
HETATM    2  C   UNL     1      40.458 -14.018   5.375  1.00  0.00     0.321 C 
HETATM    3  N   UNL     1      41.695 -14.512   5.493  1.00  0.00    -0.338 N 
HETATM    4  O   UNL     1      39.855 -13.757   6.422  1.00  0.00    -0.247 OA
HETATM    5  H   UNL     1      39.053 -13.109   4.410  1.00  0.00     0.171 HD
HETATM    6  H   UNL     1      41.930 -14.614   6.471  1.00  0.00     0.164 HD
ENDROOT
BRANCH   1   7
HETATM    7  C   UNL     1      39.953 -14.091   2.870  1.00  0.00     0.077 C 
HETATM    8  C   UNL     1      40.212 -13.228   1.806  1.00  0.00     0.062 C 
HETATM    9  C   UNL     1      40.209 -13.695   0.484  1.00  0.00     0.037 C 
HETATM   10  C   UNL     1      40.084 -15.069   0.241  1.00  0.00     0.032 C 
HETATM   11  C   UNL     1      39.924 -15.959   1.301  1.00  0.00     0.047 C 
HETATM   12  C   UNL     1      39.849 -15.462   2.596  1.00  0.00     0.143 C 
HETATM   13  F   UNL     1      39.666 -16.329   3.606  1.00  0.00    -0.204 F 
BRANCH   9  14
HETATM   14  N   UNL     1      40.270 -12.856  -0.650  1.00  0.00    -0.327 N 
HETATM   15  C   UNL     1      39.212 -12.426  -1.432  1.00  0.00     0.221 C 
HETATM   16  O   UNL     1      38.018 -12.540  -1.177  1.00  0.00    -0.273 OA
HETATM   17  H   UNL     1      41.198 -12.632  -0.987  1.00  0.00     0.169 HD
BRANCH  15  18
HETATM   18  C   UNL     1      39.667 -11.806  -2.740  1.00  0.00     0.098 C 
HETATM   19  C   UNL     1      41.108 -12.183  -3.050  1.00  0.00     0.014 C 
ENDBRANCH  15  18
ENDBRANCH   9  14
ENDBRANCH   1   7
BRANCH   3  20
HETATM   20  C   UNL     1      42.822 -14.532   4.588  1.00  0.00     0.167 C 
BRANCH  20  21
HETATM   21  C   UNL     1      43.117 -15.936   4.174  1.00  0.00     0.009 A 
HETATM   22  C   UNL     1      43.269 -17.071   5.019  1.00  0.00     0.060 A 
HETATM   23  C   UNL     1      43.153 -17.131   6.498  1.00  0.00     0.073 C 
HETATM   24  N   UNL     1      43.581 -18.173   4.327  1.00  0.00    -0.179 NA
HETATM   25  N   UNL     1      43.642 -17.754   3.055  1.00  0.00    -0.282 N 
HETATM   26  H   UNL     1      43.880 -18.433   2.340  1.00  0.00     0.189 HD
HETATM   27  C   UNL     1      43.391 -16.421   2.903  1.00  0.00     0.034 A 
HETATM   28  C   UNL     1      43.455 -15.756   1.579  1.00  0.00     0.070 C 
ENDBRANCH  20  21
ENDBRANCH   3  20
TORSDOF 5
ENDMDL
MODEL 3
REMARK VINA RESULT:      -7.6      2.630      6.150
REMARK  5 active torsions:
REMARK  status: ('A' for Active; 'I' for Inactive)
REMARK    1  A    between atoms: C_2  and  C_3 
REMARK       I    between atoms: C_3  and  N_4 
REMARK    2  A    between atoms: N_4  and  C_5 
REMARK    3  A    between atoms: C_7  and  N_8 
REMARK       I    between atoms: N_8  and  C_9 
REMARK       I    between atoms: C_9  and  N_10 
REMARK    4  A    between atoms: N_10  and  C_11 
REMARK    5  A    between atoms: C_11  and  C_12 
ROOT
HETATM    1  N   UNL     1      40.875 -14.794   5.825  1.00  0.00    -0.306 N 
HETATM    2  C   UNL     1      40.449 -13.569   5.480  1.00  0.00     0.321 C 
HETATM    3  N   UNL     1      40.960 -12.818   4.499  1.00  0.00    -0.338 N 
HETATM    4  O   UNL     1      39.460 -13.123   6.071  1.00  0.00    -0.247 OA
HETATM    5  H   UNL     1      40.160 -15.249   6.388  1.00  0.00     0.171 HD
HETATM    6  H   UNL     1      40.437 -11.957   4.418  1.00  0.00     0.164 HD
ENDROOT
BRANCH   1   7
HETATM    7  C   UNL     1      42.056 -15.546   5.705  1.00  0.00     0.077 C 
HETATM    8  C   UNL     1      42.286 -16.546   4.761  1.00  0.00     0.062 C 
HETATM    9  C   UNL     1      43.470 -17.298   4.785  1.00  0.00     0.037 C 
HETATM   10  C   UNL     1      44.490 -16.945   5.678  1.00  0.00     0.032 C 
HETATM   11  C   UNL     1      44.315 -15.882   6.561  1.00  0.00     0.047 C 
HETATM   12  C   UNL     1      43.102 -15.205   6.573  1.00  0.00     0.143 C 
HETATM   13  F   UNL     1      42.936 -14.201   7.450  1.00  0.00    -0.204 F 
BRANCH   9  14
HETATM   14  N   UNL     1      43.692 -18.445   3.993  1.00  0.00    -0.327 N 
HETATM   15  C   UNL     1      43.431 -18.596   2.642  1.00  0.00     0.221 C 
HETATM   16  O   UNL     1      43.137 -17.707   1.850  1.00  0.00    -0.273 OA
HETATM   17  H   UNL     1      43.973 -19.281   4.491  1.00  0.00     0.169 HD
BRANCH  15  18
HETATM   18  C   UNL     1      43.490 -20.044   2.193  1.00  0.00     0.098 C 
HETATM   19  C   UNL     1      43.843 -20.960   3.354  1.00  0.00     0.014 C 
ENDBRANCH  15  18
ENDBRANCH   9  14
ENDBRANCH   1   7
BRANCH   3  20
HETATM   20  C   UNL     1      41.777 -13.146   3.351  1.00  0.00     0.167 C 
BRANCH  20  21
HETATM   21  C   UNL     1      40.930 -13.201   2.123  1.00  0.00     0.009 A 
HETATM   22  C   UNL     1      40.734 -12.168   1.163  1.00  0.00     0.060 A 
HETATM   23  C   UNL     1      41.333 -10.810   1.147  1.00  0.00     0.073 C 
HETATM   24  N   UNL     1      39.870 -12.530   0.208  1.00  0.00    -0.179 NA
HETATM   25  N   UNL     1      39.505 -13.773   0.550  1.00  0.00    -0.282 N 
HETATM   26  H   UNL     1      38.831 -14.252  -0.038  1.00  0.00     0.189 HD
HETATM   27  C   UNL     1      40.093 -14.222   1.698  1.00  0.00     0.034 A 
HETATM   28  C   UNL     1      39.783 -15.554   2.269  1.00  0.00     0.070 C 
ENDBRANCH  20  21
ENDBRANCH   3  20
TORSDOF 5
ENDMDL
MODEL 4
REMARK VINA RESULT:      -7.6      3.155      6.143
REMARK  5 active torsions:
REMARK  status: ('A' for Active; 'I' for Inactive)
REMARK    1  A    between atoms: C_2  and  C_3 
REMARK       I    between atoms: C_3  and  N_4 
REMARK    2  A    between atoms: N_4  and  C_5 
REMARK    3  A    between atoms: C_7  and  N_8 
REMARK       I    between atoms: N_8  and  C_9 
REMARK       I    between atoms: C_9  and  N_10 
REMARK    4  A    between atoms: N_10  and  C_11 
REMARK    5  A    between atoms: C_11  and  C_12 
ROOT
HETATM    1  N   UNL     1      43.090 -13.639   5.205  1.00  0.00    -0.306 N 
HETATM    2  C   UNL     1      42.285 -12.674   5.676  1.00  0.00     0.321 C 
HETATM    3  N   UNL     1      40.987 -12.536   5.385  1.00  0.00    -0.338 N 
HETATM    4  O   UNL     1      42.762 -11.885   6.498  1.00  0.00    -0.247 OA
HETATM    5  H   UNL     1      43.926 -13.687   5.783  1.00  0.00     0.171 HD
HETATM    6  H   UNL     1      40.602 -11.755   5.899  1.00  0.00     0.164 HD
ENDROOT
BRANCH   1   7
HETATM    7  C   UNL     1      43.126 -14.499   4.095  1.00  0.00     0.077 C 
HETATM    8  C   UNL     1      42.927 -15.878   4.133  1.00  0.00     0.062 C 
HETATM    9  C   UNL     1      43.073 -16.658   2.977  1.00  0.00     0.037 C 
HETATM   10  C   UNL     1      43.281 -16.026   1.744  1.00  0.00     0.032 C 
HETATM   11  C   UNL     1      43.382 -14.638   1.674  1.00  0.00     0.047 C 
HETATM   12  C   UNL     1      43.315 -13.895   2.845  1.00  0.00     0.143 C 
HETATM   13  F   UNL     1      43.443 -12.560   2.766  1.00  0.00    -0.204 F 
BRANCH   9  14
HETATM   14  N   UNL     1      43.080 -18.070   2.972  1.00  0.00    -0.327 N 
HETATM   15  C   UNL     1      43.992 -18.906   3.591  1.00  0.00     0.221 C 
HETATM   16  O   UNL     1      44.848 -18.581   4.407  1.00  0.00    -0.273 OA
HETATM   17  H   UNL     1      42.405 -18.515   2.363  1.00  0.00     0.169 HD
BRANCH  15  18
HETATM   18  C   UNL     1      43.883 -20.343   3.118  1.00  0.00     0.098 C 
HETATM   19  C   UNL     1      43.282 -20.413   1.723  1.00  0.00     0.014 C 
ENDBRANCH  15  18
ENDBRANCH   9  14
ENDBRANCH   1   7
BRANCH   3  20
HETATM   20  C   UNL     1      40.008 -13.459   4.854  1.00  0.00     0.167 C 
BRANCH  20  21
HETATM   21  C   UNL     1      39.726 -13.133   3.424  1.00  0.00     0.009 A 
HETATM   22  C   UNL     1      39.422 -11.855   2.874  1.00  0.00     0.060 A 
HETATM   23  C   UNL     1      39.334 -10.554   3.581  1.00  0.00     0.073 C 
HETATM   24  N   UNL     1      39.171 -11.923   1.561  1.00  0.00    -0.179 NA
HETATM   25  N   UNL     1      39.298 -13.224   1.270  1.00  0.00    -0.282 N 
HETATM   26  H   UNL     1      39.136 -13.517   0.312  1.00  0.00     0.189 HD
HETATM   27  C   UNL     1      39.611 -14.001   2.348  1.00  0.00     0.034 A 
HETATM   28  C   UNL     1      39.750 -15.473   2.241  1.00  0.00     0.070 C 
ENDBRANCH  20  21
ENDBRANCH   3  20
TORSDOF 5
ENDMDL
MODEL 5
REMARK VINA RESULT:      -7.5      3.362      5.591
REMARK  5 active torsions:
REMARK  status: ('A' for Active; 'I' for Inactive)
REMARK    1  A    between atoms: C_2  and  C_3 
REMARK       I    between atoms: C_3  and  N_4 
REMARK    2  A    between atoms: N_4  and  C_5 
REMARK    3  A    between atoms: C_7  and  N_8 
REMARK       I    between atoms: N_8  and  C_9 
REMARK       I    between atoms: C_9  and  N_10 
REMARK    4  A    between atoms: N_10  and  C_11 
REMARK    5  A    between atoms: C_11  and  C_12 
ROOT
HETATM    1  N   UNL     1      43.393 -13.036   2.879  1.00  0.00    -0.306 N 
HETATM    2  C   UNL     1      43.548 -12.062   3.789  1.00  0.00     0.321 C 
HETATM    3  N   UNL     1      43.307 -12.178   5.099  1.00  0.00    -0.338 N 
HETATM    4  O   UNL     1      44.016 -10.987   3.397  1.00  0.00    -0.247 OA
HETATM    5  H   UNL     1      43.901 -12.786   2.033  1.00  0.00     0.171 HD
HETATM    6  H   UNL     1      43.540 -11.313   5.567  1.00  0.00     0.164 HD
ENDROOT
BRANCH   1   7
HETATM    7  C   UNL     1      42.651 -14.222   2.757  1.00  0.00     0.077 C 
HETATM    8  C   UNL     1      43.173 -15.513   2.806  1.00  0.00     0.062 C 
HETATM    9  C   UNL     1      42.354 -16.630   2.584  1.00  0.00     0.037 C 
HETATM   10  C   UNL     1      40.971 -16.451   2.450  1.00  0.00     0.032 C 
HETATM   11  C   UNL     1      40.419 -15.173   2.499  1.00  0.00     0.047 C 
HETATM   12  C   UNL     1      41.262 -14.077   2.639  1.00  0.00     0.143 C 
HETATM   13  F   UNL     1      40.719 -12.848   2.656  1.00  0.00    -0.204 F 
BRANCH   9  14
HETATM   14  N   UNL     1      42.839 -17.946   2.426  1.00  0.00    -0.327 N 
HETATM   15  C   UNL     1      43.655 -18.649   3.294  1.00  0.00     0.221 C 
HETATM   16  O   UNL     1      43.952 -18.330   4.441  1.00  0.00    -0.273 OA
HETATM   17  H   UNL     1      42.656 -18.382   1.530  1.00  0.00     0.169 HD
BRANCH  15  18
HETATM   18  C   UNL     1      44.236 -19.902   2.666  1.00  0.00     0.098 C 
HETATM   19  C   UNL     1      43.309 -20.454   1.595  1.00  0.00     0.014 C 
ENDBRANCH  15  18
ENDBRANCH   9  14
ENDBRANCH   1   7
BRANCH   3  20
HETATM   20  C   UNL     1      43.188 -13.330   5.965  1.00  0.00     0.167 C 
BRANCH  20  21
HETATM   21  C   UNL     1      41.755 -13.738   6.075  1.00  0.00     0.009 A 
HETATM   22  C   UNL     1      40.618 -12.884   6.133  1.00  0.00     0.060 A 
HETATM   23  C   UNL     1      40.584 -11.402   6.078  1.00  0.00     0.073 C 
HETATM   24  N   UNL     1      39.481 -13.575   6.283  1.00  0.00    -0.179 NA
HETATM   25  N   UNL     1      39.879 -14.853   6.334  1.00  0.00    -0.282 N 
HETATM   26  H   UNL     1      39.172 -15.569   6.459  1.00  0.00     0.189 HD
HETATM   27  C   UNL     1      41.232 -15.012   6.233  1.00  0.00     0.034 A 
HETATM   28  C   UNL     1      41.873 -16.346   6.314  1.00  0.00     0.070 C 
ENDBRANCH  20  21
ENDBRANCH   3  20
TORSDOF 5
ENDMDL
MODEL 6
REMARK VINA RESULT:      -7.5      1.916      2.316
REMARK  5 active torsions:
REMARK  status: ('A' for Active; 'I' for Inactive)
REMARK    1  A    between atoms: C_2  and  C_3 
REMARK       I    between atoms: C_3  and  N_4 
REMARK    2  A    between atoms: N_4  and  C_5 
REMARK    3  A    between atoms: C_7  and  N_8 
REMARK       I    between atoms: N_8  and  C_9 
REMARK       I    between atoms: C_9  and  N_10 
REMARK    4  A    between atoms: N_10  and  C_11 
REMARK    5  A    between atoms: C_11  and  C_12 
ROOT
HETATM    1  N   UNL     1      40.333 -14.702   4.941  1.00  0.00    -0.306 N 
HETATM    2  C   UNL     1      40.612 -15.752   5.730  1.00  0.00     0.321 C 
HETATM    3  N   UNL     1      41.706 -16.515   5.647  1.00  0.00    -0.338 N 
HETATM    4  O   UNL     1      39.827 -15.994   6.653  1.00  0.00    -0.247 OA
HETATM    5  H   UNL     1      39.609 -14.138   5.380  1.00  0.00     0.171 HD
HETATM    6  H   UNL     1      41.694 -17.212   6.379  1.00  0.00     0.164 HD
ENDROOT
BRANCH   1   7
HETATM    7  C   UNL     1      40.692 -14.253   3.660  1.00  0.00     0.077 C 
HETATM    8  C   UNL     1      40.129 -14.688   2.461  1.00  0.00     0.062 C 
HETATM    9  C   UNL     1      40.625 -14.239   1.228  1.00  0.00     0.037 C 
HETATM   10  C   UNL     1      41.602 -13.236   1.206  1.00  0.00     0.032 C 
HETATM   11  C   UNL     1      42.105 -12.717   2.397  1.00  0.00     0.047 C 
HETATM   12  C   UNL     1      41.656 -13.237   3.604  1.00  0.00     0.143 C 
HETATM   13  F   UNL     1      42.171 -12.748   4.745  1.00  0.00    -0.204 F 
BRANCH   9  14
HETATM   14  N   UNL     1      40.241 -14.776  -0.019  1.00  0.00    -0.327 N 
HETATM   15  C   UNL     1      39.431 -14.184  -0.974  1.00  0.00     0.221 C 
HETATM   16  O   UNL     1      39.055 -13.017  -0.993  1.00  0.00    -0.273 OA
HETATM   17  H   UNL     1      40.500 -15.740  -0.187  1.00  0.00     0.169 HD
BRANCH  15  18
HETATM   18  C   UNL     1      38.972 -15.162  -2.039  1.00  0.00     0.098 C 
HETATM   19  C   UNL     1      38.243 -14.443  -3.162  1.00  0.00     0.014 C 
ENDBRANCH  15  18
ENDBRANCH   9  14
ENDBRANCH   1   7
BRANCH   3  20
HETATM   20  C   UNL     1      42.997 -16.297   5.033  1.00  0.00     0.167 C 
BRANCH  20  21
HETATM   21  C   UNL     1      43.412 -17.513   4.272  1.00  0.00     0.009 A 
HETATM   22  C   UNL     1      43.524 -17.650   2.860  1.00  0.00     0.060 A 
HETATM   23  C   UNL     1      43.276 -16.621   1.820  1.00  0.00     0.073 C 
HETATM   24  N   UNL     1      43.871 -18.893   2.504  1.00  0.00    -0.179 NA
HETATM   25  N   UNL     1      43.970 -19.551   3.667  1.00  0.00    -0.282 N 
HETATM   26  H   UNL     1      44.217 -20.534   3.639  1.00  0.00     0.189 HD
HETATM   27  C   UNL     1      43.689 -18.782   4.760  1.00  0.00     0.034 A 
HETATM   28  C   UNL     1      43.698 -19.338   6.134  1.00  0.00     0.070 C 
ENDBRANCH  20  21
ENDBRANCH   3  20
TORSDOF 5
ENDMDL
MODEL 7
REMARK VINA RESULT:      -7.4      2.633      6.113
REMARK  5 active torsions:
REMARK  status: ('A' for Active; 'I' for Inactive)
REMARK    1  A    between atoms: C_2  and  C_3 
REMARK       I    between atoms: C_3  and  N_4 
REMARK    2  A    between atoms: N_4  and  C_5 
REMARK    3  A    between atoms: C_7  and  N_8 
REMARK       I    between atoms: N_8  and  C_9 
REMARK       I    between atoms: C_9  and  N_10 
REMARK    4  A    between atoms: N_10  and  C_11 
REMARK    5  A    between atoms: C_11  and  C_12 
ROOT
HETATM    1  N   UNL     1      42.051 -13.641   4.889  1.00  0.00    -0.306 N 
HETATM    2  C   UNL     1      41.170 -12.632   4.991  1.00  0.00     0.321 C 
HETATM    3  N   UNL     1      40.122 -12.433   4.185  1.00  0.00    -0.338 N 
HETATM    4  O   UNL     1      41.297 -11.861   5.948  1.00  0.00    -0.247 OA
HETATM    5  H   UNL     1      42.564 -13.724   5.763  1.00  0.00     0.171 HD
HETATM    6  H   UNL     1      39.597 -11.629   4.500  1.00  0.00     0.164 HD
ENDROOT
BRANCH   1   7
HETATM    7  C   UNL     1      42.506 -14.511   3.886  1.00  0.00     0.077 C 
HETATM    8  C   UNL     1      42.341 -15.896   3.879  1.00  0.00     0.062 C 
HETATM    9  C   UNL     1      42.914 -16.683   2.870  1.00  0.00     0.037 C 
HETATM   10  C   UNL     1      43.539 -16.059   1.783  1.00  0.00     0.032 C 
HETATM   11  C   UNL     1      43.626 -14.670   1.724  1.00  0.00     0.047 C 
HETATM   12  C   UNL     1      43.121 -13.915   2.776  1.00  0.00     0.143 C 
HETATM   13  F   UNL     1      43.237 -12.578   2.720  1.00  0.00    -0.204 F 
BRANCH   9  14
HETATM   14  N   UNL     1      42.956 -18.094   2.898  1.00  0.00    -0.327 N 
HETATM   15  C   UNL     1      43.863 -18.893   3.571  1.00  0.00     0.221 C 
HETATM   16  O   UNL     1      44.678 -18.528   4.411  1.00  0.00    -0.273 OA
HETATM   17  H   UNL     1      42.316 -18.570   2.273  1.00  0.00     0.169 HD
BRANCH  15  18
HETATM   18  C   UNL     1      43.808 -20.343   3.126  1.00  0.00     0.098 C 
HETATM   19  C   UNL     1      43.430 -20.448   1.657  1.00  0.00     0.014 C 
ENDBRANCH  15  18
ENDBRANCH   9  14
ENDBRANCH   1   7
BRANCH   3  20
HETATM   20  C   UNL     1      39.413 -13.311   3.281  1.00  0.00     0.167 C 
BRANCH  20  21
HETATM   21  C   UNL     1      39.873 -13.076   1.879  1.00  0.00     0.009 A 
HETATM   22  C   UNL     1      40.118 -14.056   0.877  1.00  0.00     0.060 A 
HETATM   23  C   UNL     1      39.960 -15.528   0.979  1.00  0.00     0.073 C 
HETATM   24  N   UNL     1      40.571 -13.509  -0.258  1.00  0.00    -0.179 NA
HETATM   25  N   UNL     1      40.629 -12.198   0.011  1.00  0.00    -0.282 N 
HETATM   26  H   UNL     1      40.963 -11.575  -0.716  1.00  0.00     0.189 HD
HETATM   27  C   UNL     1      40.240 -11.880   1.281  1.00  0.00     0.034 A 
HETATM   28  C   UNL     1      40.277 -10.487   1.788  1.00  0.00     0.070 C 
ENDBRANCH  20  21
ENDBRANCH   3  20
TORSDOF 5
ENDMDL
MODEL 8
REMARK VINA RESULT:      -7.4      2.460      3.803
REMARK  5 active torsions:
REMARK  status: ('A' for Active; 'I' for Inactive)
REMARK    1  A    between atoms: C_2  and  C_3 
REMARK       I    between atoms: C_3  and  N_4 
REMARK    2  A    between atoms: N_4  and  C_5 
REMARK    3  A    between atoms: C_7  and  N_8 
REMARK       I    between atoms: N_8  and  C_9 
REMARK       I    between atoms: C_9  and  N_10 
REMARK    4  A    between atoms: N_10  and  C_11 
REMARK    5  A    between atoms: C_11  and  C_12 
ROOT
HETATM    1  N   UNL     1      40.222 -15.974   5.090  1.00  0.00    -0.306 N 
HETATM    2  C   UNL     1      40.251 -15.381   6.294  1.00  0.00     0.321 C 
HETATM    3  N   UNL     1      40.821 -14.202   6.565  1.00  0.00    -0.338 N 
HETATM    4  O   UNL     1      39.643 -15.935   7.216  1.00  0.00    -0.247 OA
HETATM    5  H   UNL     1      39.505 -16.696   5.092  1.00  0.00     0.171 HD
HETATM    6  H   UNL     1      40.669 -13.963   7.535  1.00  0.00     0.164 HD
ENDROOT
BRANCH   1   7
HETATM    7  C   UNL     1      40.971 -15.931   3.903  1.00  0.00     0.077 C 
HETATM    8  C   UNL     1      40.640 -15.201   2.762  1.00  0.00     0.062 C 
HETATM    9  C   UNL     1      41.413 -15.299   1.596  1.00  0.00     0.037 C 
HETATM   10  C   UNL     1      42.610 -16.026   1.625  1.00  0.00     0.032 C 
HETATM   11  C   UNL     1      43.008 -16.680   2.789  1.00  0.00     0.047 C 
HETATM   12  C   UNL     1      42.183 -16.635   3.906  1.00  0.00     0.143 C 
HETATM   13  F   UNL     1      42.565 -17.294   5.013  1.00  0.00    -0.204 F 
BRANCH   9  14
HETATM   14  N   UNL     1      41.037 -14.749   0.352  1.00  0.00    -0.327 N 
HETATM   15  C   UNL     1      40.870 -13.411   0.042  1.00  0.00     0.221 C 
HETATM   16  O   UNL     1      41.197 -12.452   0.734  1.00  0.00    -0.273 OA
HETATM   17  H   UNL     1      40.758 -15.412  -0.360  1.00  0.00     0.169 HD
BRANCH  15  18
HETATM   18  C   UNL     1      40.159 -13.201  -1.282  1.00  0.00     0.098 C 
HETATM   19  C   UNL     1      39.362 -14.436  -1.674  1.00  0.00     0.014 C 
ENDBRANCH  15  18
ENDBRANCH   9  14
ENDBRANCH   1   7
BRANCH   3  20
HETATM   20  C   UNL     1      41.216 -13.098   5.718  1.00  0.00     0.167 C 
BRANCH  20  21
HETATM   21  C   UNL     1      42.544 -12.571   6.155  1.00  0.00     0.009 A 
HETATM   22  C   UNL     1      42.941 -11.208   6.251  1.00  0.00     0.060 A 
HETATM   23  C   UNL     1      42.133  -9.998   5.959  1.00  0.00     0.073 C 
HETATM   24  N   UNL     1      44.220 -11.085   6.627  1.00  0.00    -0.179 NA
HETATM   25  N   UNL     1      44.645 -12.348   6.760  1.00  0.00    -0.282 N 
HETATM   26  H   UNL     1      45.610 -12.501   7.033  1.00  0.00     0.189 HD
HETATM   27  C   UNL     1      43.691 -13.283   6.473  1.00  0.00     0.034 A 
HETATM   28  C   UNL     1      43.978 -14.736   6.517  1.00  0.00     0.070 C 
ENDBRANCH  20  21
ENDBRANCH   3  20
TORSDOF 5
ENDMDL
MODEL 9
REMARK VINA RESULT:      -7.3      2.122      3.228
REMARK  5 active torsions:
REMARK  status: ('A' for Active; 'I' for Inactive)
REMARK    1  A    between atoms: C_2  and  C_3 
REMARK       I    between atoms: C_3  and  N_4 
REMARK    2  A    between atoms: N_4  and  C_5 
REMARK    3  A    between atoms: C_7  and  N_8 
REMARK       I    between atoms: N_8  and  C_9 
REMARK       I    between atoms: C_9  and  N_10 
REMARK    4  A    between atoms: N_10  and  C_11 
REMARK    5  A    between atoms: C_11  and  C_12 
ROOT
HETATM    1  N   UNL     1      41.215 -14.624   5.603  1.00  0.00    -0.306 N 
HETATM    2  C   UNL     1      41.349 -15.838   6.161  1.00  0.00     0.321 C 
HETATM    3  N   UNL     1      42.242 -16.764   5.799  1.00  0.00    -0.338 N 
HETATM    4  O   UNL     1      40.633 -16.099   7.134  1.00  0.00    -0.247 OA
HETATM    5  H   UNL     1      40.677 -14.028   6.228  1.00  0.00     0.171 HD
HETATM    6  H   UNL     1      42.161 -17.572   6.401  1.00  0.00     0.164 HD
ENDROOT
BRANCH   1   7
HETATM    7  C   UNL     1      41.523 -14.017   4.375  1.00  0.00     0.077 C 
HETATM    8  C   UNL     1      40.686 -13.971   3.261  1.00  0.00     0.062 C 
HETATM    9  C   UNL     1      41.128 -13.415   2.052  1.00  0.00     0.037 C 
HETATM   10  C   UNL     1      42.372 -12.773   2.005  1.00  0.00     0.032 C 
HETATM   11  C   UNL     1      43.180 -12.722   3.139  1.00  0.00     0.047 C 
HETATM   12  C   UNL     1      42.754 -13.351   4.302  1.00  0.00     0.143 C 
HETATM   13  F   UNL     1      43.556 -13.318   5.379  1.00  0.00    -0.204 F 
BRANCH   9  14
HETATM   14  N   UNL     1      40.417 -13.505   0.836  1.00  0.00    -0.327 N 
HETATM   15  C   UNL     1      39.919 -14.650   0.238  1.00  0.00     0.221 C 
HETATM   16  O   UNL     1      39.839 -15.764   0.743  1.00  0.00    -0.273 OA
HETATM   17  H   UNL     1      40.359 -12.653   0.291  1.00  0.00     0.169 HD
BRANCH  15  18
HETATM   18  C   UNL     1      39.496 -14.422  -1.201  1.00  0.00     0.098 C 
HETATM   19  C   UNL     1      38.754 -13.103  -1.348  1.00  0.00     0.014 C 
ENDBRANCH  15  18
ENDBRANCH   9  14
ENDBRANCH   1   7
BRANCH   3  20
HETATM   20  C   UNL     1      43.478 -16.681   5.052  1.00  0.00     0.167 C 
BRANCH  20  21
HETATM   21  C   UNL     1      43.512 -17.744   4.004  1.00  0.00     0.009 A 
HETATM   22  C   UNL     1      43.763 -19.132   4.191  1.00  0.00     0.060 A 
HETATM   23  C   UNL     1      44.029 -19.849   5.462  1.00  0.00     0.073 C 
HETATM   24  N   UNL     1      43.771 -19.800   3.031  1.00  0.00    -0.179 NA
HETATM   25  N   UNL     1      43.542 -18.856   2.108  1.00  0.00    -0.282 N 
HETATM   26  H   UNL     1      43.516 -19.137   1.133  1.00  0.00     0.189 HD
HETATM   27  C   UNL     1      43.396 -17.602   2.628  1.00  0.00     0.034 A 
HETATM   28  C   UNL     1      43.182 -16.415   1.767  1.00  0.00     0.070 C 
ENDBRANCH  20  21
ENDBRANCH   3  20
TORSDOF 5
ENDMDL
MODEL 10
REMARK VINA RESULT:      -7.3      2.741      6.334
REMARK  5 active torsions:
REMARK  status: ('A' for Active; 'I' for Inactive)
REMARK    1  A    between atoms: C_2  and  C_3 
REMARK       I    between atoms: C_3  and  N_4 
REMARK    2  A    between atoms: N_4  and  C_5 
REMARK    3  A    between atoms: C_7  and  N_8 
REMARK       I    between atoms: N_8  and  C_9 
REMARK       I    between atoms: C_9  and  N_10 
REMARK    4  A    between atoms: N_10  and  C_11 
REMARK    5  A    between atoms: C_11  and  C_12 
ROOT
HETATM    1  N   UNL     1      43.185 -12.935   4.369  1.00  0.00    -0.306 N 
HETATM    2  C   UNL     1      43.153 -12.004   3.403  1.00  0.00     0.321 C 
HETATM    3  N   UNL     1      42.207 -11.891   2.465  1.00  0.00    -0.338 N 
HETATM    4  O   UNL     1      44.034 -11.138   3.418  1.00  0.00    -0.247 OA
HETATM    5  H   UNL     1      43.829 -12.637   5.098  1.00  0.00     0.171 HD
HETATM    6  H   UNL     1      42.396 -11.086   1.883  1.00  0.00     0.164 HD
ENDROOT
BRANCH   1   7
HETATM    7  C   UNL     1      42.658 -14.220   4.578  1.00  0.00     0.077 C 
HETATM    8  C   UNL     1      43.157 -15.399   4.027  1.00  0.00     0.062 C 
HETATM    9  C   UNL     1      42.501 -16.622   4.229  1.00  0.00     0.037 C 
HETATM   10  C   UNL     1      41.412 -16.680   5.110  1.00  0.00     0.032 C 
HETATM   11  C   UNL     1      40.962 -15.526   5.748  1.00  0.00     0.047 C 
HETATM   12  C   UNL     1      41.579 -14.313   5.468  1.00  0.00     0.143 C 
HETATM   13  F   UNL     1      41.116 -13.204   6.068  1.00  0.00    -0.204 F 
BRANCH   9  14
HETATM   14  N   UNL     1      42.830 -17.816   3.552  1.00  0.00    -0.327 N 
HETATM   15  C   UNL     1      43.921 -18.636   3.780  1.00  0.00     0.221 C 
HETATM   16  O   UNL     1      44.695 -18.578   4.730  1.00  0.00    -0.273 OA
HETATM   17  H   UNL     1      42.263 -18.038   2.743  1.00  0.00     0.169 HD
BRANCH  15  18
HETATM   18  C   UNL     1      44.134 -19.648   2.670  1.00  0.00     0.098 C 
HETATM   19  C   UNL     1      42.835 -19.926   1.930  1.00  0.00     0.014 C 
ENDBRANCH  15  18
ENDBRANCH   9  14
ENDBRANCH   1   7
BRANCH   3  20
HETATM   20  C   UNL     1      40.856 -12.400   2.383  1.00  0.00     0.167 C 
BRANCH  20  21
HETATM   21  C   UNL     1      40.630 -13.032   1.049  1.00  0.00     0.009 A 
HETATM   22  C   UNL     1      40.267 -14.383   0.785  1.00  0.00     0.060 A 
HETATM   23  C   UNL     1      40.013 -15.469   1.765  1.00  0.00     0.073 C 
HETATM   24  N   UNL     1      40.195 -14.634  -0.527  1.00  0.00    -0.179 NA
HETATM   25  N   UNL     1      40.517 -13.468  -1.102  1.00  0.00    -0.282 N 
HETATM   26  H   UNL     1      40.539 -13.425  -2.116  1.00  0.00     0.189 HD
HETATM   27  C   UNL     1      40.806 -12.476  -0.209  1.00  0.00     0.034 A 
HETATM   28  C   UNL     1      41.229 -11.125  -0.647  1.00  0.00     0.070 C 
ENDBRANCH  20  21
ENDBRANCH   3  20
TORSDOF 5
ENDMDL
