MODEL 1
REMARK VINA RESULT:      -9.4      0.000      0.000
REMARK  6 active torsions:
REMARK  status: ('A' for Active; 'I' for Inactive)
REMARK    1  A    between atoms: O_2  and  C_3 
REMARK    2  A    between atoms: C_6  and  C_7 
REMARK    3  A    between atoms: C_11  and  C_12 
REMARK       I    between atoms: C_12  and  N_13 
REMARK    4  A    between atoms: N_13  and  N_14 
REMARK       I    between atoms: N_14  and  C_15 
REMARK    5  A    between atoms: C_15  and  C_16 
REMARK    6  A    between atoms: C_17  and  C_18 
ROOT
HETATM    1  C   UNL     1      44.215 -11.243   8.554  1.00  0.00     0.288 C 
HETATM    2  N   UNL     1      43.374 -12.039   7.803  1.00  0.00    -0.262 N 
HETATM    3  O   UNL     1      45.434 -11.253   8.391  1.00  0.00    -0.264 OA
HETATM    4  H   UNL     1      42.396 -12.184   8.042  1.00  0.00     0.190 HD
ENDROOT
BRANCH   1   5
HETATM    5  C   UNL     1      43.573 -10.419   9.540  1.00  0.00     0.121 A 
HETATM    6  N   UNL     1      42.478  -9.662   9.237  1.00  0.00    -0.272 N 
HETATM    7  N   UNL     1      42.005  -8.939  10.261  1.00  0.00    -0.174 NA
HETATM    8  H   UNL     1      42.011  -9.598   8.336  1.00  0.00     0.189 HD
HETATM    9  C   UNL     1      42.809  -9.244  11.294  1.00  0.00     0.089 A 
HETATM   10  C   UNL     1      43.810 -10.169  10.877  1.00  0.00     0.071 A 
BRANCH   9  11
HETATM   11  C   UNL     1      42.610  -8.652  12.623  1.00  0.00    -0.005 A 
HETATM   12  C   UNL     1      41.613  -9.120  13.487  1.00  0.00     0.016 A 
HETATM   13  C   UNL     1      41.444  -8.549  14.754  1.00  0.00     0.037 A 
HETATM   14  C   UNL     1      42.266  -7.505  15.184  1.00  0.00     0.068 A 
HETATM   15  C   UNL     1      43.256  -7.026  14.329  1.00  0.00     0.037 A 
HETATM   16  C   UNL     1      43.424  -7.596  13.060  1.00  0.00     0.016 A 
BRANCH  14  17
HETATM   17  O   UNL     1      41.996  -7.045  16.443  1.00  0.00    -0.356 OA
HETATM   18  C   UNL     1      41.002  -7.744  17.181  1.00  0.00     0.210 C 
ENDBRANCH  14  17
ENDBRANCH   9  11
ENDBRANCH   1   5
BRANCH   2  19
HETATM   19  N   UNL     1      43.945 -12.995   6.951  1.00  0.00    -0.267 N 
HETATM   20  C   UNL     1      43.110 -13.920   6.367  1.00  0.00     0.240 C 
HETATM   21  O   UNL     1      41.887 -13.873   6.451  1.00  0.00    -0.271 OA
HETATM   22  H   UNL     1      44.954 -13.115   7.011  1.00  0.00     0.190 HD
BRANCH  20  23
HETATM   23  C   UNL     1      43.809 -15.015   5.643  1.00  0.00     0.089 A 
HETATM   24  C   UNL     1      43.247 -16.428   5.698  1.00  0.00     0.034 A 
HETATM   25  C   UNL     1      44.533 -16.086   6.414  1.00  0.00     0.025 A 
BRANCH  24  26
HETATM   26  C   UNL     1      43.261 -17.295   4.452  1.00  0.00    -0.031 A 
HETATM   27  C   UNL     1      42.397 -17.083   3.358  1.00  0.00     0.040 A 
HETATM   28 CL   UNL     1      41.249 -15.787   3.370  1.00  0.00    -0.084 Cl
HETATM   29  C   UNL     1      42.425 -17.910   2.230  1.00  0.00     0.024 A 
HETATM   30  C   UNL     1      43.315 -18.979   2.169  1.00  0.00     0.002 A 
HETATM   31  C   UNL     1      44.169 -19.225   3.239  1.00  0.00     0.001 A 
HETATM   32  C   UNL     1      44.136 -18.397   4.364  1.00  0.00     0.009 A 
ENDBRANCH  24  26
ENDBRANCH  20  23
ENDBRANCH   2  19
TORSDOF 6
ENDMDL
MODEL 2
REMARK VINA RESULT:      -9.3      2.095      2.754
REMARK  6 active torsions:
REMARK  status: ('A' for Active; 'I' for Inactive)
REMARK    1  A    between atoms: O_2  and  C_3 
REMARK    2  A    between atoms: C_6  and  C_7 
REMARK    3  A    between atoms: C_11  and  C_12 
REMARK       I    between atoms: C_12  and  N_13 
REMARK    4  A    between atoms: N_13  and  N_14 
REMARK       I    between atoms: N_14  and  C_15 
REMARK    5  A    between atoms: C_15  and  C_16 
REMARK    6  A    between atoms: C_17  and  C_18 
ROOT
HETATM    1  C   UNL     1      44.173 -12.012   7.161  1.00  0.00     0.288 C 
HETATM    2  N   UNL     1      42.968 -12.679   7.074  1.00  0.00    -0.262 N 
HETATM    3  O   UNL     1      45.117 -12.280   6.421  1.00  0.00    -0.264 OA
HETATM    4  H   UNL     1      42.245 -12.604   7.786  1.00  0.00     0.190 HD
ENDROOT
BRANCH   1   5
HETATM    5  C   UNL     1      44.250 -10.999   8.177  1.00  0.00     0.121 A 
HETATM    6  N   UNL     1      45.450 -10.548   8.648  1.00  0.00    -0.272 N 
HETATM    7  N   UNL     1      45.353  -9.613   9.603  1.00  0.00    -0.174 NA
HETATM    8  H   UNL     1      46.374 -10.851   8.352  1.00  0.00     0.189 HD
HETATM    9  C   UNL     1      44.032  -9.420   9.758  1.00  0.00     0.089 A 
HETATM   10  C   UNL     1      43.307 -10.277   8.881  1.00  0.00     0.071 A 
BRANCH   9  11
HETATM   11  C   UNL     1      43.507  -8.448  10.724  1.00  0.00    -0.005 A 
HETATM   12  C   UNL     1      42.959  -7.229  10.307  1.00  0.00     0.016 A 
HETATM   13  C   UNL     1      42.454  -6.318  11.244  1.00  0.00     0.037 A 
HETATM   14  C   UNL     1      42.484  -6.605  12.609  1.00  0.00     0.068 A 
HETATM   15  C   UNL     1      43.034  -7.811  13.036  1.00  0.00     0.037 A 
HETATM   16  C   UNL     1      43.541  -8.722  12.100  1.00  0.00     0.016 A 
BRANCH  14  17
HETATM   17  O   UNL     1      41.954  -5.633  13.411  1.00  0.00    -0.356 OA
HETATM   18  C   UNL     1      42.101  -4.289  12.970  1.00  0.00     0.210 C 
ENDBRANCH  14  17
ENDBRANCH   9  11
ENDBRANCH   1   5
BRANCH   2  19
HETATM   19  N   UNL     1      42.883 -13.795   6.230  1.00  0.00    -0.267 N 
HETATM   20  C   UNL     1      42.207 -13.654   5.039  1.00  0.00     0.240 C 
HETATM   21  O   UNL     1      41.789 -12.577   4.624  1.00  0.00    -0.271 OA
HETATM   22  H   UNL     1      43.095 -14.699   6.646  1.00  0.00     0.190 HD
BRANCH  20  23
HETATM   23  C   UNL     1      41.988 -14.923   4.296  1.00  0.00     0.089 A 
HETATM   24  C   UNL     1      43.103 -15.485   3.427  1.00  0.00     0.034 A 
HETATM   25  C   UNL     1      41.857 -14.905   2.797  1.00  0.00     0.025 A 
BRANCH  24  26
HETATM   26  C   UNL     1      43.359 -16.981   3.402  1.00  0.00    -0.031 A 
HETATM   27  C   UNL     1      44.033 -17.663   4.436  1.00  0.00     0.040 A 
HETATM   28 CL   UNL     1      44.613 -16.815   5.830  1.00  0.00    -0.084 Cl
HETATM   29  C   UNL     1      44.267 -19.042   4.375  1.00  0.00     0.024 A 
HETATM   30  C   UNL     1      43.839 -19.775   3.272  1.00  0.00     0.002 A 
HETATM   31  C   UNL     1      43.186 -19.128   2.228  1.00  0.00     0.001 A 
HETATM   32  C   UNL     1      42.956 -17.752   2.293  1.00  0.00     0.009 A 
ENDBRANCH  24  26
ENDBRANCH  20  23
ENDBRANCH   2  19
TORSDOF 6
ENDMDL
MODEL 3
REMARK VINA RESULT:      -9.3      2.850     11.501
REMARK  6 active torsions:
REMARK  status: ('A' for Active; 'I' for Inactive)
REMARK    1  A    between atoms: O_2  and  C_3 
REMARK    2  A    between atoms: C_6  and  C_7 
REMARK    3  A    between atoms: C_11  and  C_12 
REMARK       I    between atoms: C_12  and  N_13 
REMARK    4  A    between atoms: N_13  and  N_14 
REMARK       I    between atoms: N_14  and  C_15 
REMARK    5  A    between atoms: C_15  and  C_16 
REMARK    6  A    between atoms: C_17  and  C_18 
ROOT
HETATM    1  C   UNL     1      42.953 -11.406   6.545  1.00  0.00     0.288 C 
HETATM    2  N   UNL     1      43.306 -11.575   7.869  1.00  0.00    -0.262 N 
HETATM    3  O   UNL     1      42.752 -10.291   6.065  1.00  0.00    -0.264 OA
HETATM    4  H   UNL     1      43.296 -12.482   8.329  1.00  0.00     0.190 HD
ENDROOT
BRANCH   1   5
HETATM    5  C   UNL     1      42.824 -12.613   5.778  1.00  0.00     0.121 A 
HETATM    6  N   UNL     1      41.901 -12.729   4.777  1.00  0.00    -0.272 N 
HETATM    7  N   UNL     1      41.898 -13.922   4.166  1.00  0.00    -0.174 NA
HETATM    8  H   UNL     1      41.241 -12.020   4.472  1.00  0.00     0.189 HD
HETATM    9  C   UNL     1      42.873 -14.620   4.772  1.00  0.00     0.089 A 
HETATM   10  C   UNL     1      43.475 -13.830   5.794  1.00  0.00     0.071 A 
BRANCH   9  11
HETATM   11  C   UNL     1      43.194 -15.996   4.374  1.00  0.00    -0.005 A 
HETATM   12  C   UNL     1      42.787 -16.510   3.137  1.00  0.00     0.016 A 
HETATM   13  C   UNL     1      43.110 -17.822   2.771  1.00  0.00     0.037 A 
HETATM   14  C   UNL     1      43.845 -18.644   3.628  1.00  0.00     0.068 A 
HETATM   15  C   UNL     1      44.247 -18.146   4.865  1.00  0.00     0.037 A 
HETATM   16  C   UNL     1      43.922 -16.833   5.232  1.00  0.00     0.016 A 
BRANCH  14  17
HETATM   17  O   UNL     1      44.095 -19.898   3.145  1.00  0.00    -0.356 OA
HETATM   18  C   UNL     1      43.448 -20.257   1.930  1.00  0.00     0.210 C 
ENDBRANCH  14  17
ENDBRANCH   9  11
ENDBRANCH   1   5
BRANCH   2  19
HETATM   19  N   UNL     1      43.275 -10.457   8.715  1.00  0.00    -0.267 N 
HETATM   20  C   UNL     1      44.335 -10.266   9.571  1.00  0.00     0.240 C 
HETATM   21  O   UNL     1      45.357 -10.945   9.542  1.00  0.00    -0.271 OA
HETATM   22  H   UNL     1      42.373 -10.001   8.835  1.00  0.00     0.190 HD
BRANCH  20  23
HETATM   23  C   UNL     1      44.138  -9.182  10.571  1.00  0.00     0.089 A 
HETATM   24  C   UNL     1      42.730  -8.834  11.030  1.00  0.00     0.034 A 
HETATM   25  C   UNL     1      43.509  -7.879  10.154  1.00  0.00     0.025 A 
BRANCH  24  26
HETATM   26  C   UNL     1      42.472  -8.509  12.490  1.00  0.00    -0.031 A 
HETATM   27  C   UNL     1      41.431  -9.100  13.237  1.00  0.00     0.040 A 
HETATM   28 CL   UNL     1      40.370 -10.263  12.517  1.00  0.00    -0.084 Cl
HETATM   29  C   UNL     1      41.210  -8.767  14.578  1.00  0.00     0.024 A 
HETATM   30  C   UNL     1      42.021  -7.825  15.207  1.00  0.00     0.002 A 
HETATM   31  C   UNL     1      43.044  -7.213  14.493  1.00  0.00     0.001 A 
HETATM   32  C   UNL     1      43.260  -7.547  13.153  1.00  0.00     0.009 A 
ENDBRANCH  24  26
ENDBRANCH  20  23
ENDBRANCH   2  19
TORSDOF 6
ENDMDL
MODEL 4
REMARK VINA RESULT:      -8.4      3.377     11.616
REMARK  6 active torsions:
REMARK  status: ('A' for Active; 'I' for Inactive)
REMARK    1  A    between atoms: O_2  and  C_3 
REMARK    2  A    between atoms: C_6  and  C_7 
REMARK    3  A    between atoms: C_11  and  C_12 
REMARK       I    between atoms: C_12  and  N_13 
REMARK    4  A    between atoms: N_13  and  N_14 
REMARK       I    between atoms: N_14  and  C_15 
REMARK    5  A    between atoms: C_15  and  C_16 
REMARK    6  A    between atoms: C_17  and  C_18 
ROOT
HETATM    1  C   UNL     1      42.689 -11.792   6.268  1.00  0.00     0.288 C 
HETATM    2  N   UNL     1      43.414 -11.868   7.440  1.00  0.00    -0.262 N 
HETATM    3  O   UNL     1      42.174 -10.740   5.891  1.00  0.00    -0.264 OA
HETATM    4  H   UNL     1      43.688 -12.753   7.861  1.00  0.00     0.190 HD
ENDROOT
BRANCH   1   5
HETATM    5  C   UNL     1      42.567 -13.020   5.532  1.00  0.00     0.121 A 
HETATM    6  N   UNL     1      41.524 -13.242   4.679  1.00  0.00    -0.272 N 
HETATM    7  N   UNL     1      41.547 -14.440   4.079  1.00  0.00    -0.174 NA
HETATM    8  H   UNL     1      40.760 -12.605   4.471  1.00  0.00     0.189 HD
HETATM    9  C   UNL     1      42.663 -15.030   4.538  1.00  0.00     0.089 A 
HETATM   10  C   UNL     1      43.328 -14.169   5.458  1.00  0.00     0.071 A 
BRANCH   9  11
HETATM   11  C   UNL     1      43.054 -16.377   4.102  1.00  0.00    -0.005 A 
HETATM   12  C   UNL     1      42.682 -16.873   2.847  1.00  0.00     0.016 A 
HETATM   13  C   UNL     1      43.072 -18.157   2.446  1.00  0.00     0.037 A 
HETATM   14  C   UNL     1      43.841 -18.966   3.284  1.00  0.00     0.068 A 
HETATM   15  C   UNL     1      44.210 -18.486   4.538  1.00  0.00     0.037 A 
HETATM   16  C   UNL     1      43.818 -17.202   4.941  1.00  0.00     0.016 A 
BRANCH  14  17
HETATM   17  O   UNL     1      44.156 -20.192   2.766  1.00  0.00    -0.356 OA
HETATM   18  C   UNL     1      43.476 -20.579   1.579  1.00  0.00     0.210 C 
ENDBRANCH  14  17
ENDBRANCH   9  11
ENDBRANCH   1   5
BRANCH   2  19
HETATM   19  N   UNL     1      43.421 -10.756   8.293  1.00  0.00    -0.267 N 
HETATM   20  C   UNL     1      44.545  -9.961   8.307  1.00  0.00     0.240 C 
HETATM   21  O   UNL     1      45.481 -10.101   7.526  1.00  0.00    -0.271 OA
HETATM   22  H   UNL     1      42.719 -10.740   9.029  1.00  0.00     0.190 HD
BRANCH  20  23
HETATM   23  C   UNL     1      44.558  -8.925   9.375  1.00  0.00     0.089 A 
HETATM   24  C   UNL     1      43.276  -8.176   9.709  1.00  0.00     0.034 A 
HETATM   25  C   UNL     1      44.419  -7.470   9.014  1.00  0.00     0.025 A 
BRANCH  24  26
HETATM   26  C   UNL     1      42.939  -7.866  11.155  1.00  0.00    -0.031 A 
HETATM   27  C   UNL     1      42.506  -6.595  11.588  1.00  0.00     0.040 A 
HETATM   28 CL   UNL     1      42.321  -5.289  10.467  1.00  0.00    -0.084 Cl
HETATM   29  C   UNL     1      42.217  -6.337  12.933  1.00  0.00     0.024 A 
HETATM   30  C   UNL     1      42.363  -7.344  13.885  1.00  0.00     0.002 A 
HETATM   31  C   UNL     1      42.804  -8.602  13.492  1.00  0.00     0.001 A 
HETATM   32  C   UNL     1      43.093  -8.855  12.148  1.00  0.00     0.009 A 
ENDBRANCH  24  26
ENDBRANCH  20  23
ENDBRANCH   2  19
TORSDOF 6
ENDMDL
MODEL 5
REMARK VINA RESULT:      -8.3      3.200     11.718
REMARK  6 active torsions:
REMARK  status: ('A' for Active; 'I' for Inactive)
REMARK    1  A    between atoms: O_2  and  C_3 
REMARK    2  A    between atoms: C_6  and  C_7 
REMARK    3  A    between atoms: C_11  and  C_12 
REMARK       I    between atoms: C_12  and  N_13 
REMARK    4  A    between atoms: N_13  and  N_14 
REMARK       I    between atoms: N_14  and  C_15 
REMARK    5  A    between atoms: C_15  and  C_16 
REMARK    6  A    between atoms: C_17  and  C_18 
ROOT
HETATM    1  C   UNL     1      42.146 -10.660   6.881  1.00  0.00     0.288 C 
HETATM    2  N   UNL     1      43.029 -10.558   7.937  1.00  0.00    -0.262 N 
HETATM    3  O   UNL     1      41.101 -10.012   6.845  1.00  0.00    -0.264 OA
HETATM    4  H   UNL     1      43.796 -11.211   8.076  1.00  0.00     0.190 HD
ENDROOT
BRANCH   1   5
HETATM    5  C   UNL     1      42.524 -11.576   5.841  1.00  0.00     0.121 A 
HETATM    6  N   UNL     1      43.212 -11.162   4.737  1.00  0.00    -0.272 N 
HETATM    7  N   UNL     1      43.477 -12.134   3.854  1.00  0.00    -0.174 NA
HETATM    8  H   UNL     1      43.524 -10.216   4.533  1.00  0.00     0.189 HD
HETATM    9  C   UNL     1      42.960 -13.246   4.405  1.00  0.00     0.089 A 
HETATM   10  C   UNL     1      42.349 -12.933   5.653  1.00  0.00     0.071 A 
BRANCH   9  11
HETATM   11  C   UNL     1      43.055 -14.549   3.737  1.00  0.00    -0.005 A 
HETATM   12  C   UNL     1      43.131 -15.740   4.470  1.00  0.00     0.016 A 
HETATM   13  C   UNL     1      43.212 -16.975   3.814  1.00  0.00     0.037 A 
HETATM   14  C   UNL     1      43.214 -17.046   2.420  1.00  0.00     0.068 A 
HETATM   15  C   UNL     1      43.147 -15.868   1.681  1.00  0.00     0.037 A 
HETATM   16  C   UNL     1      43.069 -14.631   2.336  1.00  0.00     0.016 A 
BRANCH  14  17
HETATM   17  O   UNL     1      43.291 -18.313   1.911  1.00  0.00    -0.356 OA
HETATM   18  C   UNL     1      43.867 -19.306   2.750  1.00  0.00     0.210 C 
ENDBRANCH  14  17
ENDBRANCH   9  11
ENDBRANCH   1   5
BRANCH   2  19
HETATM   19  N   UNL     1      42.638  -9.821   9.064  1.00  0.00    -0.267 N 
HETATM   20  C   UNL     1      43.051 -10.264  10.300  1.00  0.00     0.240 C 
HETATM   21  O   UNL     1      43.843 -11.189  10.455  1.00  0.00    -0.271 OA
HETATM   22  H   UNL     1      41.873  -9.162   8.936  1.00  0.00     0.190 HD
BRANCH  20  23
HETATM   23  C   UNL     1      42.436  -9.552  11.451  1.00  0.00     0.089 A 
HETATM   24  C   UNL     1      43.290  -8.625  12.303  1.00  0.00     0.034 A 
HETATM   25  C   UNL     1      42.798  -9.943  12.859  1.00  0.00     0.025 A 
BRANCH  24  26
HETATM   26  C   UNL     1      42.714  -7.312  12.800  1.00  0.00    -0.031 A 
HETATM   27  C   UNL     1      42.509  -6.197  11.962  1.00  0.00     0.040 A 
HETATM   28 CL   UNL     1      42.904  -6.266  10.277  1.00  0.00    -0.084 Cl
HETATM   29  C   UNL     1      41.990  -4.994  12.454  1.00  0.00     0.024 A 
HETATM   30  C   UNL     1      41.669  -4.872  13.804  1.00  0.00     0.002 A 
HETATM   31  C   UNL     1      41.875  -5.949  14.659  1.00  0.00     0.001 A 
HETATM   32  C   UNL     1      42.396  -7.147  14.163  1.00  0.00     0.009 A 
ENDBRANCH  24  26
ENDBRANCH  20  23
ENDBRANCH   2  19
TORSDOF 6
ENDMDL
MODEL 6
REMARK VINA RESULT:      -8.2      1.983      2.528
REMARK  6 active torsions:
REMARK  status: ('A' for Active; 'I' for Inactive)
REMARK    1  A    between atoms: O_2  and  C_3 
REMARK    2  A    between atoms: C_6  and  C_7 
REMARK    3  A    between atoms: C_11  and  C_12 
REMARK       I    between atoms: C_12  and  N_13 
REMARK    4  A    between atoms: N_13  and  N_14 
REMARK       I    between atoms: N_14  and  C_15 
REMARK    5  A    between atoms: C_15  and  C_16 
REMARK    6  A    between atoms: C_17  and  C_18 
ROOT
HETATM    1  C   UNL     1      43.593 -10.536   8.236  1.00  0.00     0.288 C 
HETATM    2  N   UNL     1      42.577 -10.352   7.320  1.00  0.00    -0.262 N 
HETATM    3  O   UNL     1      44.662 -11.058   7.923  1.00  0.00    -0.264 OA
HETATM    4  H   UNL     1      41.631 -10.096   7.593  1.00  0.00     0.190 HD
ENDROOT
BRANCH   1   5
HETATM    5  C   UNL     1      43.313 -10.090   9.572  1.00  0.00     0.121 A 
HETATM    6  N   UNL     1      43.408 -10.934  10.643  1.00  0.00    -0.272 N 
HETATM    7  N   UNL     1      43.102 -10.370  11.819  1.00  0.00    -0.174 NA
HETATM    8  H   UNL     1      43.676 -11.914  10.624  1.00  0.00     0.189 HD
HETATM    9  C   UNL     1      42.810  -9.093  11.520  1.00  0.00     0.089 A 
HETATM   10  C   UNL     1      42.928  -8.881  10.116  1.00  0.00     0.071 A 
BRANCH   9  11
HETATM   11  C   UNL     1      42.427  -8.129  12.559  1.00  0.00    -0.005 A 
HETATM   12  C   UNL     1      43.314  -7.769  13.582  1.00  0.00     0.016 A 
HETATM   13  C   UNL     1      42.933  -6.842  14.559  1.00  0.00     0.037 A 
HETATM   14  C   UNL     1      41.667  -6.255  14.535  1.00  0.00     0.068 A 
HETATM   15  C   UNL     1      40.774  -6.612  13.527  1.00  0.00     0.037 A 
HETATM   16  C   UNL     1      41.153  -7.542  12.550  1.00  0.00     0.016 A 
BRANCH  14  17
HETATM   17  O   UNL     1      41.429  -5.364  15.544  1.00  0.00    -0.356 OA
HETATM   18  C   UNL     1      40.885  -4.104  15.171  1.00  0.00     0.210 C 
ENDBRANCH  14  17
ENDBRANCH   9  11
ENDBRANCH   1   5
BRANCH   2  19
HETATM   19  N   UNL     1      42.716 -10.923   6.047  1.00  0.00    -0.267 N 
HETATM   20  C   UNL     1      41.733 -11.785   5.616  1.00  0.00     0.240 C 
HETATM   21  O   UNL     1      40.687 -11.977   6.230  1.00  0.00    -0.271 OA
HETATM   22  H   UNL     1      43.640 -10.877   5.624  1.00  0.00     0.190 HD
BRANCH  20  23
HETATM   23  C   UNL     1      42.047 -12.501   4.351  1.00  0.00     0.089 A 
HETATM   24  C   UNL     1      43.204 -13.488   4.316  1.00  0.00     0.034 A 
HETATM   25  C   UNL     1      43.301 -12.166   3.588  1.00  0.00     0.025 A 
BRANCH  24  26
HETATM   26  C   UNL     1      43.063 -14.788   3.545  1.00  0.00    -0.031 A 
HETATM   27  C   UNL     1      42.712 -16.010   4.155  1.00  0.00     0.040 A 
HETATM   28 CL   UNL     1      42.405 -16.098   5.857  1.00  0.00    -0.084 Cl
HETATM   29  C   UNL     1      42.605 -17.194   3.418  1.00  0.00     0.024 A 
HETATM   30  C   UNL     1      42.857 -17.190   2.048  1.00  0.00     0.002 A 
HETATM   31  C   UNL     1      43.221 -16.004   1.420  1.00  0.00     0.001 A 
HETATM   32  C   UNL     1      43.328 -14.824   2.161  1.00  0.00     0.009 A 
ENDBRANCH  24  26
ENDBRANCH  20  23
ENDBRANCH   2  19
TORSDOF 6
ENDMDL
MODEL 7
REMARK VINA RESULT:      -8.1      3.035      3.920
REMARK  6 active torsions:
REMARK  status: ('A' for Active; 'I' for Inactive)
REMARK    1  A    between atoms: O_2  and  C_3 
REMARK    2  A    between atoms: C_6  and  C_7 
REMARK    3  A    between atoms: C_11  and  C_12 
REMARK       I    between atoms: C_12  and  N_13 
REMARK    4  A    between atoms: N_13  and  N_14 
REMARK       I    between atoms: N_14  and  C_15 
REMARK    5  A    between atoms: C_15  and  C_16 
REMARK    6  A    between atoms: C_17  and  C_18 
ROOT
HETATM    1  C   UNL     1      42.793 -12.352   5.728  1.00  0.00     0.288 C 
HETATM    2  N   UNL     1      41.784 -13.083   5.135  1.00  0.00    -0.262 N 
HETATM    3  O   UNL     1      43.974 -12.684   5.634  1.00  0.00    -0.264 OA
HETATM    4  H   UNL     1      40.800 -12.936   5.349  1.00  0.00     0.190 HD
ENDROOT
BRANCH   1   5
HETATM    5  C   UNL     1      42.372 -11.195   6.466  1.00  0.00     0.121 A 
HETATM    6  N   UNL     1      41.176 -10.583   6.217  1.00  0.00    -0.272 N 
HETATM    7  N   UNL     1      40.935  -9.510   6.982  1.00  0.00    -0.174 NA
HETATM    8  H   UNL     1      40.483 -10.858   5.526  1.00  0.00     0.189 HD
HETATM    9  C   UNL     1      42.007  -9.417   7.787  1.00  0.00     0.089 A 
HETATM   10  C   UNL     1      42.933 -10.457   7.489  1.00  0.00     0.071 A 
BRANCH   9  11
HETATM   11  C   UNL     1      42.120  -8.354   8.794  1.00  0.00    -0.005 A 
HETATM   12  C   UNL     1      42.973  -7.260   8.605  1.00  0.00     0.016 A 
HETATM   13  C   UNL     1      43.062  -6.252   9.573  1.00  0.00     0.037 A 
HETATM   14  C   UNL     1      42.302  -6.314  10.743  1.00  0.00     0.068 A 
HETATM   15  C   UNL     1      41.457  -7.402  10.944  1.00  0.00     0.037 A 
HETATM   16  C   UNL     1      41.369  -8.412   9.977  1.00  0.00     0.016 A 
BRANCH  14  17
HETATM   17  O   UNL     1      42.481  -5.262  11.598  1.00  0.00    -0.356 OA
HETATM   18  C   UNL     1      42.726  -3.991  11.009  1.00  0.00     0.210 C 
ENDBRANCH  14  17
ENDBRANCH   9  11
ENDBRANCH   1   5
BRANCH   2  19
HETATM   19  N   UNL     1      42.107 -14.316   4.552  1.00  0.00    -0.267 N 
HETATM   20  C   UNL     1      41.795 -14.505   3.225  1.00  0.00     0.240 C 
HETATM   21  O   UNL     1      41.369 -13.612   2.498  1.00  0.00    -0.271 OA
HETATM   22  H   UNL     1      42.313 -15.082   5.190  1.00  0.00     0.190 HD
BRANCH  20  23
HETATM   23  C   UNL     1      41.983 -15.897   2.735  1.00  0.00     0.089 A 
HETATM   24  C   UNL     1      43.375 -16.510   2.736  1.00  0.00     0.034 A 
HETATM   25  C   UNL     1      42.697 -16.147   1.434  1.00  0.00     0.025 A 
BRANCH  24  26
HETATM   26  C   UNL     1      43.560 -17.963   3.135  1.00  0.00    -0.031 A 
HETATM   27  C   UNL     1      44.051 -18.357   4.396  1.00  0.00     0.040 A 
HETATM   28 CL   UNL     1      44.473 -17.181   5.594  1.00  0.00    -0.084 Cl
HETATM   29  C   UNL     1      44.223 -19.706   4.728  1.00  0.00     0.024 A 
HETATM   30  C   UNL     1      43.917 -20.699   3.800  1.00  0.00     0.002 A 
HETATM   31  C   UNL     1      43.447 -20.341   2.541  1.00  0.00     0.001 A 
HETATM   32  C   UNL     1      43.277 -18.993   2.215  1.00  0.00     0.009 A 
ENDBRANCH  24  26
ENDBRANCH  20  23
ENDBRANCH   2  19
TORSDOF 6
ENDMDL
MODEL 8
REMARK VINA RESULT:      -8.1      3.507     11.594
REMARK  6 active torsions:
REMARK  status: ('A' for Active; 'I' for Inactive)
REMARK    1  A    between atoms: O_2  and  C_3 
REMARK    2  A    between atoms: C_6  and  C_7 
REMARK    3  A    between atoms: C_11  and  C_12 
REMARK       I    between atoms: C_12  and  N_13 
REMARK    4  A    between atoms: N_13  and  N_14 
REMARK       I    between atoms: N_14  and  C_15 
REMARK    5  A    between atoms: C_15  and  C_16 
REMARK    6  A    between atoms: C_17  and  C_18 
ROOT
HETATM    1  C   UNL     1      42.585 -11.548   5.690  1.00  0.00     0.288 C 
HETATM    2  N   UNL     1      42.495 -11.643   7.064  1.00  0.00    -0.262 N 
HETATM    3  O   UNL     1      42.711 -10.464   5.122  1.00  0.00    -0.264 OA
HETATM    4  H   UNL     1      42.208 -12.496   7.538  1.00  0.00     0.190 HD
ENDROOT
BRANCH   1   5
HETATM    5  C   UNL     1      42.509 -12.791   4.975  1.00  0.00     0.121 A 
HETATM    6  N   UNL     1      41.632 -12.971   3.943  1.00  0.00    -0.272 N 
HETATM    7  N   UNL     1      41.675 -14.190   3.389  1.00  0.00    -0.174 NA
HETATM    8  H   UNL     1      40.973 -12.289   3.578  1.00  0.00     0.189 HD
HETATM    9  C   UNL     1      42.636 -14.840   4.067  1.00  0.00     0.089 A 
HETATM   10  C   UNL     1      43.180 -13.994   5.075  1.00  0.00     0.071 A 
BRANCH   9  11
HETATM   11  C   UNL     1      42.996 -16.227   3.747  1.00  0.00    -0.005 A 
HETATM   12  C   UNL     1      43.835 -16.973   4.584  1.00  0.00     0.016 A 
HETATM   13  C   UNL     1      44.161 -18.297   4.267  1.00  0.00     0.037 A 
HETATM   14  C   UNL     1      43.656 -18.903   3.115  1.00  0.00     0.068 A 
HETATM   15  C   UNL     1      42.828 -18.167   2.271  1.00  0.00     0.037 A 
HETATM   16  C   UNL     1      42.503 -16.841   2.586  1.00  0.00     0.016 A 
BRANCH  14  17
HETATM   17  O   UNL     1      44.049 -20.199   2.929  1.00  0.00    -0.356 OA
HETATM   18  C   UNL     1      43.950 -21.065   4.053  1.00  0.00     0.210 C 
ENDBRANCH  14  17
ENDBRANCH   9  11
ENDBRANCH   1   5
BRANCH   2  19
HETATM   19  N   UNL     1      42.382 -10.460   7.808  1.00  0.00    -0.267 N 
HETATM   20  C   UNL     1      43.228 -10.289   8.881  1.00  0.00     0.240 C 
HETATM   21  O   UNL     1      44.153 -11.053   9.139  1.00  0.00    -0.271 OA
HETATM   22  H   UNL     1      41.529  -9.920   7.680  1.00  0.00     0.190 HD
BRANCH  20  23
HETATM   23  C   UNL     1      42.915  -9.112   9.735  1.00  0.00     0.089 A 
HETATM   24  C   UNL     1      43.598  -7.781   9.456  1.00  0.00     0.034 A 
HETATM   25  C   UNL     1      43.949  -8.581  10.691  1.00  0.00     0.025 A 
BRANCH  24  26
HETATM   26  C   UNL     1      42.808  -6.491   9.569  1.00  0.00    -0.031 A 
HETATM   27  C   UNL     1      42.067  -5.947   8.499  1.00  0.00     0.040 A 
HETATM   28 CL   UNL     1      42.009  -6.743   6.963  1.00  0.00    -0.084 Cl
HETATM   29  C   UNL     1      41.361  -4.746   8.631  1.00  0.00     0.024 A 
HETATM   30  C   UNL     1      41.384  -4.050   9.837  1.00  0.00     0.002 A 
HETATM   31  C   UNL     1      42.119  -4.552  10.906  1.00  0.00     0.001 A 
HETATM   32  C   UNL     1      42.823  -5.751  10.769  1.00  0.00     0.009 A 
ENDBRANCH  24  26
ENDBRANCH  20  23
ENDBRANCH   2  19
TORSDOF 6
ENDMDL
MODEL 9
REMARK VINA RESULT:      -8.1      9.019     12.654
REMARK  6 active torsions:
REMARK  status: ('A' for Active; 'I' for Inactive)
REMARK    1  A    between atoms: O_2  and  C_3 
REMARK    2  A    between atoms: C_6  and  C_7 
REMARK    3  A    between atoms: C_11  and  C_12 
REMARK       I    between atoms: C_12  and  N_13 
REMARK    4  A    between atoms: N_13  and  N_14 
REMARK       I    between atoms: N_14  and  C_15 
REMARK    5  A    between atoms: C_15  and  C_16 
REMARK    6  A    between atoms: C_17  and  C_18 
ROOT
HETATM    1  C   UNL     1      39.599 -13.318   1.124  1.00  0.00     0.288 C 
HETATM    2  N   UNL     1      39.080 -13.572  -0.129  1.00  0.00    -0.262 N 
HETATM    3  O   UNL     1      39.139 -12.438   1.850  1.00  0.00    -0.264 OA
HETATM    4  H   UNL     1      39.553 -14.159  -0.812  1.00  0.00     0.190 HD
ENDROOT
BRANCH   1   5
HETATM    5  C   UNL     1      40.712 -14.139   1.513  1.00  0.00     0.121 A 
HETATM    6  N   UNL     1      41.988 -13.842   1.128  1.00  0.00    -0.272 N 
HETATM    7  N   UNL     1      42.912 -14.712   1.562  1.00  0.00    -0.174 NA
HETATM    8  H   UNL     1      42.286 -13.054   0.561  1.00  0.00     0.189 HD
HETATM    9  C   UNL     1      42.222 -15.612   2.282  1.00  0.00     0.089 A 
HETATM   10  C   UNL     1      40.834 -15.286   2.271  1.00  0.00     0.071 A 
BRANCH   9  11
HETATM   11  C   UNL     1      42.889 -16.740   2.943  1.00  0.00    -0.005 A 
HETATM   12  C   UNL     1      42.971 -17.997   2.331  1.00  0.00     0.016 A 
HETATM   13  C   UNL     1      43.619 -19.060   2.973  1.00  0.00     0.037 A 
HETATM   14  C   UNL     1      44.198 -18.889   4.232  1.00  0.00     0.068 A 
HETATM   15  C   UNL     1      44.115 -17.646   4.853  1.00  0.00     0.037 A 
HETATM   16  C   UNL     1      43.465 -16.583   4.212  1.00  0.00     0.016 A 
BRANCH  14  17
HETATM   17  O   UNL     1      44.802 -20.005   4.740  1.00  0.00    -0.356 OA
HETATM   18  C   UNL     1      43.947 -21.036   5.218  1.00  0.00     0.210 C 
ENDBRANCH  14  17
ENDBRANCH   9  11
ENDBRANCH   1   5
BRANCH   2  19
HETATM   19  N   UNL     1      38.115 -12.694  -0.641  1.00  0.00    -0.267 N 
HETATM   20  C   UNL     1      38.525 -11.736  -1.540  1.00  0.00     0.240 C 
HETATM   21  O   UNL     1      39.658 -11.693  -2.010  1.00  0.00    -0.271 OA
HETATM   22  H   UNL     1      37.231 -12.643  -0.139  1.00  0.00     0.190 HD
BRANCH  20  23
HETATM   23  C   UNL     1      37.491 -10.722  -1.882  1.00  0.00     0.089 A 
HETATM   24  C   UNL     1      36.554 -10.973  -3.054  1.00  0.00     0.034 A 
HETATM   25  C   UNL     1      37.623  -9.907  -3.140  1.00  0.00     0.025 A 
BRANCH  24  26
HETATM   26  C   UNL     1      35.089 -10.594  -2.944  1.00  0.00    -0.031 A 
HETATM   27  C   UNL     1      34.074 -11.216  -3.699  1.00  0.00     0.040 A 
HETATM   28 CL   UNL     1      34.449 -12.485  -4.816  1.00  0.00    -0.084 Cl
HETATM   29  C   UNL     1      32.733 -10.832  -3.585  1.00  0.00     0.024 A 
HETATM   30  C   UNL     1      32.372  -9.806  -2.715  1.00  0.00     0.002 A 
HETATM   31  C   UNL     1      33.352  -9.161  -1.969  1.00  0.00     0.001 A 
HETATM   32  C   UNL     1      34.690  -9.547  -2.088  1.00  0.00     0.009 A 
ENDBRANCH  24  26
ENDBRANCH  20  23
ENDBRANCH   2  19
TORSDOF 6
ENDMDL
MODEL 10
REMARK VINA RESULT:      -8.0      4.503     11.963
REMARK  6 active torsions:
REMARK  status: ('A' for Active; 'I' for Inactive)
REMARK    1  A    between atoms: O_2  and  C_3 
REMARK    2  A    between atoms: C_6  and  C_7 
REMARK    3  A    between atoms: C_11  and  C_12 
REMARK       I    between atoms: C_12  and  N_13 
REMARK    4  A    between atoms: N_13  and  N_14 
REMARK       I    between atoms: N_14  and  C_15 
REMARK    5  A    between atoms: C_15  and  C_16 
REMARK    6  A    between atoms: C_17  and  C_18 
ROOT
HETATM    1  C   UNL     1      41.878 -11.391   5.181  1.00  0.00     0.288 C 
HETATM    2  N   UNL     1      42.785 -11.930   6.071  1.00  0.00    -0.262 N 
HETATM    3  O   UNL     1      41.243 -10.371   5.441  1.00  0.00    -0.264 OA
HETATM    4  H   UNL     1      43.180 -12.861   5.958  1.00  0.00     0.190 HD
ENDROOT
BRANCH   1   5
HETATM    5  C   UNL     1      41.720 -12.106   3.945  1.00  0.00     0.121 A 
HETATM    6  N   UNL     1      42.266 -13.345   3.760  1.00  0.00    -0.272 N 
HETATM    7  N   UNL     1      42.041 -13.872   2.549  1.00  0.00    -0.174 NA
HETATM    8  H   UNL     1      42.811 -13.877   4.433  1.00  0.00     0.189 HD
HETATM    9  C   UNL     1      41.296 -12.954   1.910  1.00  0.00     0.089 A 
HETATM   10  C   UNL     1      41.078 -11.828   2.755  1.00  0.00     0.071 A 
BRANCH   9  11
HETATM   11  C   UNL     1      40.828 -13.168   0.535  1.00  0.00    -0.005 A 
HETATM   12  C   UNL     1      40.138 -14.331   0.173  1.00  0.00     0.016 A 
HETATM   13  C   UNL     1      39.691 -14.513  -1.142  1.00  0.00     0.037 A 
HETATM   14  C   UNL     1      39.921 -13.540  -2.117  1.00  0.00     0.068 A 
HETATM   15  C   UNL     1      40.613 -12.382  -1.769  1.00  0.00     0.037 A 
HETATM   16  C   UNL     1      41.062 -12.201  -0.454  1.00  0.00     0.016 A 
BRANCH  14  17
HETATM   17  O   UNL     1      39.427 -13.842  -3.355  1.00  0.00    -0.356 OA
HETATM   18  C   UNL     1      38.281 -14.683  -3.401  1.00  0.00     0.210 C 
ENDBRANCH  14  17
ENDBRANCH   9  11
ENDBRANCH   1   5
BRANCH   2  19
HETATM   19  N   UNL     1      42.856 -11.387   7.361  1.00  0.00    -0.267 N 
HETATM   20  C   UNL     1      44.077 -10.927   7.802  1.00  0.00     0.240 C 
HETATM   21  O   UNL     1      45.069 -10.851   7.083  1.00  0.00    -0.271 OA
HETATM   22  H   UNL     1      42.080 -11.593   7.987  1.00  0.00     0.190 HD
BRANCH  20  23
HETATM   23  C   UNL     1      44.116 -10.554   9.241  1.00  0.00     0.089 A 
HETATM   24  C   UNL     1      43.855  -9.111   9.649  1.00  0.00     0.034 A 
HETATM   25  C   UNL     1      45.241  -9.704   9.768  1.00  0.00     0.025 A 
BRANCH  24  26
HETATM   26  C   UNL     1      43.031  -8.814  10.887  1.00  0.00    -0.031 A 
HETATM   27  C   UNL     1      41.621  -8.837  10.896  1.00  0.00     0.040 A 
HETATM   28 CL   UNL     1      40.729  -9.222   9.463  1.00  0.00    -0.084 Cl
HETATM   29  C   UNL     1      40.889  -8.543  12.053  1.00  0.00     0.024 A 
HETATM   30  C   UNL     1      41.551  -8.210  13.232  1.00  0.00     0.002 A 
HETATM   31  C   UNL     1      42.940  -8.162  13.251  1.00  0.00     0.001 A 
HETATM   32  C   UNL     1      43.666  -8.455  12.093  1.00  0.00     0.009 A 
ENDBRANCH  24  26
ENDBRANCH  20  23
ENDBRANCH   2  19
TORSDOF 6
ENDMDL
