MODEL 1
REMARK VINA RESULT:      -7.2      0.000      0.000
REMARK  5 active torsions:
REMARK  status: ('A' for Active; 'I' for Inactive)
REMARK    1  A    between atoms: C_2  and  C_3 
REMARK    2  A    between atoms: C_3  and  N_4 
REMARK       I    between atoms: N_4  and  C_5 
REMARK    3  A    between atoms: C_5  and  C_6 
REMARK    4  A    between atoms: C_7  and  O_8 
REMARK    5  A    between atoms: O_8  and  C_9 
ROOT
HETATM    1  C   UNL     1      40.365 -12.929   1.937  1.00  0.00     0.121 C 
HETATM    2  C   UNL     1      40.854 -11.880   0.993  1.00  0.00     0.091 C 
HETATM    3  N   UNL     1      41.264 -11.056   0.284  1.00  0.00    -0.195 NA
HETATM    4  C   UNL     1      38.883 -12.616   2.236  1.00  0.00     0.055 C 
ENDROOT
BRANCH   1   5
HETATM    5  C   UNL     1      40.537 -14.350   1.291  1.00  0.00     0.020 C 
HETATM    6  C   UNL     1      39.938 -14.441  -0.122  1.00  0.00     0.013 C 
HETATM    7  C   UNL     1      39.971 -15.495   2.148  1.00  0.00     0.013 C 
ENDBRANCH   1   5
BRANCH   1   8
HETATM    8  N   UNL     1      41.156 -12.816   3.185  1.00  0.00    -0.335 N 
HETATM    9  C   UNL     1      42.516 -12.999   3.274  1.00  0.00     0.257 C 
HETATM   10  O   UNL     1      43.207 -13.298   2.304  1.00  0.00    -0.267 OA
HETATM   11  H   UNL     1      40.646 -12.563   4.025  1.00  0.00     0.164 HD
BRANCH   9  12
HETATM   12  C   UNL     1      43.174 -12.794   4.597  1.00  0.00     0.085 A 
HETATM   13  C   UNL     1      43.023 -13.619   5.711  1.00  0.00     0.185 A 
HETATM   14  N   UNL     1      43.614 -13.370   6.911  1.00  0.00    -0.236 NA
HETATM   15  C   UNL     1      44.410 -12.285   7.002  1.00  0.00     0.119 A 
HETATM   16  C   UNL     1      44.644 -11.421   5.951  1.00  0.00     0.020 A 
HETATM   17  C   UNL     1      44.016 -11.681   4.735  1.00  0.00     0.023 A 
BRANCH  13  18
HETATM   18  O   UNL     1      42.188 -14.726   5.608  1.00  0.00    -0.291 OA
BRANCH  18  19
HETATM   19  C   UNL     1      42.767 -15.962   5.445  1.00  0.00     0.078 A 
HETATM   20  C   UNL     1      42.822 -16.792   6.567  1.00  0.00     0.039 A 
HETATM   21  C   UNL     1      43.347 -18.081   6.452  1.00  0.00     0.026 A 
HETATM   22  C   UNL     1      43.799 -18.537   5.214  1.00  0.00     0.034 A 
HETATM   23 CL   UNL     1      44.452 -20.122   5.074  1.00  0.00    -0.084 Cl
HETATM   24  C   UNL     1      43.720 -17.719   4.087  1.00  0.00     0.026 A 
HETATM   25  C   UNL     1      43.191 -16.431   4.199  1.00  0.00     0.039 A 
ENDBRANCH  18  19
ENDBRANCH  13  18
ENDBRANCH   9  12
ENDBRANCH   1   8
TORSDOF 5
ENDMDL
MODEL 2
REMARK VINA RESULT:      -7.0      2.655      4.633
REMARK  5 active torsions:
REMARK  status: ('A' for Active; 'I' for Inactive)
REMARK    1  A    between atoms: C_2  and  C_3 
REMARK    2  A    between atoms: C_3  and  N_4 
REMARK       I    between atoms: N_4  and  C_5 
REMARK    3  A    between atoms: C_5  and  C_6 
REMARK    4  A    between atoms: C_7  and  O_8 
REMARK    5  A    between atoms: O_8  and  C_9 
ROOT
HETATM    1  C   UNL     1      40.299 -13.115   1.147  1.00  0.00     0.121 C 
HETATM    2  C   UNL     1      39.822 -13.776  -0.105  1.00  0.00     0.091 C 
HETATM    3  N   UNL     1      39.466 -14.324  -1.066  1.00  0.00    -0.195 NA
HETATM    4  C   UNL     1      41.131 -11.886   0.722  1.00  0.00     0.055 C 
ENDROOT
BRANCH   1   5
HETATM    5  C   UNL     1      39.072 -12.704   2.036  1.00  0.00     0.020 C 
HETATM    6  C   UNL     1      38.205 -11.610   1.389  1.00  0.00     0.013 C 
HETATM    7  C   UNL     1      39.454 -12.262   3.458  1.00  0.00     0.013 C 
ENDBRANCH   1   5
BRANCH   1   8
HETATM    8  N   UNL     1      41.170 -14.079   1.861  1.00  0.00    -0.335 N 
HETATM    9  C   UNL     1      40.793 -15.343   2.248  1.00  0.00     0.257 C 
HETATM   10  O   UNL     1      39.666 -15.786   2.046  1.00  0.00    -0.267 OA
HETATM   11  H   UNL     1      42.120 -13.777   2.052  1.00  0.00     0.164 HD
BRANCH   9  12
HETATM   12  C   UNL     1      41.807 -16.214   2.909  1.00  0.00     0.085 A 
HETATM   13  C   UNL     1      42.272 -16.064   4.216  1.00  0.00     0.185 A 
HETATM   14  N   UNL     1      43.228 -16.861   4.766  1.00  0.00    -0.236 NA
HETATM   15  C   UNL     1      43.717 -17.863   4.007  1.00  0.00     0.119 A 
HETATM   16  C   UNL     1      43.304 -18.111   2.712  1.00  0.00     0.020 A 
HETATM   17  C   UNL     1      42.338 -17.273   2.160  1.00  0.00     0.023 A 
BRANCH  13  18
HETATM   18  O   UNL     1      41.770 -15.018   4.983  1.00  0.00    -0.291 OA
BRANCH  18  19
HETATM   19  C   UNL     1      42.650 -14.063   5.432  1.00  0.00     0.078 A 
HETATM   20  C   UNL     1      43.000 -13.049   4.538  1.00  0.00     0.039 A 
HETATM   21  C   UNL     1      43.846 -12.018   4.952  1.00  0.00     0.026 A 
HETATM   22  C   UNL     1      44.324 -11.999   6.263  1.00  0.00     0.034 A 
HETATM   23 CL   UNL     1      45.372 -10.733   6.771  1.00  0.00    -0.084 Cl
HETATM   24  C   UNL     1      43.954 -12.996   7.165  1.00  0.00     0.026 A 
HETATM   25  C   UNL     1      43.104 -14.026   6.753  1.00  0.00     0.039 A 
ENDBRANCH  18  19
ENDBRANCH  13  18
ENDBRANCH   9  12
ENDBRANCH   1   8
TORSDOF 5
ENDMDL
MODEL 3
REMARK VINA RESULT:      -6.8      2.993      6.074
REMARK  5 active torsions:
REMARK  status: ('A' for Active; 'I' for Inactive)
REMARK    1  A    between atoms: C_2  and  C_3 
REMARK    2  A    between atoms: C_3  and  N_4 
REMARK       I    between atoms: N_4  and  C_5 
REMARK    3  A    between atoms: C_5  and  C_6 
REMARK    4  A    between atoms: C_7  and  O_8 
REMARK    5  A    between atoms: O_8  and  C_9 
ROOT
HETATM    1  C   UNL     1      42.245 -12.844   5.435  1.00  0.00     0.121 C 
HETATM    2  C   UNL     1      43.241 -12.810   6.548  1.00  0.00     0.091 C 
HETATM    3  N   UNL     1      44.035 -12.814   7.397  1.00  0.00    -0.195 NA
HETATM    4  C   UNL     1      40.847 -12.954   6.080  1.00  0.00     0.055 C 
ENDROOT
BRANCH   1   5
HETATM    5  C   UNL     1      42.377 -11.546   4.560  1.00  0.00     0.020 C 
HETATM    6  C   UNL     1      43.630 -11.553   3.667  1.00  0.00     0.013 C 
HETATM    7  C   UNL     1      42.350 -10.242   5.373  1.00  0.00     0.013 C 
ENDBRANCH   1   5
BRANCH   1   8
HETATM    8  N   UNL     1      42.514 -14.057   4.627  1.00  0.00    -0.335 N 
HETATM    9  C   UNL     1      42.478 -15.345   5.106  1.00  0.00     0.257 C 
HETATM   10  O   UNL     1      42.229 -15.607   6.278  1.00  0.00    -0.267 OA
HETATM   11  H   UNL     1      42.720 -13.911   3.644  1.00  0.00     0.164 HD
BRANCH   9  12
HETATM   12  C   UNL     1      42.718 -16.463   4.149  1.00  0.00     0.085 A 
HETATM   13  C   UNL     1      41.902 -16.791   3.066  1.00  0.00     0.185 A 
HETATM   14  N   UNL     1      42.142 -17.845   2.240  1.00  0.00    -0.236 NA
HETATM   15  C   UNL     1      43.247 -18.582   2.474  1.00  0.00     0.119 A 
HETATM   16  C   UNL     1      44.131 -18.326   3.503  1.00  0.00     0.020 A 
HETATM   17  C   UNL     1      43.860 -17.253   4.349  1.00  0.00     0.023 A 
BRANCH  13  18
HETATM   18  O   UNL     1      40.758 -16.032   2.845  1.00  0.00    -0.291 OA
BRANCH  18  19
HETATM   19  C   UNL     1      40.719 -15.225   1.732  1.00  0.00     0.078 A 
HETATM   20  C   UNL     1      39.878 -15.619   0.690  1.00  0.00     0.039 A 
HETATM   21  C   UNL     1      39.752 -14.814  -0.444  1.00  0.00     0.026 A 
HETATM   22  C   UNL     1      40.456 -13.612  -0.521  1.00  0.00     0.034 A 
HETATM   23 CL   UNL     1      40.306 -12.623  -1.921  1.00  0.00    -0.084 Cl
HETATM   24  C   UNL     1      41.276 -13.203   0.531  1.00  0.00     0.026 A 
HETATM   25  C   UNL     1      41.400 -14.006   1.667  1.00  0.00     0.039 A 
ENDBRANCH  18  19
ENDBRANCH  13  18
ENDBRANCH   9  12
ENDBRANCH   1   8
TORSDOF 5
ENDMDL
MODEL 4
REMARK VINA RESULT:      -6.5     15.703     17.169
REMARK  5 active torsions:
REMARK  status: ('A' for Active; 'I' for Inactive)
REMARK    1  A    between atoms: C_2  and  C_3 
REMARK    2  A    between atoms: C_3  and  N_4 
REMARK       I    between atoms: N_4  and  C_5 
REMARK    3  A    between atoms: C_5  and  C_6 
REMARK    4  A    between atoms: C_7  and  O_8 
REMARK    5  A    between atoms: O_8  and  C_9 
ROOT
HETATM    1  C   UNL     1      48.320 -30.470   1.446  1.00  0.00     0.121 C 
HETATM    2  C   UNL     1      49.664 -30.205   0.850  1.00  0.00     0.091 C 
HETATM    3  N   UNL     1      50.692 -29.987   0.354  1.00  0.00    -0.195 NA
HETATM    4  C   UNL     1      48.315 -31.939   1.922  1.00  0.00     0.055 C 
ENDROOT
BRANCH   1   5
HETATM    5  C   UNL     1      48.057 -29.477   2.634  1.00  0.00     0.020 C 
HETATM    6  C   UNL     1      49.238 -29.394   3.616  1.00  0.00     0.013 C 
HETATM    7  C   UNL     1      46.771 -29.776   3.423  1.00  0.00     0.013 C 
ENDBRANCH   1   5
BRANCH   1   8
HETATM    8  N   UNL     1      47.310 -30.294   0.376  1.00  0.00    -0.335 N 
HETATM    9  C   UNL     1      46.980 -29.091  -0.204  1.00  0.00     0.257 C 
HETATM   10  O   UNL     1      47.495 -28.031   0.137  1.00  0.00    -0.267 OA
HETATM   11  H   UNL     1      46.851 -31.135   0.042  1.00  0.00     0.164 HD
BRANCH   9  12
HETATM   12  C   UNL     1      45.981 -29.089  -1.311  1.00  0.00     0.085 A 
HETATM   13  C   UNL     1      44.915 -29.979  -1.439  1.00  0.00     0.185 A 
HETATM   14  N   UNL     1      44.049 -29.963  -2.489  1.00  0.00    -0.236 NA
HETATM   15  C   UNL     1      44.224 -29.011  -3.428  1.00  0.00     0.119 A 
HETATM   16  C   UNL     1      45.233 -28.069  -3.380  1.00  0.00     0.020 A 
HETATM   17  C   UNL     1      46.121 -28.112  -2.307  1.00  0.00     0.023 A 
BRANCH  13  18
HETATM   18  O   UNL     1      44.753 -30.965  -0.472  1.00  0.00    -0.291 OA
BRANCH  18  19
HETATM   19  C   UNL     1      43.906 -30.710   0.580  1.00  0.00     0.078 A 
HETATM   20  C   UNL     1      43.941 -31.599   1.655  1.00  0.00     0.039 A 
HETATM   21  C   UNL     1      43.144 -31.364   2.778  1.00  0.00     0.026 A 
HETATM   22  C   UNL     1      42.329 -30.233   2.824  1.00  0.00     0.034 A 
HETATM   23 CL   UNL     1      41.342 -29.947   4.203  1.00  0.00    -0.084 Cl
HETATM   24  C   UNL     1      42.313 -29.329   1.762  1.00  0.00     0.026 A 
HETATM   25  C   UNL     1      43.113 -29.560   0.640  1.00  0.00     0.039 A 
ENDBRANCH  18  19
ENDBRANCH  13  18
ENDBRANCH   9  12
ENDBRANCH   1   8
TORSDOF 5
ENDMDL
MODEL 5
REMARK VINA RESULT:      -6.5      2.982      5.041
REMARK  5 active torsions:
REMARK  status: ('A' for Active; 'I' for Inactive)
REMARK    1  A    between atoms: C_2  and  C_3 
REMARK    2  A    between atoms: C_3  and  N_4 
REMARK       I    between atoms: N_4  and  C_5 
REMARK    3  A    between atoms: C_5  and  C_6 
REMARK    4  A    between atoms: C_7  and  O_8 
REMARK    5  A    between atoms: O_8  and  C_9 
ROOT
HETATM    1  C   UNL     1      42.759 -16.232   4.228  1.00  0.00     0.121 C 
HETATM    2  C   UNL     1      41.272 -16.296   4.093  1.00  0.00     0.091 C 
HETATM    3  N   UNL     1      40.114 -16.307   3.995  1.00  0.00    -0.195 NA
HETATM    4  C   UNL     1      43.164 -17.280   5.287  1.00  0.00     0.055 C 
ENDROOT
BRANCH   1   5
HETATM    5  C   UNL     1      43.434 -16.520   2.840  1.00  0.00     0.020 C 
HETATM    6  C   UNL     1      43.072 -15.475   1.771  1.00  0.00     0.013 C 
HETATM    7  C   UNL     1      43.141 -17.924   2.285  1.00  0.00     0.013 C 
ENDBRANCH   1   5
BRANCH   1   8
HETATM    8  N   UNL     1      43.108 -14.876   4.715  1.00  0.00    -0.335 N 
HETATM    9  C   UNL     1      42.635 -14.311   5.876  1.00  0.00     0.257 C 
HETATM   10  O   UNL     1      41.848 -14.889   6.619  1.00  0.00    -0.267 OA
HETATM   11  H   UNL     1      43.762 -14.345   4.149  1.00  0.00     0.164 HD
BRANCH   9  12
HETATM   12  C   UNL     1      43.128 -12.955   6.255  1.00  0.00     0.085 A 
HETATM   13  C   UNL     1      42.434 -11.760   6.064  1.00  0.00     0.185 A 
HETATM   14  N   UNL     1      42.940 -10.540   6.392  1.00  0.00    -0.236 NA
HETATM   15  C   UNL     1      44.162 -10.504   6.961  1.00  0.00     0.119 A 
HETATM   16  C   UNL     1      44.918 -11.632   7.216  1.00  0.00     0.020 A 
HETATM   17  C   UNL     1      44.391 -12.870   6.856  1.00  0.00     0.023 A 
BRANCH  13  18
HETATM   18  O   UNL     1      41.181 -11.810   5.463  1.00  0.00    -0.291 OA
BRANCH  18  19
HETATM   19  C   UNL     1      41.119 -12.014   4.106  1.00  0.00     0.078 A 
HETATM   20  C   UNL     1      40.051 -12.773   3.624  1.00  0.00     0.039 A 
HETATM   21  C   UNL     1      39.903 -12.969   2.249  1.00  0.00     0.026 A 
HETATM   22  C   UNL     1      40.814 -12.391   1.364  1.00  0.00     0.034 A 
HETATM   23 CL   UNL     1      40.634 -12.638  -0.328  1.00  0.00    -0.084 Cl
HETATM   24  C   UNL     1      41.866 -11.610   1.842  1.00  0.00     0.026 A 
HETATM   25  C   UNL     1      42.013 -11.409   3.217  1.00  0.00     0.039 A 
ENDBRANCH  18  19
ENDBRANCH  13  18
ENDBRANCH   9  12
ENDBRANCH   1   8
TORSDOF 5
ENDMDL
MODEL 6
REMARK VINA RESULT:      -6.5      2.607      4.374
REMARK  5 active torsions:
REMARK  status: ('A' for Active; 'I' for Inactive)
REMARK    1  A    between atoms: C_2  and  C_3 
REMARK    2  A    between atoms: C_3  and  N_4 
REMARK       I    between atoms: N_4  and  C_5 
REMARK    3  A    between atoms: C_5  and  C_6 
REMARK    4  A    between atoms: C_7  and  O_8 
REMARK    5  A    between atoms: O_8  and  C_9 
ROOT
HETATM    1  C   UNL     1      40.150 -12.416   0.938  1.00  0.00     0.121 C 
HETATM    2  C   UNL     1      41.004 -11.298   0.437  1.00  0.00     0.091 C 
HETATM    3  N   UNL     1      41.700 -10.449   0.056  1.00  0.00    -0.195 NA
HETATM    4  C   UNL     1      39.215 -11.827   2.016  1.00  0.00     0.055 C 
ENDROOT
BRANCH   1   5
HETATM    5  C   UNL     1      39.339 -13.043  -0.252  1.00  0.00     0.020 C 
HETATM    6  C   UNL     1      40.232 -13.798  -1.251  1.00  0.00     0.013 C 
HETATM    7  C   UNL     1      38.476 -12.029  -1.020  1.00  0.00     0.013 C 
ENDBRANCH   1   5
BRANCH   1   8
HETATM    8  N   UNL     1      41.045 -13.423   1.557  1.00  0.00    -0.335 N 
HETATM    9  C   UNL     1      40.622 -14.530   2.254  1.00  0.00     0.257 C 
HETATM   10  O   UNL     1      39.434 -14.776   2.444  1.00  0.00    -0.267 OA
HETATM   11  H   UNL     1      42.042 -13.283   1.430  1.00  0.00     0.164 HD
BRANCH   9  12
HETATM   12  C   UNL     1      41.650 -15.480   2.768  1.00  0.00     0.085 A 
HETATM   13  C   UNL     1      42.192 -15.468   4.053  1.00  0.00     0.185 A 
HETATM   14  N   UNL     1      43.158 -16.332   4.466  1.00  0.00    -0.236 NA
HETATM   15  C   UNL     1      43.579 -17.264   3.587  1.00  0.00     0.119 A 
HETATM   16  C   UNL     1      43.088 -17.376   2.301  1.00  0.00     0.020 A 
HETATM   17  C   UNL     1      42.112 -16.470   1.890  1.00  0.00     0.023 A 
BRANCH  13  18
HETATM   18  O   UNL     1      41.759 -14.493   4.946  1.00  0.00    -0.291 OA
BRANCH  18  19
HETATM   19  C   UNL     1      42.666 -13.549   5.365  1.00  0.00     0.078 A 
HETATM   20  C   UNL     1      43.132 -13.652   6.677  1.00  0.00     0.039 A 
HETATM   21  C   UNL     1      44.096 -12.756   7.145  1.00  0.00     0.026 A 
HETATM   22  C   UNL     1      44.598 -11.772   6.293  1.00  0.00     0.034 A 
HETATM   23 CL   UNL     1      45.780 -10.665   6.871  1.00  0.00    -0.084 Cl
HETATM   24  C   UNL     1      44.154 -11.684   4.974  1.00  0.00     0.026 A 
HETATM   25  C   UNL     1      43.193 -12.582   4.503  1.00  0.00     0.039 A 
ENDBRANCH  18  19
ENDBRANCH  13  18
ENDBRANCH   9  12
ENDBRANCH   1   8
TORSDOF 5
ENDMDL
MODEL 7
REMARK VINA RESULT:      -6.5     16.296     18.889
REMARK  5 active torsions:
REMARK  status: ('A' for Active; 'I' for Inactive)
REMARK    1  A    between atoms: C_2  and  C_3 
REMARK    2  A    between atoms: C_3  and  N_4 
REMARK       I    between atoms: N_4  and  C_5 
REMARK    3  A    between atoms: C_5  and  C_6 
REMARK    4  A    between atoms: C_7  and  O_8 
REMARK    5  A    between atoms: O_8  and  C_9 
ROOT
HETATM    1  C   UNL     1      49.697 -30.953   3.797  1.00  0.00     0.121 C 
HETATM    2  C   UNL     1      50.889 -30.951   4.698  1.00  0.00     0.091 C 
HETATM    3  N   UNL     1      51.839 -30.938   5.368  1.00  0.00    -0.195 NA
HETATM    4  C   UNL     1      49.032 -32.340   3.928  1.00  0.00     0.055 C 
ENDROOT
BRANCH   1   5
HETATM    5  C   UNL     1      48.715 -29.799   4.207  1.00  0.00     0.020 C 
HETATM    6  C   UNL     1      47.345 -30.318   4.675  1.00  0.00     0.013 C 
HETATM    7  C   UNL     1      48.501 -28.744   3.109  1.00  0.00     0.013 C 
ENDBRANCH   1   5
BRANCH   1   8
HETATM    8  N   UNL     1      50.183 -30.767   2.408  1.00  0.00    -0.335 N 
HETATM    9  C   UNL     1      50.738 -31.754   1.629  1.00  0.00     0.257 C 
HETATM   10  O   UNL     1      50.900 -32.901   2.034  1.00  0.00    -0.267 OA
HETATM   11  H   UNL     1      50.071 -29.840   2.010  1.00  0.00     0.164 HD
BRANCH   9  12
HETATM   12  C   UNL     1      51.126 -31.418   0.229  1.00  0.00     0.085 A 
HETATM   13  C   UNL     1      50.579 -30.388  -0.536  1.00  0.00     0.185 A 
HETATM   14  N   UNL     1      50.938 -30.142  -1.825  1.00  0.00    -0.236 NA
HETATM   15  C   UNL     1      51.897 -30.921  -2.365  1.00  0.00     0.119 A 
HETATM   16  C   UNL     1      52.519 -31.948  -1.684  1.00  0.00     0.020 A 
HETATM   17  C   UNL     1      52.125 -32.198  -0.371  1.00  0.00     0.023 A 
BRANCH  13  18
HETATM   18  O   UNL     1      49.580 -29.601   0.028  1.00  0.00    -0.291 OA
BRANCH  18  19
HETATM   19  C   UNL     1      48.377 -29.510  -0.629  1.00  0.00     0.078 A 
HETATM   20  C   UNL     1      47.611 -30.674  -0.718  1.00  0.00     0.039 A 
HETATM   21  C   UNL     1      46.354 -30.633  -1.325  1.00  0.00     0.026 A 
HETATM   22  C   UNL     1      45.864 -29.426  -1.825  1.00  0.00     0.034 A 
HETATM   23 CL   UNL     1      44.319 -29.378  -2.578  1.00  0.00    -0.084 Cl
HETATM   24  C   UNL     1      46.616 -28.257  -1.712  1.00  0.00     0.026 A 
HETATM   25  C   UNL     1      47.872 -28.295  -1.101  1.00  0.00     0.039 A 
ENDBRANCH  18  19
ENDBRANCH  13  18
ENDBRANCH   9  12
ENDBRANCH   1   8
TORSDOF 5
ENDMDL
MODEL 8
REMARK VINA RESULT:      -6.5      2.783      4.649
REMARK  5 active torsions:
REMARK  status: ('A' for Active; 'I' for Inactive)
REMARK    1  A    between atoms: C_2  and  C_3 
REMARK    2  A    between atoms: C_3  and  N_4 
REMARK       I    between atoms: N_4  and  C_5 
REMARK    3  A    between atoms: C_5  and  C_6 
REMARK    4  A    between atoms: C_7  and  O_8 
REMARK    5  A    between atoms: O_8  and  C_9 
ROOT
HETATM    1  C   UNL     1      40.985 -13.426   1.556  1.00  0.00     0.121 C 
HETATM    2  C   UNL     1      39.776 -13.101   2.371  1.00  0.00     0.091 C 
HETATM    3  N   UNL     1      38.850 -12.870   3.034  1.00  0.00    -0.195 NA
HETATM    4  C   UNL     1      40.487 -14.017   0.220  1.00  0.00     0.055 C 
ENDROOT
BRANCH   1   5
HETATM    5  C   UNL     1      41.842 -12.129   1.330  1.00  0.00     0.020 C 
HETATM    6  C   UNL     1      42.571 -11.666   2.603  1.00  0.00     0.013 C 
HETATM    7  C   UNL     1      41.043 -10.947   0.755  1.00  0.00     0.013 C 
ENDBRANCH   1   5
BRANCH   1   8
HETATM    8  N   UNL     1      41.762 -14.451   2.292  1.00  0.00    -0.335 N 
HETATM    9  C   UNL     1      41.275 -15.676   2.684  1.00  0.00     0.257 C 
HETATM   10  O   UNL     1      40.119 -16.027   2.466  1.00  0.00    -0.267 OA
HETATM   11  H   UNL     1      42.730 -14.226   2.498  1.00  0.00     0.164 HD
BRANCH   9  12
HETATM   12  C   UNL     1      42.203 -16.621   3.369  1.00  0.00     0.085 A 
HETATM   13  C   UNL     1      42.336 -16.763   4.750  1.00  0.00     0.185 A 
HETATM   14  N   UNL     1      43.225 -17.613   5.333  1.00  0.00    -0.236 NA
HETATM   15  C   UNL     1      43.986 -18.374   4.519  1.00  0.00     0.119 A 
HETATM   16  C   UNL     1      43.911 -18.327   3.141  1.00  0.00     0.020 A 
HETATM   17  C   UNL     1      43.008 -17.437   2.563  1.00  0.00     0.023 A 
BRANCH  13  18
HETATM   18  O   UNL     1      41.557 -15.962   5.578  1.00  0.00    -0.291 OA
BRANCH  18  19
HETATM   19  C   UNL     1      42.024 -14.710   5.898  1.00  0.00     0.078 A 
HETATM   20  C   UNL     1      43.371 -14.605   6.252  1.00  0.00     0.039 A 
HETATM   21  C   UNL     1      43.919 -13.352   6.533  1.00  0.00     0.026 A 
HETATM   22  C   UNL     1      43.122 -12.211   6.444  1.00  0.00     0.034 A 
HETATM   23 CL   UNL     1      43.796 -10.668   6.797  1.00  0.00    -0.084 Cl
HETATM   24  C   UNL     1      41.783 -12.311   6.064  1.00  0.00     0.026 A 
HETATM   25  C   UNL     1      41.234 -13.563   5.778  1.00  0.00     0.039 A 
ENDBRANCH  18  19
ENDBRANCH  13  18
ENDBRANCH   9  12
ENDBRANCH   1   8
TORSDOF 5
ENDMDL
MODEL 9
REMARK VINA RESULT:      -6.5     15.661     17.494
REMARK  5 active torsions:
REMARK  status: ('A' for Active; 'I' for Inactive)
REMARK    1  A    between atoms: C_2  and  C_3 
REMARK    2  A    between atoms: C_3  and  N_4 
REMARK       I    between atoms: N_4  and  C_5 
REMARK    3  A    between atoms: C_5  and  C_6 
REMARK    4  A    between atoms: C_7  and  O_8 
REMARK    5  A    between atoms: O_8  and  C_9 
ROOT
HETATM    1  C   UNL     1      48.899 -30.653   1.638  1.00  0.00     0.121 C 
HETATM    2  C   UNL     1      49.491 -30.073   0.395  1.00  0.00     0.091 C 
HETATM    3  N   UNL     1      49.917 -29.608  -0.581  1.00  0.00    -0.195 NA
HETATM    4  C   UNL     1      49.253 -32.155   1.652  1.00  0.00     0.055 C 
ENDROOT
BRANCH   1   5
HETATM    5  C   UNL     1      49.472 -29.912   2.899  1.00  0.00     0.020 C 
HETATM    6  C   UNL     1      51.009 -29.924   2.952  1.00  0.00     0.013 C 
HETATM    7  C   UNL     1      48.921 -30.439   4.234  1.00  0.00     0.013 C 
ENDBRANCH   1   5
BRANCH   1   8
HETATM    8  N   UNL     1      47.428 -30.492   1.553  1.00  0.00    -0.335 N 
HETATM    9  C   UNL     1      46.763 -29.290   1.615  1.00  0.00     0.257 C 
HETATM   10  O   UNL     1      47.345 -28.221   1.769  1.00  0.00    -0.267 OA
HETATM   11  H   UNL     1      46.885 -31.339   1.418  1.00  0.00     0.164 HD
BRANCH   9  12
HETATM   12  C   UNL     1      45.280 -29.291   1.457  1.00  0.00     0.085 A 
HETATM   13  C   UNL     1      44.593 -29.022   0.273  1.00  0.00     0.185 A 
HETATM   14  N   UNL     1      43.236 -28.997   0.185  1.00  0.00    -0.236 NA
HETATM   15  C   UNL     1      42.532 -29.284   1.300  1.00  0.00     0.119 A 
HETATM   16  C   UNL     1      43.117 -29.589   2.513  1.00  0.00     0.020 A 
HETATM   17  C   UNL     1      44.508 -29.591   2.589  1.00  0.00     0.023 A 
BRANCH  13  18
HETATM   18  O   UNL     1      45.330 -28.714  -0.865  1.00  0.00    -0.291 OA
BRANCH  18  19
HETATM   19  C   UNL     1      44.938 -29.266  -2.061  1.00  0.00     0.078 A 
HETATM   20  C   UNL     1      44.974 -28.441  -3.186  1.00  0.00     0.039 A 
HETATM   21  C   UNL     1      44.641 -28.959  -4.439  1.00  0.00     0.026 A 
HETATM   22  C   UNL     1      44.289 -30.303  -4.562  1.00  0.00     0.034 A 
HETATM   23 CL   UNL     1      43.872 -30.939  -6.105  1.00  0.00    -0.084 Cl
HETATM   24  C   UNL     1      44.278 -31.136  -3.444  1.00  0.00     0.026 A 
HETATM   25  C   UNL     1      44.616 -30.621  -2.190  1.00  0.00     0.039 A 
ENDBRANCH  18  19
ENDBRANCH  13  18
ENDBRANCH   9  12
ENDBRANCH   1   8
TORSDOF 5
ENDMDL
MODEL 10
REMARK VINA RESULT:      -6.3      3.368      5.358
REMARK  5 active torsions:
REMARK  status: ('A' for Active; 'I' for Inactive)
REMARK    1  A    between atoms: C_2  and  C_3 
REMARK    2  A    between atoms: C_3  and  N_4 
REMARK       I    between atoms: N_4  and  C_5 
REMARK    3  A    between atoms: C_5  and  C_6 
REMARK    4  A    between atoms: C_7  and  O_8 
REMARK    5  A    between atoms: O_8  and  C_9 
ROOT
HETATM    1  C   UNL     1      40.457 -12.904  -1.068  1.00  0.00     0.121 C 
HETATM    2  C   UNL     1      39.181 -12.336  -0.536  1.00  0.00     0.091 C 
HETATM    3  N   UNL     1      38.202 -11.902  -0.086  1.00  0.00    -0.195 NA
HETATM    4  C   UNL     1      40.077 -14.013  -2.071  1.00  0.00     0.055 C 
ENDROOT
BRANCH   1   5
HETATM    5  C   UNL     1      41.302 -11.770  -1.752  1.00  0.00     0.020 C 
HETATM    6  C   UNL     1      41.363 -10.482  -0.913  1.00  0.00     0.013 C 
HETATM    7  C   UNL     1      40.835 -11.418  -3.174  1.00  0.00     0.013 C 
ENDBRANCH   1   5
BRANCH   1   8
HETATM    8  N   UNL     1      41.195 -13.498   0.072  1.00  0.00    -0.335 N 
HETATM    9  C   UNL     1      40.824 -14.643   0.737  1.00  0.00     0.257 C 
HETATM   10  O   UNL     1      39.815 -15.278   0.448  1.00  0.00    -0.267 OA
HETATM   11  H   UNL     1      42.046 -13.025   0.358  1.00  0.00     0.164 HD
BRANCH   9  12
HETATM   12  C   UNL     1      41.707 -15.144   1.830  1.00  0.00     0.085 A 
HETATM   13  C   UNL     1      42.220 -14.372   2.872  1.00  0.00     0.185 A 
HETATM   14  N   UNL     1      43.054 -14.864   3.828  1.00  0.00    -0.236 NA
HETATM   15  C   UNL     1      43.364 -16.176   3.771  1.00  0.00     0.119 A 
HETATM   16  C   UNL     1      42.887 -17.030   2.795  1.00  0.00     0.020 A 
HETATM   17  C   UNL     1      42.049 -16.503   1.815  1.00  0.00     0.023 A 
BRANCH  13  18
HETATM   18  O   UNL     1      41.905 -13.018   2.912  1.00  0.00    -0.291 OA
BRANCH  18  19
HETATM   19  C   UNL     1      41.234 -12.539   4.012  1.00  0.00     0.078 A 
HETATM   20  C   UNL     1      41.818 -11.474   4.700  1.00  0.00     0.039 A 
HETATM   21  C   UNL     1      41.158 -10.907   5.792  1.00  0.00     0.026 A 
HETATM   22  C   UNL     1      39.912 -11.400   6.180  1.00  0.00     0.034 A 
HETATM   23 CL   UNL     1      39.102 -10.706   7.530  1.00  0.00    -0.084 Cl
HETATM   24  C   UNL     1      39.315 -12.446   5.478  1.00  0.00     0.026 A 
HETATM   25  C   UNL     1      39.971 -13.011   4.382  1.00  0.00     0.039 A 
ENDBRANCH  18  19
ENDBRANCH  13  18
ENDBRANCH   9  12
ENDBRANCH   1   8
TORSDOF 5
ENDMDL
