MODEL 1
REMARK VINA RESULT:      -7.7      0.000      0.000
REMARK  4 active torsions:
REMARK  status: ('A' for Active; 'I' for Inactive)
REMARK    1  A    between atoms: C_4  and  N_5 
REMARK       I    between atoms: N_5  and  C_6 
REMARK    2  A    between atoms: C_6  and  C_7 
REMARK    3  A    between atoms: C_7  and  O_8 
REMARK    4  A    between atoms: O_8  and  C_9 
ROOT
HETATM    1  N   UNL     1      40.576 -14.366   1.854  1.00  0.00    -0.309 N 
HETATM    2  C   UNL     1      41.699 -13.842   2.473  1.00  0.00     0.252 C 
HETATM    3  O   UNL     1      42.312 -12.827   2.161  1.00  0.00    -0.270 OA
HETATM    4  H   UNL     1      40.236 -15.249   2.205  1.00  0.00     0.170 HD
ENDROOT
BRANCH   2   5
HETATM    5  C   UNL     1      42.047 -14.638   3.750  1.00  0.00     0.217 C 
HETATM    6  C   UNL     1      42.093 -13.741   4.978  1.00  0.00     0.050 C 
BRANCH   5   7
HETATM    7  O   UNL     1      43.335 -15.240   3.586  1.00  0.00    -0.335 OA
BRANCH   7   8
HETATM    8  C   UNL     1      43.438 -16.598   3.471  1.00  0.00     0.091 A 
HETATM    9  C   UNL     1      43.960 -17.289   4.580  1.00  0.00     0.069 A 
HETATM   10 CL   UNL     1      44.478 -16.442   5.996  1.00  0.00    -0.081 Cl
HETATM   11  C   UNL     1      44.109 -18.677   4.558  1.00  0.00     0.050 A 
HETATM   12  C   UNL     1      43.729 -19.383   3.424  1.00  0.00     0.035 A 
HETATM   13 CL   UNL     1      43.926 -21.091   3.376  1.00  0.00    -0.084 Cl
HETATM   14  C   UNL     1      43.188 -18.718   2.324  1.00  0.00     0.026 A 
HETATM   15  C   UNL     1      43.030 -17.328   2.352  1.00  0.00     0.040 A 
ENDBRANCH   7   8
ENDBRANCH   5   7
ENDBRANCH   2   5
BRANCH   1  16
HETATM   16  C   UNL     1      39.905 -13.827   0.752  1.00  0.00     0.130 A 
HETATM   17  C   UNL     1      39.790 -14.639  -0.374  1.00  0.00     0.057 A 
HETATM   18  C   UNL     1      39.102 -14.167  -1.493  1.00  0.00    -0.057 A 
HETATM   19  C   UNL     1      38.913 -15.024  -2.708  1.00  0.00     0.048 C 
HETATM   20  C   UNL     1      38.565 -12.882  -1.446  1.00  0.00     0.033 A 
HETATM   21  C   UNL     1      38.732 -12.126  -0.291  1.00  0.00     0.033 A 
HETATM   22  N   UNL     1      39.381 -12.593   0.799  1.00  0.00    -0.236 NA
HETATM   23  C   UNL     1      38.178 -10.735  -0.213  1.00  0.00     0.070 C 
ENDBRANCH   1  16
TORSDOF 4
ENDMDL
MODEL 2
REMARK VINA RESULT:      -7.5      1.849      2.121
REMARK  4 active torsions:
REMARK  status: ('A' for Active; 'I' for Inactive)
REMARK    1  A    between atoms: C_4  and  N_5 
REMARK       I    between atoms: N_5  and  C_6 
REMARK    2  A    between atoms: C_6  and  C_7 
REMARK    3  A    between atoms: C_7  and  O_8 
REMARK    4  A    between atoms: O_8  and  C_9 
ROOT
HETATM    1  N   UNL     1      40.923 -14.172   1.680  1.00  0.00    -0.309 N 
HETATM    2  C   UNL     1      40.165 -13.924   2.814  1.00  0.00     0.252 C 
HETATM    3  O   UNL     1      39.128 -13.274   2.884  1.00  0.00    -0.270 OA
HETATM    4  H   UNL     1      41.787 -14.675   1.815  1.00  0.00     0.170 HD
ENDROOT
BRANCH   2   5
HETATM    5  C   UNL     1      40.721 -14.699   4.029  1.00  0.00     0.217 C 
HETATM    6  C   UNL     1      40.553 -13.913   5.322  1.00  0.00     0.050 C 
BRANCH   5   7
HETATM    7  O   UNL     1      42.117 -14.939   3.829  1.00  0.00    -0.335 OA
BRANCH   7   8
HETATM    8  C   UNL     1      42.654 -16.145   4.186  1.00  0.00     0.091 A 
HETATM    9  C   UNL     1      43.268 -16.891   3.163  1.00  0.00     0.069 A 
HETATM   10 CL   UNL     1      43.297 -16.314   1.533  1.00  0.00    -0.081 Cl
HETATM   11  C   UNL     1      43.840 -18.136   3.426  1.00  0.00     0.050 A 
HETATM   12  C   UNL     1      43.807 -18.641   4.720  1.00  0.00     0.035 A 
HETATM   13 CL   UNL     1      44.492 -20.183   5.053  1.00  0.00    -0.084 Cl
HETATM   14  C   UNL     1      43.224 -17.904   5.751  1.00  0.00     0.026 A 
HETATM   15  C   UNL     1      42.660 -16.651   5.488  1.00  0.00     0.040 A 
ENDBRANCH   7   8
ENDBRANCH   5   7
ENDBRANCH   2   5
BRANCH   1  16
HETATM   16  C   UNL     1      40.641 -13.742   0.381  1.00  0.00     0.130 A 
HETATM   17  C   UNL     1      39.923 -14.618  -0.430  1.00  0.00     0.057 A 
HETATM   18  C   UNL     1      39.583 -14.230  -1.727  1.00  0.00    -0.057 A 
HETATM   19  C   UNL     1      38.770 -15.120  -2.617  1.00  0.00     0.048 C 
HETATM   20  C   UNL     1      39.993 -12.974  -2.170  1.00  0.00     0.033 A 
HETATM   21  C   UNL     1      40.719 -12.160  -1.307  1.00  0.00     0.033 A 
HETATM   22  N   UNL     1      41.029 -12.531  -0.045  1.00  0.00    -0.236 NA
HETATM   23  C   UNL     1      41.187 -10.810  -1.758  1.00  0.00     0.070 C 
ENDBRANCH   1  16
TORSDOF 4
ENDMDL
MODEL 3
REMARK VINA RESULT:      -7.5      3.688      7.334
REMARK  4 active torsions:
REMARK  status: ('A' for Active; 'I' for Inactive)
REMARK    1  A    between atoms: C_4  and  N_5 
REMARK       I    between atoms: N_5  and  C_6 
REMARK    2  A    between atoms: C_6  and  C_7 
REMARK    3  A    between atoms: C_7  and  O_8 
REMARK    4  A    between atoms: O_8  and  C_9 
ROOT
HETATM    1  N   UNL     1      42.633 -14.917   2.154  1.00  0.00    -0.309 N 
HETATM    2  C   UNL     1      41.482 -14.176   2.373  1.00  0.00     0.252 C 
HETATM    3  O   UNL     1      40.645 -14.350   3.252  1.00  0.00    -0.270 OA
HETATM    4  H   UNL     1      43.179 -14.674   1.341  1.00  0.00     0.170 HD
ENDROOT
BRANCH   2   5
HETATM    5  C   UNL     1      41.420 -12.960   1.423  1.00  0.00     0.217 C 
HETATM    6  C   UNL     1      41.933 -11.694   2.095  1.00  0.00     0.050 C 
BRANCH   5   7
HETATM    7  O   UNL     1      40.060 -12.741   1.035  1.00  0.00    -0.335 OA
BRANCH   7   8
HETATM    8  C   UNL     1      39.597 -13.274  -0.136  1.00  0.00     0.091 A 
HETATM    9  C   UNL     1      38.925 -12.396  -1.007  1.00  0.00     0.069 A 
HETATM   10 CL   UNL     1      38.672 -10.739  -0.583  1.00  0.00    -0.081 Cl
HETATM   11  C   UNL     1      38.411 -12.845  -2.225  1.00  0.00     0.050 A 
HETATM   12  C   UNL     1      38.573 -14.178  -2.581  1.00  0.00     0.035 A 
HETATM   13 CL   UNL     1      37.927 -14.748  -4.069  1.00  0.00    -0.084 Cl
HETATM   14  C   UNL     1      39.256 -15.056  -1.741  1.00  0.00     0.026 A 
HETATM   15  C   UNL     1      39.780 -14.602  -0.526  1.00  0.00     0.040 A 
ENDBRANCH   7   8
ENDBRANCH   5   7
ENDBRANCH   2   5
BRANCH   1  16
HETATM   16  C   UNL     1      43.078 -16.005   2.910  1.00  0.00     0.130 A 
HETATM   17  C   UNL     1      43.041 -17.255   2.296  1.00  0.00     0.057 A 
HETATM   18  C   UNL     1      43.504 -18.375   2.989  1.00  0.00    -0.057 A 
HETATM   19  C   UNL     1      43.528 -19.730   2.349  1.00  0.00     0.048 C 
HETATM   20  C   UNL     1      43.976 -18.199   4.288  1.00  0.00     0.033 A 
HETATM   21  C   UNL     1      43.969 -16.922   4.839  1.00  0.00     0.033 A 
HETATM   22  N   UNL     1      43.539 -15.836   4.158  1.00  0.00    -0.236 NA
HETATM   23  C   UNL     1      44.456 -16.702   6.239  1.00  0.00     0.070 C 
ENDBRANCH   1  16
TORSDOF 4
ENDMDL
MODEL 4
REMARK VINA RESULT:      -7.4      2.748      4.483
REMARK  4 active torsions:
REMARK  status: ('A' for Active; 'I' for Inactive)
REMARK    1  A    between atoms: C_4  and  N_5 
REMARK       I    between atoms: N_5  and  C_6 
REMARK    2  A    between atoms: C_6  and  C_7 
REMARK    3  A    between atoms: C_7  and  O_8 
REMARK    4  A    between atoms: O_8  and  C_9 
ROOT
HETATM    1  N   UNL     1      41.570 -14.228   5.918  1.00  0.00    -0.309 N 
HETATM    2  C   UNL     1      41.243 -15.517   6.307  1.00  0.00     0.252 C 
HETATM    3  O   UNL     1      40.155 -16.071   6.195  1.00  0.00    -0.270 OA
HETATM    4  H   UNL     1      42.500 -13.909   6.144  1.00  0.00     0.170 HD
ENDROOT
BRANCH   2   5
HETATM    5  C   UNL     1      42.492 -16.276   6.807  1.00  0.00     0.217 C 
HETATM    6  C   UNL     1      43.066 -15.644   8.067  1.00  0.00     0.050 C 
BRANCH   5   7
HETATM    7  O   UNL     1      43.498 -16.238   5.790  1.00  0.00    -0.335 OA
BRANCH   7   8
HETATM    8  C   UNL     1      43.613 -17.282   4.914  1.00  0.00     0.091 A 
HETATM    9  C   UNL     1      43.433 -16.985   3.550  1.00  0.00     0.069 A 
HETATM   10 CL   UNL     1      43.048 -15.382   3.029  1.00  0.00    -0.081 Cl
HETATM   11  C   UNL     1      43.526 -17.983   2.579  1.00  0.00     0.050 A 
HETATM   12  C   UNL     1      43.806 -19.287   2.968  1.00  0.00     0.035 A 
HETATM   13 CL   UNL     1      43.903 -20.530   1.783  1.00  0.00    -0.084 Cl
HETATM   14  C   UNL     1      44.010 -19.595   4.313  1.00  0.00     0.026 A 
HETATM   15  C   UNL     1      43.927 -18.592   5.284  1.00  0.00     0.040 A 
ENDBRANCH   7   8
ENDBRANCH   5   7
ENDBRANCH   2   5
BRANCH   1  16
HETATM   16  C   UNL     1      40.721 -13.304   5.301  1.00  0.00     0.130 A 
HETATM   17  C   UNL     1      40.250 -12.258   6.089  1.00  0.00     0.057 A 
HETATM   18  C   UNL     1      39.426 -11.286   5.520  1.00  0.00    -0.057 A 
HETATM   19  C   UNL     1      38.936 -10.116   6.319  1.00  0.00     0.048 C 
HETATM   20  C   UNL     1      39.090 -11.410   4.173  1.00  0.00     0.033 A 
HETATM   21  C   UNL     1      39.589 -12.490   3.453  1.00  0.00     0.033 A 
HETATM   22  N   UNL     1      40.404 -13.419   4.003  1.00  0.00    -0.236 NA
HETATM   23  C   UNL     1      39.236 -12.661   2.007  1.00  0.00     0.070 C 
ENDBRANCH   1  16
TORSDOF 4
ENDMDL
MODEL 5
REMARK VINA RESULT:      -7.3      1.775      2.361
REMARK  4 active torsions:
REMARK  status: ('A' for Active; 'I' for Inactive)
REMARK    1  A    between atoms: C_4  and  N_5 
REMARK       I    between atoms: N_5  and  C_6 
REMARK    2  A    between atoms: C_6  and  C_7 
REMARK    3  A    between atoms: C_7  and  O_8 
REMARK    4  A    between atoms: O_8  and  C_9 
ROOT
HETATM    1  N   UNL     1      40.474 -13.833   0.972  1.00  0.00    -0.309 N 
HETATM    2  C   UNL     1      40.309 -15.048   1.618  1.00  0.00     0.252 C 
HETATM    3  O   UNL     1      39.845 -16.081   1.147  1.00  0.00    -0.270 OA
HETATM    4  H   UNL     1      40.814 -13.066   1.532  1.00  0.00     0.170 HD
ENDROOT
BRANCH   2   5
HETATM    5  C   UNL     1      40.920 -15.006   3.036  1.00  0.00     0.217 C 
HETATM    6  C   UNL     1      40.696 -13.659   3.707  1.00  0.00     0.050 C 
BRANCH   5   7
HETATM    7  O   UNL     1      42.331 -15.229   2.941  1.00  0.00    -0.335 OA
BRANCH   7   8
HETATM    8  C   UNL     1      42.850 -16.441   3.303  1.00  0.00     0.091 A 
HETATM    9  C   UNL     1      43.364 -16.544   4.609  1.00  0.00     0.069 A 
HETATM   10 CL   UNL     1      43.367 -15.183   5.676  1.00  0.00    -0.081 Cl
HETATM   11  C   UNL     1      43.920 -17.738   5.071  1.00  0.00     0.050 A 
HETATM   12  C   UNL     1      43.959 -18.842   4.227  1.00  0.00     0.035 A 
HETATM   13 CL   UNL     1      44.659 -20.312   4.778  1.00  0.00    -0.084 Cl
HETATM   14  C   UNL     1      43.433 -18.764   2.938  1.00  0.00     0.026 A 
HETATM   15  C   UNL     1      42.867 -17.570   2.480  1.00  0.00     0.040 A 
ENDBRANCH   7   8
ENDBRANCH   5   7
ENDBRANCH   2   5
BRANCH   1  16
HETATM   16  C   UNL     1      40.159 -13.550  -0.359  1.00  0.00     0.130 A 
HETATM   17  C   UNL     1      40.650 -12.356  -0.882  1.00  0.00     0.057 A 
HETATM   18  C   UNL     1      40.396 -12.034  -2.216  1.00  0.00    -0.057 A 
HETATM   19  C   UNL     1      40.945 -10.783  -2.833  1.00  0.00     0.048 C 
HETATM   20  C   UNL     1      39.639 -12.922  -2.977  1.00  0.00     0.033 A 
HETATM   21  C   UNL     1      39.171 -14.089  -2.382  1.00  0.00     0.033 A 
HETATM   22  N   UNL     1      39.436 -14.407  -1.095  1.00  0.00    -0.236 NA
HETATM   23  C   UNL     1      38.343 -15.058  -3.169  1.00  0.00     0.070 C 
ENDBRANCH   1  16
TORSDOF 4
ENDMDL
MODEL 6
REMARK VINA RESULT:      -7.3      2.951      6.943
REMARK  4 active torsions:
REMARK  status: ('A' for Active; 'I' for Inactive)
REMARK    1  A    between atoms: C_4  and  N_5 
REMARK       I    between atoms: N_5  and  C_6 
REMARK    2  A    between atoms: C_6  and  C_7 
REMARK    3  A    between atoms: C_7  and  O_8 
REMARK    4  A    between atoms: O_8  and  C_9 
ROOT
HETATM    1  N   UNL     1      41.795 -15.855   2.045  1.00  0.00    -0.309 N 
HETATM    2  C   UNL     1      40.490 -15.498   2.345  1.00  0.00     0.252 C 
HETATM    3  O   UNL     1      39.798 -15.924   3.263  1.00  0.00    -0.270 OA
HETATM    4  H   UNL     1      42.194 -15.451   1.211  1.00  0.00     0.170 HD
ENDROOT
BRANCH   2   5
HETATM    5  C   UNL     1      40.011 -14.346   1.434  1.00  0.00     0.217 C 
HETATM    6  C   UNL     1      40.122 -14.711  -0.039  1.00  0.00     0.050 C 
BRANCH   5   7
HETATM    7  O   UNL     1      40.825 -13.194   1.672  1.00  0.00    -0.335 OA
BRANCH   7   8
HETATM    8  C   UNL     1      40.697 -12.506   2.847  1.00  0.00     0.091 A 
HETATM    9  C   UNL     1      41.883 -12.236   3.554  1.00  0.00     0.069 A 
HETATM   10 CL   UNL     1      43.414 -12.789   2.972  1.00  0.00    -0.081 Cl
HETATM   11  C   UNL     1      41.855 -11.544   4.766  1.00  0.00     0.050 A 
HETATM   12  C   UNL     1      40.637 -11.111   5.275  1.00  0.00     0.035 A 
HETATM   13 CL   UNL     1      40.588 -10.275   6.776  1.00  0.00    -0.084 Cl
HETATM   14  C   UNL     1      39.454 -11.349   4.575  1.00  0.00     0.026 A 
HETATM   15  C   UNL     1      39.484 -12.034   3.356  1.00  0.00     0.040 A 
ENDBRANCH   7   8
ENDBRANCH   5   7
ENDBRANCH   2   5
BRANCH   1  16
HETATM   16  C   UNL     1      42.590 -16.767   2.745  1.00  0.00     0.130 A 
HETATM   17  C   UNL     1      42.759 -18.025   2.171  1.00  0.00     0.057 A 
HETATM   18  C   UNL     1      43.569 -18.967   2.808  1.00  0.00    -0.057 A 
HETATM   19  C   UNL     1      43.818 -20.315   2.202  1.00  0.00     0.048 C 
HETATM   20  C   UNL     1      44.171 -18.613   4.014  1.00  0.00     0.033 A 
HETATM   21  C   UNL     1      43.945 -17.343   4.532  1.00  0.00     0.033 A 
HETATM   22  N   UNL     1      43.176 -16.426   3.903  1.00  0.00    -0.236 NA
HETATM   23  C   UNL     1      44.566 -16.937   5.834  1.00  0.00     0.070 C 
ENDBRANCH   1  16
TORSDOF 4
ENDMDL
MODEL 7
REMARK VINA RESULT:      -7.2      4.026      6.683
REMARK  4 active torsions:
REMARK  status: ('A' for Active; 'I' for Inactive)
REMARK    1  A    between atoms: C_4  and  N_5 
REMARK       I    between atoms: N_5  and  C_6 
REMARK    2  A    between atoms: C_6  and  C_7 
REMARK    3  A    between atoms: C_7  and  O_8 
REMARK    4  A    between atoms: O_8  and  C_9 
ROOT
HETATM    1  N   UNL     1      42.690 -12.159   6.653  1.00  0.00    -0.309 N 
HETATM    2  C   UNL     1      42.266 -12.321   5.343  1.00  0.00     0.252 C 
HETATM    3  O   UNL     1      42.225 -11.465   4.466  1.00  0.00    -0.270 OA
HETATM    4  H   UNL     1      42.597 -12.959   7.261  1.00  0.00     0.170 HD
ENDROOT
BRANCH   2   5
HETATM    5  C   UNL     1      41.955 -13.804   5.044  1.00  0.00     0.217 C 
HETATM    6  C   UNL     1      41.140 -14.444   6.160  1.00  0.00     0.050 C 
BRANCH   5   7
HETATM    7  O   UNL     1      43.187 -14.523   4.921  1.00  0.00    -0.335 OA
BRANCH   7   8
HETATM    8  C   UNL     1      43.214 -15.704   4.234  1.00  0.00     0.091 A 
HETATM    9  C   UNL     1      43.871 -16.782   4.856  1.00  0.00     0.069 A 
HETATM   10 CL   UNL     1      44.635 -16.592   6.395  1.00  0.00    -0.081 Cl
HETATM   11  C   UNL     1      43.958 -18.028   4.232  1.00  0.00     0.050 A 
HETATM   12  C   UNL     1      43.379 -18.204   2.981  1.00  0.00     0.035 A 
HETATM   13 CL   UNL     1      43.496 -19.728   2.194  1.00  0.00    -0.084 Cl
HETATM   14  C   UNL     1      42.704 -17.154   2.361  1.00  0.00     0.026 A 
HETATM   15  C   UNL     1      42.609 -15.909   2.991  1.00  0.00     0.040 A 
ENDBRANCH   7   8
ENDBRANCH   5   7
ENDBRANCH   2   5
BRANCH   1  16
HETATM   16  C   UNL     1      43.173 -10.982   7.231  1.00  0.00     0.130 A 
HETATM   17  C   UNL     1      44.553 -10.880   7.393  1.00  0.00     0.057 A 
HETATM   18  C   UNL     1      45.097  -9.714   7.934  1.00  0.00    -0.057 A 
HETATM   19  C   UNL     1      46.578  -9.543   8.082  1.00  0.00     0.048 C 
HETATM   20  C   UNL     1      44.227  -8.692   8.310  1.00  0.00     0.033 A 
HETATM   21  C   UNL     1      42.860  -8.871   8.129  1.00  0.00     0.033 A 
HETATM   22  N   UNL     1      42.338  -9.994   7.586  1.00  0.00    -0.236 NA
HETATM   23  C   UNL     1      41.898  -7.797   8.535  1.00  0.00     0.070 C 
ENDBRANCH   1  16
TORSDOF 4
ENDMDL
MODEL 8
REMARK VINA RESULT:      -7.1      3.898      7.698
REMARK  4 active torsions:
REMARK  status: ('A' for Active; 'I' for Inactive)
REMARK    1  A    between atoms: C_4  and  N_5 
REMARK       I    between atoms: N_5  and  C_6 
REMARK    2  A    between atoms: C_6  and  C_7 
REMARK    3  A    between atoms: C_7  and  O_8 
REMARK    4  A    between atoms: O_8  and  C_9 
ROOT
HETATM    1  N   UNL     1      42.073 -15.151   2.296  1.00  0.00    -0.309 N 
HETATM    2  C   UNL     1      40.861 -14.592   2.670  1.00  0.00     0.252 C 
HETATM    3  O   UNL     1      40.157 -14.917   3.619  1.00  0.00    -0.270 OA
HETATM    4  H   UNL     1      42.489 -14.802   1.446  1.00  0.00     0.170 HD
ENDROOT
BRANCH   2   5
HETATM    5  C   UNL     1      40.530 -13.361   1.798  1.00  0.00     0.217 C 
HETATM    6  C   UNL     1      39.184 -12.754   2.169  1.00  0.00     0.050 C 
BRANCH   5   7
HETATM    7  O   UNL     1      40.475 -13.765   0.425  1.00  0.00    -0.335 OA
BRANCH   7   8
HETATM    8  C   UNL     1      40.590 -12.825  -0.561  1.00  0.00     0.091 A 
HETATM    9  C   UNL     1      39.997 -13.133  -1.800  1.00  0.00     0.069 A 
HETATM   10 CL   UNL     1      39.200 -14.646  -2.056  1.00  0.00    -0.081 Cl
HETATM   11  C   UNL     1      40.064 -12.240  -2.870  1.00  0.00     0.050 A 
HETATM   12  C   UNL     1      40.723 -11.028  -2.705  1.00  0.00     0.035 A 
HETATM   13 CL   UNL     1      40.830  -9.928  -4.023  1.00  0.00    -0.084 Cl
HETATM   14  C   UNL     1      41.296 -10.697  -1.478  1.00  0.00     0.026 A 
HETATM   15  C   UNL     1      41.218 -11.588  -0.402  1.00  0.00     0.040 A 
ENDBRANCH   7   8
ENDBRANCH   5   7
ENDBRANCH   2   5
BRANCH   1  16
HETATM   16  C   UNL     1      42.743 -16.194   2.943  1.00  0.00     0.130 A 
HETATM   17  C   UNL     1      42.773 -17.424   2.290  1.00  0.00     0.057 A 
HETATM   18  C   UNL     1      43.456 -18.493   2.871  1.00  0.00    -0.057 A 
HETATM   19  C   UNL     1      43.555 -19.820   2.182  1.00  0.00     0.048 C 
HETATM   20  C   UNL     1      44.074 -18.291   4.104  1.00  0.00     0.033 A 
HETATM   21  C   UNL     1      43.990 -17.038   4.701  1.00  0.00     0.033 A 
HETATM   22  N   UNL     1      43.345 -15.998   4.125  1.00  0.00    -0.236 NA
HETATM   23  C   UNL     1      44.632 -16.791   6.032  1.00  0.00     0.070 C 
ENDBRANCH   1  16
TORSDOF 4
ENDMDL
MODEL 9
REMARK VINA RESULT:      -7.0      4.040      6.752
REMARK  4 active torsions:
REMARK  status: ('A' for Active; 'I' for Inactive)
REMARK    1  A    between atoms: C_4  and  N_5 
REMARK       I    between atoms: N_5  and  C_6 
REMARK    2  A    between atoms: C_6  and  C_7 
REMARK    3  A    between atoms: C_7  and  O_8 
REMARK    4  A    between atoms: O_8  and  C_9 
ROOT
HETATM    1  N   UNL     1      43.615 -12.142   5.800  1.00  0.00    -0.309 N 
HETATM    2  C   UNL     1      42.910 -13.334   5.783  1.00  0.00     0.252 C 
HETATM    3  O   UNL     1      42.063 -13.706   6.588  1.00  0.00    -0.270 OA
HETATM    4  H   UNL     1      44.324 -12.025   5.092  1.00  0.00     0.170 HD
ENDROOT
BRANCH   2   5
HETATM    5  C   UNL     1      43.220 -14.140   4.502  1.00  0.00     0.217 C 
HETATM    6  C   UNL     1      43.048 -13.293   3.249  1.00  0.00     0.050 C 
BRANCH   5   7
HETATM    7  O   UNL     1      42.319 -15.249   4.420  1.00  0.00    -0.335 OA
BRANCH   7   8
HETATM    8  C   UNL     1      42.763 -16.447   3.933  1.00  0.00     0.091 A 
HETATM    9  C   UNL     1      42.168 -16.905   2.743  1.00  0.00     0.069 A 
HETATM   10 CL   UNL     1      40.911 -16.003   1.970  1.00  0.00    -0.081 Cl
HETATM   11  C   UNL     1      42.549 -18.118   2.169  1.00  0.00     0.050 A 
HETATM   12  C   UNL     1      43.536 -18.880   2.782  1.00  0.00     0.035 A 
HETATM   13 CL   UNL     1      44.001 -20.387   2.097  1.00  0.00    -0.084 Cl
HETATM   14  C   UNL     1      44.153 -18.430   3.949  1.00  0.00     0.026 A 
HETATM   15  C   UNL     1      43.777 -17.209   4.518  1.00  0.00     0.040 A 
ENDBRANCH   7   8
ENDBRANCH   5   7
ENDBRANCH   2   5
BRANCH   1  16
HETATM   16  C   UNL     1      43.487 -11.113   6.738  1.00  0.00     0.130 A 
HETATM   17  C   UNL     1      44.326 -11.165   7.848  1.00  0.00     0.057 A 
HETATM   18  C   UNL     1      44.268 -10.147   8.802  1.00  0.00    -0.057 A 
HETATM   19  C   UNL     1      45.185 -10.137   9.986  1.00  0.00     0.048 C 
HETATM   20  C   UNL     1      43.350  -9.116   8.611  1.00  0.00     0.033 A 
HETATM   21  C   UNL     1      42.536  -9.139   7.484  1.00  0.00     0.033 A 
HETATM   22  N   UNL     1      42.610 -10.115   6.552  1.00  0.00    -0.236 NA
HETATM   23  C   UNL     1      41.530  -8.052   7.257  1.00  0.00     0.070 C 
ENDBRANCH   1  16
TORSDOF 4
ENDMDL
MODEL 10
REMARK VINA RESULT:      -7.0      4.943      8.409
REMARK  4 active torsions:
REMARK  status: ('A' for Active; 'I' for Inactive)
REMARK    1  A    between atoms: C_4  and  N_5 
REMARK       I    between atoms: N_5  and  C_6 
REMARK    2  A    between atoms: C_6  and  C_7 
REMARK    3  A    between atoms: C_7  and  O_8 
REMARK    4  A    between atoms: O_8  and  C_9 
ROOT
HETATM    1  N   UNL     1      42.331 -13.454   5.625  1.00  0.00    -0.309 N 
HETATM    2  C   UNL     1      43.207 -12.512   6.139  1.00  0.00     0.252 C 
HETATM    3  O   UNL     1      44.429 -12.594   6.206  1.00  0.00    -0.270 OA
HETATM    4  H   UNL     1      41.347 -13.250   5.708  1.00  0.00     0.170 HD
ENDROOT
BRANCH   2   5
HETATM    5  C   UNL     1      42.459 -11.216   6.525  1.00  0.00     0.217 C 
HETATM    6  C   UNL     1      41.682 -10.643   5.349  1.00  0.00     0.050 C 
BRANCH   5   7
HETATM    7  O   UNL     1      43.413 -10.238   6.951  1.00  0.00    -0.335 OA
BRANCH   7   8
HETATM    8  C   UNL     1      43.371  -9.767   8.234  1.00  0.00     0.091 A 
HETATM    9  C   UNL     1      44.559  -9.867   8.983  1.00  0.00     0.069 A 
HETATM   10 CL   UNL     1      45.978 -10.591   8.311  1.00  0.00    -0.081 Cl
HETATM   11  C   UNL     1      44.616  -9.419  10.303  1.00  0.00     0.050 A 
HETATM   12  C   UNL     1      43.483  -8.860  10.882  1.00  0.00     0.035 A 
HETATM   13 CL   UNL     1      43.535  -8.321  12.514  1.00  0.00    -0.084 Cl
HETATM   14  C   UNL     1      42.305  -8.730  10.147  1.00  0.00     0.026 A 
HETATM   15  C   UNL     1      42.252  -9.171   8.820  1.00  0.00     0.040 A 
ENDBRANCH   7   8
ENDBRANCH   5   7
ENDBRANCH   2   5
BRANCH   1  16
HETATM   16  C   UNL     1      42.673 -14.687   5.061  1.00  0.00     0.130 A 
HETATM   17  C   UNL     1      42.798 -14.732   3.675  1.00  0.00     0.057 A 
HETATM   18  C   UNL     1      43.170 -15.927   3.057  1.00  0.00    -0.057 A 
HETATM   19  C   UNL     1      43.363 -16.008   1.573  1.00  0.00     0.048 C 
HETATM   20  C   UNL     1      43.388 -17.045   3.859  1.00  0.00     0.033 A 
HETATM   21  C   UNL     1      43.231 -16.927   5.236  1.00  0.00     0.033 A 
HETATM   22  N   UNL     1      42.890 -15.762   5.833  1.00  0.00    -0.236 NA
HETATM   23  C   UNL     1      43.445 -18.114   6.125  1.00  0.00     0.070 C 
ENDBRANCH   1  16
TORSDOF 4
ENDMDL
