MODEL 1
REMARK VINA RESULT:      -8.1      0.000      0.000
REMARK  6 active torsions:
REMARK  status: ('A' for Active; 'I' for Inactive)
REMARK    1  A    between atoms: O_2  and  C_3 
REMARK    2  A    between atoms: C_6  and  C_7 
REMARK    3  A    between atoms: C_7  and  C_8 
REMARK    4  A    between atoms: C_8  and  C_9 
REMARK       I    between atoms: C_9  and  N_10 
REMARK    5  A    between atoms: N_10  and  N_11 
REMARK    6  A    between atoms: C_12  and  C_13 
ROOT
HETATM    1  C   UNL     1      44.570 -11.568   7.326  1.00  0.00     0.237 C 
HETATM    2  N   UNL     1      43.683 -12.633   7.388  1.00  0.00    -0.247 N 
HETATM    3  O   UNL     1      45.636 -11.557   6.717  1.00  0.00    -0.272 OA
HETATM    4  H   UNL     1      42.815 -12.553   7.903  1.00  0.00     0.192 HD
ENDROOT
BRANCH   2   5
HETATM    5  N   UNL     1      43.974 -13.794   6.731  1.00  0.00    -0.184 NA
HETATM    6  C   UNL     1      43.050 -14.700   6.746  1.00  0.00     0.152 C 
BRANCH   6   7
HETATM    7  C   UNL     1      43.272 -15.960   6.070  1.00  0.00     0.011 A 
HETATM    8  C   UNL     1      43.250 -16.208   4.659  1.00  0.00     0.004 A 
HETATM    9  C   UNL     1      43.517 -17.566   4.471  1.00  0.00     0.043 A 
HETATM   10  C   UNL     1      43.026 -15.406   3.520  1.00  0.00     0.014 A 
HETATM   11  C   UNL     1      43.573 -18.160   3.205  1.00  0.00     0.030 A 
HETATM   12  N   UNL     1      43.693 -18.122   5.716  1.00  0.00    -0.364 N 
HETATM   13  C   UNL     1      43.347 -17.343   2.094  1.00  0.00     0.002 A 
HETATM   14  C   UNL     1      43.077 -15.986   2.246  1.00  0.00     0.001 A 
HETATM   15  H   UNL     1      43.900 -19.097   5.889  1.00  0.00     0.165 HD
HETATM   16  C   UNL     1      43.545 -17.168   6.684  1.00  0.00     0.102 A 
ENDBRANCH   6   7
ENDBRANCH   2   5
BRANCH   1  17
HETATM   17  C   UNL     1      44.115 -10.374   8.136  1.00  0.00     0.109 C 
BRANCH  17  18
HETATM   18  C   UNL     1      45.028 -10.172   9.340  1.00  0.00     0.048 C 
BRANCH  18  19
HETATM   19  C   UNL     1      44.247  -9.879  10.595  1.00  0.00    -0.058 A 
HETATM   20  C   UNL     1      43.717 -10.915  11.372  1.00  0.00     0.010 A 
HETATM   21  C   UNL     1      42.994 -10.625  12.531  1.00  0.00     0.037 A 
HETATM   22  C   UNL     1      42.786  -9.304  12.933  1.00  0.00     0.068 A 
HETATM   23  C   UNL     1      43.299  -8.267  12.154  1.00  0.00     0.037 A 
HETATM   24  C   UNL     1      44.025  -8.554  10.993  1.00  0.00     0.010 A 
BRANCH  22  25
HETATM   25  O   UNL     1      42.069  -9.162  14.089  1.00  0.00    -0.356 OA
HETATM   26  C   UNL     1      40.665  -8.980  13.952  1.00  0.00     0.210 C 
ENDBRANCH  22  25
ENDBRANCH  18  19
ENDBRANCH  17  18
ENDBRANCH   1  17
TORSDOF 6
ENDMDL
MODEL 2
REMARK VINA RESULT:      -8.0      1.838      2.422
REMARK  6 active torsions:
REMARK  status: ('A' for Active; 'I' for Inactive)
REMARK    1  A    between atoms: O_2  and  C_3 
REMARK    2  A    between atoms: C_6  and  C_7 
REMARK    3  A    between atoms: C_7  and  C_8 
REMARK    4  A    between atoms: C_8  and  C_9 
REMARK       I    between atoms: C_9  and  N_10 
REMARK    5  A    between atoms: N_10  and  N_11 
REMARK    6  A    between atoms: C_12  and  C_13 
ROOT
HETATM    1  C   UNL     1      45.284 -11.214   6.654  1.00  0.00     0.237 C 
HETATM    2  N   UNL     1      44.117 -11.767   7.162  1.00  0.00    -0.247 N 
HETATM    3  O   UNL     1      45.559 -11.089   5.463  1.00  0.00    -0.272 OA
HETATM    4  H   UNL     1      43.963 -11.818   8.162  1.00  0.00     0.192 HD
ENDROOT
BRANCH   2   5
HETATM    5  N   UNL     1      43.159 -12.227   6.306  1.00  0.00    -0.184 NA
HETATM    6  C   UNL     1      43.115 -13.510   6.142  1.00  0.00     0.152 C 
BRANCH   6   7
HETATM    7  C   UNL     1      42.126 -14.085   5.256  1.00  0.00     0.011 A 
HETATM    8  C   UNL     1      42.306 -15.167   4.334  1.00  0.00     0.004 A 
HETATM    9  C   UNL     1      41.083 -15.378   3.695  1.00  0.00     0.043 A 
HETATM   10  C   UNL     1      43.397 -15.988   3.977  1.00  0.00     0.014 A 
HETATM   11  C   UNL     1      40.894 -16.368   2.723  1.00  0.00     0.030 A 
HETATM   12  N   UNL     1      40.193 -14.462   4.207  1.00  0.00    -0.364 N 
HETATM   13  C   UNL     1      41.992 -17.166   2.389  1.00  0.00     0.002 A 
HETATM   14  C   UNL     1      43.226 -16.981   3.005  1.00  0.00     0.001 A 
HETATM   15  H   UNL     1      39.225 -14.381   3.928  1.00  0.00     0.165 HD
HETATM   16  C   UNL     1      40.810 -13.679   5.142  1.00  0.00     0.102 A 
ENDBRANCH   6   7
ENDBRANCH   2   5
BRANCH   1  17
HETATM   17  C   UNL     1      46.253 -10.788   7.734  1.00  0.00     0.109 C 
BRANCH  17  18
HETATM   18  C   UNL     1      46.166  -9.282   7.958  1.00  0.00     0.048 C 
BRANCH  18  19
HETATM   19  C   UNL     1      45.171  -8.932   9.035  1.00  0.00    -0.058 A 
HETATM   20  C   UNL     1      45.135  -9.641  10.240  1.00  0.00     0.010 A 
HETATM   21  C   UNL     1      44.206  -9.304  11.227  1.00  0.00     0.037 A 
HETATM   22  C   UNL     1      43.299  -8.261  11.029  1.00  0.00     0.068 A 
HETATM   23  C   UNL     1      43.320  -7.561   9.823  1.00  0.00     0.037 A 
HETATM   24  C   UNL     1      44.251  -7.895   8.833  1.00  0.00     0.010 A 
BRANCH  22  25
HETATM   25  O   UNL     1      42.450  -8.032  12.076  1.00  0.00    -0.356 OA
HETATM   26  C   UNL     1      42.357  -9.055  13.060  1.00  0.00     0.210 C 
ENDBRANCH  22  25
ENDBRANCH  18  19
ENDBRANCH  17  18
ENDBRANCH   1  17
TORSDOF 6
ENDMDL
MODEL 3
REMARK VINA RESULT:      -7.9      6.511      9.570
REMARK  6 active torsions:
REMARK  status: ('A' for Active; 'I' for Inactive)
REMARK    1  A    between atoms: O_2  and  C_3 
REMARK    2  A    between atoms: C_6  and  C_7 
REMARK    3  A    between atoms: C_7  and  C_8 
REMARK    4  A    between atoms: C_8  and  C_9 
REMARK       I    between atoms: C_9  and  N_10 
REMARK    5  A    between atoms: N_10  and  N_11 
REMARK    6  A    between atoms: C_12  and  C_13 
ROOT
HETATM    1  C   UNL     1      40.590 -12.979   3.337  1.00  0.00     0.237 C 
HETATM    2  N   UNL     1      41.715 -13.684   2.933  1.00  0.00    -0.247 N 
HETATM    3  O   UNL     1      39.967 -13.162   4.379  1.00  0.00    -0.272 OA
HETATM    4  H   UNL     1      42.180 -13.459   2.061  1.00  0.00     0.192 HD
ENDROOT
BRANCH   2   5
HETATM    5  N   UNL     1      42.213 -14.677   3.726  1.00  0.00    -0.184 NA
HETATM    6  C   UNL     1      42.700 -15.704   3.109  1.00  0.00     0.152 C 
BRANCH   6   7
HETATM    7  C   UNL     1      43.254 -16.802   3.872  1.00  0.00     0.011 A 
HETATM    8  C   UNL     1      43.394 -18.167   3.459  1.00  0.00     0.004 A 
HETATM    9  C   UNL     1      43.977 -18.865   4.519  1.00  0.00     0.043 A 
HETATM   10  C   UNL     1      43.077 -18.879   2.283  1.00  0.00     0.014 A 
HETATM   11  C   UNL     1      44.261 -20.235   4.461  1.00  0.00     0.030 A 
HETATM   12  N   UNL     1      44.184 -17.962   5.536  1.00  0.00    -0.364 N 
HETATM   13  C   UNL     1      43.937 -20.915   3.284  1.00  0.00     0.002 A 
HETATM   14  C   UNL     1      43.354 -20.251   2.210  1.00  0.00     0.001 A 
HETATM   15  H   UNL     1      44.594 -18.187   6.432  1.00  0.00     0.165 HD
HETATM   16  C   UNL     1      43.750 -16.722   5.160  1.00  0.00     0.102 A 
ENDBRANCH   6   7
ENDBRANCH   2   5
BRANCH   1  17
HETATM   17  C   UNL     1      40.151 -11.941   2.329  1.00  0.00     0.109 C 
BRANCH  17  18
HETATM   18  C   UNL     1      41.194 -11.802   1.225  1.00  0.00     0.048 C 
BRANCH  18  19
HETATM   19  C   UNL     1      40.696 -12.347  -0.089  1.00  0.00    -0.058 A 
HETATM   20  C   UNL     1      39.789 -13.410  -0.131  1.00  0.00     0.010 A 
HETATM   21  C   UNL     1      39.339 -13.903  -1.358  1.00  0.00     0.037 A 
HETATM   22  C   UNL     1      39.786 -13.349  -2.559  1.00  0.00     0.068 A 
HETATM   23  C   UNL     1      40.703 -12.299  -2.523  1.00  0.00     0.037 A 
HETATM   24  C   UNL     1      41.154 -11.801  -1.296  1.00  0.00     0.010 A 
BRANCH  22  25
HETATM   25  O   UNL     1      39.262 -13.921  -3.685  1.00  0.00    -0.356 OA
HETATM   26  C   UNL     1      38.161 -14.802  -3.501  1.00  0.00     0.210 C 
ENDBRANCH  22  25
ENDBRANCH  18  19
ENDBRANCH  17  18
ENDBRANCH   1  17
TORSDOF 6
ENDMDL
MODEL 4
REMARK VINA RESULT:      -7.8      2.658      4.247
REMARK  6 active torsions:
REMARK  status: ('A' for Active; 'I' for Inactive)
REMARK    1  A    between atoms: O_2  and  C_3 
REMARK    2  A    between atoms: C_6  and  C_7 
REMARK    3  A    between atoms: C_7  and  C_8 
REMARK    4  A    between atoms: C_8  and  C_9 
REMARK       I    between atoms: C_9  and  N_10 
REMARK    5  A    between atoms: N_10  and  N_11 
REMARK    6  A    between atoms: C_12  and  C_13 
ROOT
HETATM    1  C   UNL     1      41.316 -13.074   5.015  1.00  0.00     0.237 C 
HETATM    2  N   UNL     1      42.039 -13.945   4.213  1.00  0.00    -0.247 N 
HETATM    3  O   UNL     1      40.730 -13.373   6.052  1.00  0.00    -0.272 OA
HETATM    4  H   UNL     1      42.506 -13.612   3.378  1.00  0.00     0.192 HD
ENDROOT
BRANCH   2   5
HETATM    5  N   UNL     1      42.139 -15.261   4.562  1.00  0.00    -0.184 NA
HETATM    6  C   UNL     1      43.322 -15.779   4.484  1.00  0.00     0.152 C 
BRANCH   6   7
HETATM    7  C   UNL     1      43.521 -17.168   4.840  1.00  0.00     0.011 A 
HETATM    8  C   UNL     1      43.578 -18.294   3.957  1.00  0.00     0.004 A 
HETATM    9  C   UNL     1      43.785 -19.430   4.743  1.00  0.00     0.043 A 
HETATM   10  C   UNL     1      43.470 -18.459   2.560  1.00  0.00     0.014 A 
HETATM   11  C   UNL     1      43.892 -20.717   4.204  1.00  0.00     0.030 A 
HETATM   12  N   UNL     1      43.852 -19.012   6.052  1.00  0.00    -0.364 N 
HETATM   13  C   UNL     1      43.781 -20.851   2.818  1.00  0.00     0.002 A 
HETATM   14  C   UNL     1      43.573 -19.741   2.005  1.00  0.00     0.001 A 
HETATM   15  H   UNL     1      43.995 -19.621   6.845  1.00  0.00     0.165 HD
HETATM   16  C   UNL     1      43.691 -17.656   6.122  1.00  0.00     0.102 A 
ENDBRANCH   6   7
ENDBRANCH   2   5
BRANCH   1  17
HETATM   17  C   UNL     1      41.275 -11.665   4.466  1.00  0.00     0.109 C 
BRANCH  17  18
HETATM   18  C   UNL     1      42.689 -11.118   4.307  1.00  0.00     0.048 C 
BRANCH  18  19
HETATM   19  C   UNL     1      43.405 -11.020   5.630  1.00  0.00    -0.058 A 
HETATM   20  C   UNL     1      44.670 -11.591   5.808  1.00  0.00     0.010 A 
HETATM   21  C   UNL     1      45.318 -11.493   7.041  1.00  0.00     0.037 A 
HETATM   22  C   UNL     1      44.720 -10.828   8.114  1.00  0.00     0.068 A 
HETATM   23  C   UNL     1      43.452 -10.271   7.946  1.00  0.00     0.037 A 
HETATM   24  C   UNL     1      42.800 -10.367   6.711  1.00  0.00     0.010 A 
BRANCH  22  25
HETATM   25  O   UNL     1      45.465 -10.799   9.259  1.00  0.00    -0.356 OA
HETATM   26  C   UNL     1      45.187  -9.748  10.177  1.00  0.00     0.210 C 
ENDBRANCH  22  25
ENDBRANCH  18  19
ENDBRANCH  17  18
ENDBRANCH   1  17
TORSDOF 6
ENDMDL
MODEL 5
REMARK VINA RESULT:      -7.8      3.399      9.485
REMARK  6 active torsions:
REMARK  status: ('A' for Active; 'I' for Inactive)
REMARK    1  A    between atoms: O_2  and  C_3 
REMARK    2  A    between atoms: C_6  and  C_7 
REMARK    3  A    between atoms: C_7  and  C_8 
REMARK    4  A    between atoms: C_8  and  C_9 
REMARK       I    between atoms: C_9  and  N_10 
REMARK    5  A    between atoms: N_10  and  N_11 
REMARK    6  A    between atoms: C_12  and  C_13 
ROOT
HETATM    1  C   UNL     1      42.329 -13.692   3.517  1.00  0.00     0.237 C 
HETATM    2  N   UNL     1      42.398 -13.460   4.884  1.00  0.00    -0.247 N 
HETATM    3  O   UNL     1      42.916 -13.049   2.651  1.00  0.00    -0.272 OA
HETATM    4  H   UNL     1      41.892 -14.050   5.534  1.00  0.00     0.192 HD
ENDROOT
BRANCH   2   5
HETATM    5  N   UNL     1      43.170 -12.440   5.359  1.00  0.00    -0.184 NA
HETATM    6  C   UNL     1      43.948 -12.733   6.350  1.00  0.00     0.152 C 
BRANCH   6   7
HETATM    7  C   UNL     1      44.806 -11.713   6.914  1.00  0.00     0.011 A 
HETATM    8  C   UNL     1      44.613 -10.991   8.137  1.00  0.00     0.004 A 
HETATM    9  C   UNL     1      45.690 -10.112   8.275  1.00  0.00     0.043 A 
HETATM   10  C   UNL     1      43.623 -10.999   9.142  1.00  0.00     0.014 A 
HETATM   11  C   UNL     1      45.827  -9.245   9.366  1.00  0.00     0.030 A 
HETATM   12  N   UNL     1      46.504 -10.290   7.181  1.00  0.00    -0.364 N 
HETATM   13  C   UNL     1      44.831  -9.273  10.346  1.00  0.00     0.002 A 
HETATM   14  C   UNL     1      43.744 -10.136  10.239  1.00  0.00     0.001 A 
HETATM   15  H   UNL     1      47.363  -9.785   7.013  1.00  0.00     0.165 HD
HETATM   16  C   UNL     1      45.981 -11.247   6.356  1.00  0.00     0.102 A 
ENDBRANCH   6   7
ENDBRANCH   2   5
BRANCH   1  17
HETATM   17  C   UNL     1      41.404 -14.833   3.159  1.00  0.00     0.109 C 
BRANCH  17  18
HETATM   18  C   UNL     1      42.082 -15.773   2.168  1.00  0.00     0.048 C 
BRANCH  18  19
HETATM   19  C   UNL     1      42.773 -16.918   2.863  1.00  0.00    -0.058 A 
HETATM   20  C   UNL     1      43.187 -18.048   2.151  1.00  0.00     0.010 A 
HETATM   21  C   UNL     1      43.824 -19.101   2.812  1.00  0.00     0.037 A 
HETATM   22  C   UNL     1      44.059 -19.045   4.187  1.00  0.00     0.068 A 
HETATM   23  C   UNL     1      43.634 -17.927   4.904  1.00  0.00     0.037 A 
HETATM   24  C   UNL     1      42.996 -16.870   4.245  1.00  0.00     0.010 A 
BRANCH  22  25
HETATM   25  O   UNL     1      44.697 -20.138   4.705  1.00  0.00    -0.356 OA
HETATM   26  C   UNL     1      43.929 -20.987   5.549  1.00  0.00     0.210 C 
ENDBRANCH  22  25
ENDBRANCH  18  19
ENDBRANCH  17  18
ENDBRANCH   1  17
TORSDOF 6
ENDMDL
MODEL 6
REMARK VINA RESULT:      -7.6      6.000      9.543
REMARK  6 active torsions:
REMARK  status: ('A' for Active; 'I' for Inactive)
REMARK    1  A    between atoms: O_2  and  C_3 
REMARK    2  A    between atoms: C_6  and  C_7 
REMARK    3  A    between atoms: C_7  and  C_8 
REMARK    4  A    between atoms: C_8  and  C_9 
REMARK       I    between atoms: C_9  and  N_10 
REMARK    5  A    between atoms: N_10  and  N_11 
REMARK    6  A    between atoms: C_12  and  C_13 
ROOT
HETATM    1  C   UNL     1      41.362 -14.041   4.513  1.00  0.00     0.237 C 
HETATM    2  N   UNL     1      40.232 -14.504   3.855  1.00  0.00    -0.247 N 
HETATM    3  O   UNL     1      41.945 -12.985   4.280  1.00  0.00    -0.272 OA
HETATM    4  H   UNL     1      39.803 -15.382   4.121  1.00  0.00     0.192 HD
ENDROOT
BRANCH   2   5
HETATM    5  N   UNL     1      39.680 -13.759   2.853  1.00  0.00    -0.184 NA
HETATM    6  C   UNL     1      40.212 -13.902   1.682  1.00  0.00     0.152 C 
BRANCH   6   7
HETATM    7  C   UNL     1      39.686 -13.154   0.560  1.00  0.00     0.011 A 
HETATM    8  C   UNL     1      39.310 -13.661  -0.726  1.00  0.00     0.004 A 
HETATM    9  C   UNL     1      38.858 -12.579  -1.484  1.00  0.00     0.043 A 
HETATM   10  C   UNL     1      39.313 -14.941  -1.321  1.00  0.00     0.014 A 
HETATM   11  C   UNL     1      38.408 -12.712  -2.803  1.00  0.00     0.030 A 
HETATM   12  N   UNL     1      38.955 -11.458  -0.693  1.00  0.00    -0.364 N 
HETATM   13  C   UNL     1      38.422 -13.990  -3.368  1.00  0.00     0.002 A 
HETATM   14  C   UNL     1      38.867 -15.090  -2.641  1.00  0.00     0.001 A 
HETATM   15  H   UNL     1      38.697 -10.525  -0.982  1.00  0.00     0.165 HD
HETATM   16  C   UNL     1      39.454 -11.792   0.535  1.00  0.00     0.102 A 
ENDBRANCH   6   7
ENDBRANCH   2   5
BRANCH   1  17
HETATM   17  C   UNL     1      41.864 -15.001   5.568  1.00  0.00     0.109 C 
BRANCH  17  18
HETATM   18  C   UNL     1      43.335 -15.326   5.331  1.00  0.00     0.048 C 
BRANCH  18  19
HETATM   19  C   UNL     1      43.516 -16.692   4.721  1.00  0.00    -0.058 A 
HETATM   20  C   UNL     1      43.224 -16.923   3.373  1.00  0.00     0.010 A 
HETATM   21  C   UNL     1      43.397 -18.196   2.824  1.00  0.00     0.037 A 
HETATM   22  C   UNL     1      43.860 -19.256   3.606  1.00  0.00     0.068 A 
HETATM   23  C   UNL     1      44.138 -19.034   4.955  1.00  0.00     0.037 A 
HETATM   24  C   UNL     1      43.967 -17.760   5.507  1.00  0.00     0.010 A 
BRANCH  22  25
HETATM   25  O   UNL     1      43.990 -20.444   2.943  1.00  0.00    -0.356 OA
HETATM   26  C   UNL     1      43.515 -20.485   1.603  1.00  0.00     0.210 C 
ENDBRANCH  22  25
ENDBRANCH  18  19
ENDBRANCH  17  18
ENDBRANCH   1  17
TORSDOF 6
ENDMDL
MODEL 7
REMARK VINA RESULT:      -7.4      1.574      2.087
REMARK  6 active torsions:
REMARK  status: ('A' for Active; 'I' for Inactive)
REMARK    1  A    between atoms: O_2  and  C_3 
REMARK    2  A    between atoms: C_6  and  C_7 
REMARK    3  A    between atoms: C_7  and  C_8 
REMARK    4  A    between atoms: C_8  and  C_9 
REMARK       I    between atoms: C_9  and  N_10 
REMARK    5  A    between atoms: N_10  and  N_11 
REMARK    6  A    between atoms: C_12  and  C_13 
ROOT
HETATM    1  C   UNL     1      43.608 -11.030   7.797  1.00  0.00     0.237 C 
HETATM    2  N   UNL     1      43.917 -12.350   7.500  1.00  0.00    -0.247 N 
HETATM    3  O   UNL     1      43.037 -10.242   7.049  1.00  0.00    -0.272 OA
HETATM    4  H   UNL     1      44.378 -12.940   8.183  1.00  0.00     0.192 HD
ENDROOT
BRANCH   2   5
HETATM    5  N   UNL     1      43.577 -12.866   6.283  1.00  0.00    -0.184 NA
HETATM    6  C   UNL     1      43.403 -14.148   6.239  1.00  0.00     0.152 C 
BRANCH   6   7
HETATM    7  C   UNL     1      43.037 -14.779   4.990  1.00  0.00     0.011 A 
HETATM    8  C   UNL     1      43.392 -16.093   4.541  1.00  0.00     0.004 A 
HETATM    9  C   UNL     1      42.817 -16.271   3.280  1.00  0.00     0.043 A 
HETATM   10  C   UNL     1      44.152 -17.150   5.085  1.00  0.00     0.014 A 
HETATM   11  C   UNL     1      42.961 -17.451   2.540  1.00  0.00     0.030 A 
HETATM   12  N   UNL     1      42.140 -15.114   2.974  1.00  0.00    -0.364 N 
HETATM   13  C   UNL     1      43.719 -18.481   3.103  1.00  0.00     0.002 A 
HETATM   14  C   UNL     1      44.307 -18.336   4.356  1.00  0.00     0.001 A 
HETATM   15  H   UNL     1      41.625 -14.956   2.119  1.00  0.00     0.165 HD
HETATM   16  C   UNL     1      42.268 -14.210   3.992  1.00  0.00     0.102 A 
ENDBRANCH   6   7
ENDBRANCH   2   5
BRANCH   1  17
HETATM   17  C   UNL     1      44.084 -10.609   9.170  1.00  0.00     0.109 C 
BRANCH  17  18
HETATM   18  C   UNL     1      43.604  -9.196   9.485  1.00  0.00     0.048 C 
BRANCH  18  19
HETATM   19  C   UNL     1      42.923  -9.122  10.827  1.00  0.00    -0.058 A 
HETATM   20  C   UNL     1      41.604  -9.558  10.990  1.00  0.00     0.010 A 
HETATM   21  C   UNL     1      40.987  -9.480  12.241  1.00  0.00     0.037 A 
HETATM   22  C   UNL     1      41.670  -8.967  13.345  1.00  0.00     0.068 A 
HETATM   23  C   UNL     1      42.980  -8.516  13.184  1.00  0.00     0.037 A 
HETATM   24  C   UNL     1      43.601  -8.594  11.933  1.00  0.00     0.010 A 
BRANCH  22  25
HETATM   25  O   UNL     1      40.953  -8.954  14.509  1.00  0.00    -0.356 OA
HETATM   26  C   UNL     1      41.421  -8.093  15.539  1.00  0.00     0.210 C 
ENDBRANCH  22  25
ENDBRANCH  18  19
ENDBRANCH  17  18
ENDBRANCH   1  17
TORSDOF 6
ENDMDL
MODEL 8
REMARK VINA RESULT:      -7.2      6.086      9.180
REMARK  6 active torsions:
REMARK  status: ('A' for Active; 'I' for Inactive)
REMARK    1  A    between atoms: O_2  and  C_3 
REMARK    2  A    between atoms: C_6  and  C_7 
REMARK    3  A    between atoms: C_7  and  C_8 
REMARK    4  A    between atoms: C_8  and  C_9 
REMARK       I    between atoms: C_9  and  N_10 
REMARK    5  A    between atoms: N_10  and  N_11 
REMARK    6  A    between atoms: C_12  and  C_13 
ROOT
HETATM    1  C   UNL     1      40.997 -14.109   3.933  1.00  0.00     0.237 C 
HETATM    2  N   UNL     1      39.954 -14.624   3.177  1.00  0.00    -0.247 N 
HETATM    3  O   UNL     1      41.752 -13.203   3.589  1.00  0.00    -0.272 OA
HETATM    4  H   UNL     1      39.367 -15.365   3.543  1.00  0.00     0.192 HD
ENDROOT
BRANCH   2   5
HETATM    5  N   UNL     1      39.702 -14.116   1.936  1.00  0.00    -0.184 NA
HETATM    6  C   UNL     1      40.170 -14.795   0.939  1.00  0.00     0.152 C 
BRANCH   6   7
HETATM    7  C   UNL     1      39.945 -14.331  -0.413  1.00  0.00     0.011 A 
HETATM    8  C   UNL     1      40.332 -13.073  -0.978  1.00  0.00     0.004 A 
HETATM    9  C   UNL     1      39.909 -13.066  -2.308  1.00  0.00     0.043 A 
HETATM   10  C   UNL     1      41.002 -11.933  -0.483  1.00  0.00     0.014 A 
HETATM   11  C   UNL     1      40.122 -11.982  -3.168  1.00  0.00     0.030 A 
HETATM   12  N   UNL     1      39.289 -14.271  -2.545  1.00  0.00    -0.364 N 
HETATM   13  C   UNL     1      40.788 -10.866  -2.651  1.00  0.00     0.002 A 
HETATM   14  C   UNL     1      41.222 -10.839  -1.330  1.00  0.00     0.001 A 
HETATM   15  H   UNL     1      38.881 -14.546  -3.428  1.00  0.00     0.165 HD
HETATM   16  C   UNL     1      39.303 -15.037  -1.413  1.00  0.00     0.102 A 
ENDBRANCH   6   7
ENDBRANCH   2   5
BRANCH   1  17
HETATM   17  C   UNL     1      41.161 -14.807   5.264  1.00  0.00     0.109 C 
BRANCH  17  18
HETATM   18  C   UNL     1      42.641 -14.979   5.592  1.00  0.00     0.048 C 
BRANCH  18  19
HETATM   19  C   UNL     1      43.084 -16.412   5.449  1.00  0.00    -0.058 A 
HETATM   20  C   UNL     1      43.536 -16.906   4.221  1.00  0.00     0.010 A 
HETATM   21  C   UNL     1      43.942 -18.238   4.105  1.00  0.00     0.037 A 
HETATM   22  C   UNL     1      43.903 -19.096   5.206  1.00  0.00     0.068 A 
HETATM   23  C   UNL     1      43.438 -18.612   6.429  1.00  0.00     0.037 A 
HETATM   24  C   UNL     1      43.032 -17.279   6.548  1.00  0.00     0.010 A 
BRANCH  22  25
HETATM   25  O   UNL     1      44.334 -20.369   4.957  1.00  0.00    -0.356 OA
HETATM   26  C   UNL     1      43.927 -20.953   3.725  1.00  0.00     0.210 C 
ENDBRANCH  22  25
ENDBRANCH  18  19
ENDBRANCH  17  18
ENDBRANCH   1  17
TORSDOF 6
ENDMDL
MODEL 9
REMARK VINA RESULT:      -7.1     18.250     21.902
REMARK  6 active torsions:
REMARK  status: ('A' for Active; 'I' for Inactive)
REMARK    1  A    between atoms: O_2  and  C_3 
REMARK    2  A    between atoms: C_6  and  C_7 
REMARK    3  A    between atoms: C_7  and  C_8 
REMARK    4  A    between atoms: C_8  and  C_9 
REMARK       I    between atoms: C_9  and  N_10 
REMARK    5  A    between atoms: N_10  and  N_11 
REMARK    6  A    between atoms: C_12  and  C_13 
ROOT
HETATM    1  C   UNL     1      45.852 -28.242  -2.171  1.00  0.00     0.237 C 
HETATM    2  N   UNL     1      47.206 -28.382  -2.441  1.00  0.00    -0.247 N 
HETATM    3  O   UNL     1      45.336 -28.280  -1.057  1.00  0.00    -0.272 OA
HETATM    4  H   UNL     1      47.552 -28.323  -3.391  1.00  0.00     0.192 HD
ENDROOT
BRANCH   2   5
HETATM    5  N   UNL     1      48.084 -28.580  -1.414  1.00  0.00    -0.184 NA
HETATM    6  C   UNL     1      48.440 -29.805  -1.202  1.00  0.00     0.152 C 
BRANCH   6   7
HETATM    7  C   UNL     1      49.371 -30.106  -0.136  1.00  0.00     0.011 A 
HETATM    8  C   UNL     1      49.213 -29.835   1.262  1.00  0.00     0.004 A 
HETATM    9  C   UNL     1      50.360 -30.299   1.908  1.00  0.00     0.043 A 
HETATM   10  C   UNL     1      48.202 -29.235   2.042  1.00  0.00     0.014 A 
HETATM   11  C   UNL     1      50.547 -30.196   3.292  1.00  0.00     0.030 A 
HETATM   12  N   UNL     1      51.184 -30.831   0.944  1.00  0.00    -0.364 N 
HETATM   13  C   UNL     1      49.530 -29.597   4.041  1.00  0.00     0.002 A 
HETATM   14  C   UNL     1      48.374 -29.123   3.428  1.00  0.00     0.001 A 
HETATM   15  H   UNL     1      52.090 -31.244   1.122  1.00  0.00     0.165 HD
HETATM   16  C   UNL     1      50.601 -30.718  -0.287  1.00  0.00     0.102 A 
ENDBRANCH   6   7
ENDBRANCH   2   5
BRANCH   1  17
HETATM   17  C   UNL     1      45.017 -28.066  -3.419  1.00  0.00     0.109 C 
BRANCH  17  18
HETATM   18  C   UNL     1      44.084 -29.258  -3.605  1.00  0.00     0.048 C 
BRANCH  18  19
HETATM   19  C   UNL     1      44.547 -30.166  -4.715  1.00  0.00    -0.058 A 
HETATM   20  C   UNL     1      43.776 -30.345  -5.867  1.00  0.00     0.010 A 
HETATM   21  C   UNL     1      44.219 -31.191  -6.886  1.00  0.00     0.037 A 
HETATM   22  C   UNL     1      45.433 -31.872  -6.773  1.00  0.00     0.068 A 
HETATM   23  C   UNL     1      46.199 -31.708  -5.619  1.00  0.00     0.037 A 
HETATM   24  C   UNL     1      45.758 -30.860  -4.598  1.00  0.00     0.010 A 
BRANCH  22  25
HETATM   25  O   UNL     1      45.751 -32.660  -7.844  1.00  0.00    -0.356 OA
HETATM   26  C   UNL     1      45.028 -32.428  -9.047  1.00  0.00     0.210 C 
ENDBRANCH  22  25
ENDBRANCH  18  19
ENDBRANCH  17  18
ENDBRANCH   1  17
TORSDOF 6
ENDMDL
MODEL 10
REMARK VINA RESULT:      -7.0      6.901     10.139
REMARK  6 active torsions:
REMARK  status: ('A' for Active; 'I' for Inactive)
REMARK    1  A    between atoms: O_2  and  C_3 
REMARK    2  A    between atoms: C_6  and  C_7 
REMARK    3  A    between atoms: C_7  and  C_8 
REMARK    4  A    between atoms: C_8  and  C_9 
REMARK       I    between atoms: C_9  and  N_10 
REMARK    5  A    between atoms: N_10  and  N_11 
REMARK    6  A    between atoms: C_12  and  C_13 
ROOT
HETATM    1  C   UNL     1      41.767 -14.179   1.408  1.00  0.00     0.237 C 
HETATM    2  N   UNL     1      41.349 -14.517   0.128  1.00  0.00    -0.247 N 
HETATM    3  O   UNL     1      41.369 -13.218   2.061  1.00  0.00    -0.272 OA
HETATM    4  H   UNL     1      41.719 -15.338  -0.336  1.00  0.00     0.192 HD
ENDROOT
BRANCH   2   5
HETATM    5  N   UNL     1      40.417 -13.746  -0.504  1.00  0.00    -0.184 NA
HETATM    6  C   UNL     1      39.558 -14.381  -1.235  1.00  0.00     0.152 C 
BRANCH   6   7
HETATM    7  C   UNL     1      38.531 -13.644  -1.938  1.00  0.00     0.011 A 
HETATM    8  C   UNL     1      37.978 -12.370  -1.586  1.00  0.00     0.004 A 
HETATM    9  C   UNL     1      37.019 -12.052  -2.551  1.00  0.00     0.043 A 
HETATM   10  C   UNL     1      38.197 -11.455  -0.534  1.00  0.00     0.014 A 
HETATM   11  C   UNL     1      36.274 -10.867  -2.519  1.00  0.00     0.030 A 
HETATM   12  N   UNL     1      36.990 -13.089  -3.454  1.00  0.00    -0.364 N 
HETATM   13  C   UNL     1      36.512  -9.979  -1.466  1.00  0.00     0.002 A 
HETATM   14  C   UNL     1      37.458 -10.266  -0.487  1.00  0.00     0.001 A 
HETATM   15  H   UNL     1      36.387 -13.132  -4.264  1.00  0.00     0.165 HD
HETATM   16  C   UNL     1      37.892 -14.051  -3.094  1.00  0.00     0.102 A 
ENDBRANCH   6   7
ENDBRANCH   2   5
BRANCH   1  17
HETATM   17  C   UNL     1      42.827 -15.113   1.947  1.00  0.00     0.109 C 
BRANCH  17  18
HETATM   18  C   UNL     1      43.004 -14.901   3.447  1.00  0.00     0.048 C 
BRANCH  18  19
HETATM   19  C   UNL     1      43.203 -16.204   4.178  1.00  0.00    -0.058 A 
HETATM   20  C   UNL     1      43.569 -17.366   3.492  1.00  0.00     0.010 A 
HETATM   21  C   UNL     1      43.747 -18.566   4.186  1.00  0.00     0.037 A 
HETATM   22  C   UNL     1      43.562 -18.627   5.568  1.00  0.00     0.068 A 
HETATM   23  C   UNL     1      43.181 -17.474   6.255  1.00  0.00     0.037 A 
HETATM   24  C   UNL     1      43.003 -16.271   5.563  1.00  0.00     0.010 A 
BRANCH  22  25
HETATM   25  O   UNL     1      43.776 -19.859   6.122  1.00  0.00    -0.356 OA
HETATM   26  C   UNL     1      44.303 -20.863   5.264  1.00  0.00     0.210 C 
ENDBRANCH  22  25
ENDBRANCH  18  19
ENDBRANCH  17  18
ENDBRANCH   1  17
TORSDOF 6
ENDMDL
