MODEL 1
REMARK VINA RESULT:      -8.4      0.000      0.000
REMARK  8 active torsions:
REMARK  status: ('A' for Active; 'I' for Inactive)
REMARK    1  A    between atoms: C_2  and  C_3 
REMARK    2  A    between atoms: C_3  and  O_4 
REMARK    3  A    between atoms: O_4  and  C_5 
REMARK    4  A    between atoms: C_6  and  O_7 
REMARK    5  A    between atoms: C_11  and  C_12 
REMARK    6  A    between atoms: C_12  and  N_13 
REMARK    7  A    between atoms: N_13  and  C_14 
REMARK    8  A    between atoms: C_21  and  C_22 
REMARK       I    between atoms: C_22  and  N_23 
ROOT
HETATM    1  N   UNL     1      41.937 -14.027   0.967  1.00  0.00    -0.289 NA
HETATM    2  H   UNL     1      42.312 -13.417   1.687  1.00  0.00     0.128 HD
ENDROOT
BRANCH   1   3
HETATM    3  C   UNL     1      41.971 -15.430   1.364  1.00  0.00     0.131 C 
BRANCH   3   4
HETATM    4  C   UNL     1      42.454 -15.526   2.793  1.00  0.00    -0.042 A 
HETATM    5  C   UNL     1      42.560 -14.384   3.595  1.00  0.00     0.011 A 
HETATM    6  C   UNL     1      43.006 -14.483   4.918  1.00  0.00     0.040 A 
HETATM    7  C   UNL     1      43.362 -15.725   5.454  1.00  0.00     0.101 A 
HETATM    8  C   UNL     1      43.298 -16.868   4.639  1.00  0.00     0.102 A 
HETATM    9  C   UNL     1      42.833 -16.767   3.324  1.00  0.00     0.048 A 
BRANCH   7  10
HETATM   10  O   UNL     1      43.810 -15.919   6.736  1.00  0.00    -0.353 OA
HETATM   11  C   UNL     1      42.900 -15.641   7.791  1.00  0.00     0.210 C 
ENDBRANCH   7  10
BRANCH   8  12
HETATM   12  O   UNL     1      43.619 -18.072   5.215  1.00  0.00    -0.344 OA
BRANCH  12  13
HETATM   13  C   UNL     1      44.584 -18.862   4.517  1.00  0.00     0.209 C 
BRANCH  13  14
HETATM   14  C   UNL     1      44.012 -20.222   4.189  1.00  0.00    -0.069 C 
HETATM   15  C   UNL     1      43.653 -20.462   2.749  1.00  0.00     0.044 C 
HETATM   16  C   UNL     1      43.814 -21.163   5.129  1.00  0.00     0.016 C 
ENDBRANCH  13  14
ENDBRANCH  12  13
ENDBRANCH   8  12
ENDBRANCH   3   4
ENDBRANCH   1   3
BRANCH   1  17
HETATM   17  C   UNL     1      40.768 -13.514   0.391  1.00  0.00     0.009 A 
HETATM   18  C   UNL     1      40.135 -14.107  -0.713  1.00  0.00     0.039 A 
HETATM   19  C   UNL     1      39.009 -13.495  -1.306  1.00  0.00     0.030 A 
HETATM   20  C   UNL     1      38.556 -12.289  -0.794  1.00  0.00     0.063 A 
HETATM   21  C   UNL     1      38.138 -13.789  -2.398  1.00  0.00     0.156 A 
HETATM   22  N   UNL     1      37.478 -11.952  -1.564  1.00  0.00    -0.277 N 
HETATM   23  C   UNL     1      39.170 -11.644   0.279  1.00  0.00     0.034 A 
HETATM   24  H   UNL     1      36.896 -11.126  -1.477  1.00  0.00     0.189 HD
HETATM   25  N   UNL     1      37.196 -12.830  -2.543  1.00  0.00    -0.168 NA
HETATM   26  C   UNL     1      40.290 -12.272   0.841  1.00  0.00     0.026 A 
BRANCH  21  27
HETATM   27  C   UNL     1      38.194 -14.952  -3.293  1.00  0.00     0.270 C 
HETATM   28  N   UNL     1      38.251 -16.155  -2.645  1.00  0.00    -0.365 N 
HETATM   29  H   UNL     1      38.243 -16.161  -1.631  1.00  0.00     0.159 HD
HETATM   30  H   UNL     1      38.275 -17.010  -3.176  1.00  0.00     0.159 HD
HETATM   31  O   UNL     1      38.188 -14.888  -4.518  1.00  0.00    -0.266 OA
ENDBRANCH  21  27
ENDBRANCH   1  17
TORSDOF 8
ENDMDL
MODEL 2
REMARK VINA RESULT:      -8.2      1.137      3.189
REMARK  8 active torsions:
REMARK  status: ('A' for Active; 'I' for Inactive)
REMARK    1  A    between atoms: C_2  and  C_3 
REMARK    2  A    between atoms: C_3  and  O_4 
REMARK    3  A    between atoms: O_4  and  C_5 
REMARK    4  A    between atoms: C_6  and  O_7 
REMARK    5  A    between atoms: C_11  and  C_12 
REMARK    6  A    between atoms: C_12  and  N_13 
REMARK    7  A    between atoms: N_13  and  C_14 
REMARK    8  A    between atoms: C_21  and  C_22 
REMARK       I    between atoms: C_22  and  N_23 
ROOT
HETATM    1  N   UNL     1      41.201 -15.524   1.901  1.00  0.00    -0.289 NA
HETATM    2  H   UNL     1      40.638 -16.337   2.134  1.00  0.00     0.128 HD
ENDROOT
BRANCH   1   3
HETATM    3  C   UNL     1      42.553 -15.890   1.501  1.00  0.00     0.131 C 
BRANCH   3   4
HETATM    4  C   UNL     1      43.067 -16.968   2.427  1.00  0.00    -0.042 A 
HETATM    5  C   UNL     1      43.293 -18.268   1.962  1.00  0.00     0.011 A 
HETATM    6  C   UNL     1      43.771 -19.260   2.826  1.00  0.00     0.040 A 
HETATM    7  C   UNL     1      44.021 -18.967   4.170  1.00  0.00     0.101 A 
HETATM    8  C   UNL     1      43.756 -17.674   4.651  1.00  0.00     0.102 A 
HETATM    9  C   UNL     1      43.297 -16.681   3.780  1.00  0.00     0.048 A 
BRANCH   7  10
HETATM   10  O   UNL     1      44.487 -19.872   5.090  1.00  0.00    -0.353 OA
HETATM   11  C   UNL     1      43.811 -21.118   5.175  1.00  0.00     0.210 C 
ENDBRANCH   7  10
BRANCH   8  12
HETATM   12  O   UNL     1      44.051 -17.417   5.967  1.00  0.00    -0.344 OA
BRANCH  12  13
HETATM   13  C   UNL     1      44.642 -16.145   6.239  1.00  0.00     0.209 C 
BRANCH  13  14
HETATM   14  C   UNL     1      43.634 -15.225   6.890  1.00  0.00    -0.069 C 
HETATM   15  C   UNL     1      43.800 -13.757   6.613  1.00  0.00     0.044 C 
HETATM   16  C   UNL     1      42.655 -15.683   7.689  1.00  0.00     0.016 C 
ENDBRANCH  13  14
ENDBRANCH  12  13
ENDBRANCH   8  12
ENDBRANCH   3   4
ENDBRANCH   1   3
BRANCH   1  17
HETATM   17  C   UNL     1      40.494 -14.591   1.131  1.00  0.00     0.009 A 
HETATM   18  C   UNL     1      39.923 -14.902  -0.113  1.00  0.00     0.039 A 
HETATM   19  C   UNL     1      39.299 -13.898  -0.886  1.00  0.00     0.030 A 
HETATM   20  C   UNL     1      39.282 -12.597  -0.404  1.00  0.00     0.063 A 
HETATM   21  C   UNL     1      38.637 -13.838  -2.148  1.00  0.00     0.156 A 
HETATM   22  N   UNL     1      38.626 -11.868  -1.356  1.00  0.00    -0.277 N 
HETATM   23  C   UNL     1      39.865 -12.232   0.809  1.00  0.00     0.034 A 
HETATM   24  H   UNL     1      38.429 -10.874  -1.340  1.00  0.00     0.189 HD
HETATM   25  N   UNL     1      38.223 -12.580  -2.424  1.00  0.00    -0.168 NA
HETATM   26  C   UNL     1      40.484 -13.250   1.548  1.00  0.00     0.026 A 
BRANCH  21  27
HETATM   27  C   UNL     1      38.399 -14.946  -3.082  1.00  0.00     0.270 C 
HETATM   28  N   UNL     1      38.325 -16.175  -2.486  1.00  0.00    -0.365 N 
HETATM   29  H   UNL     1      38.427 -16.232  -1.479  1.00  0.00     0.159 HD
HETATM   30  H   UNL     1      38.148 -16.994  -3.044  1.00  0.00     0.159 HD
HETATM   31  O   UNL     1      38.270 -14.818  -4.295  1.00  0.00    -0.266 OA
ENDBRANCH  21  27
ENDBRANCH   1  17
TORSDOF 8
ENDMDL
MODEL 3
REMARK VINA RESULT:      -8.0      5.158      8.868
REMARK  8 active torsions:
REMARK  status: ('A' for Active; 'I' for Inactive)
REMARK    1  A    between atoms: C_2  and  C_3 
REMARK    2  A    between atoms: C_3  and  O_4 
REMARK    3  A    between atoms: O_4  and  C_5 
REMARK    4  A    between atoms: C_6  and  O_7 
REMARK    5  A    between atoms: C_11  and  C_12 
REMARK    6  A    between atoms: C_12  and  N_13 
REMARK    7  A    between atoms: N_13  and  C_14 
REMARK    8  A    between atoms: C_21  and  C_22 
REMARK       I    between atoms: C_22  and  N_23 
ROOT
HETATM    1  N   UNL     1      42.738 -13.191   6.912  1.00  0.00    -0.289 NA
HETATM    2  H   UNL     1      41.914 -12.810   6.455  1.00  0.00     0.128 HD
ENDROOT
BRANCH   1   3
HETATM    3  C   UNL     1      43.132 -14.476   6.350  1.00  0.00     0.131 C 
BRANCH   3   4
HETATM    4  C   UNL     1      42.259 -14.781   5.154  1.00  0.00    -0.042 A 
HETATM    5  C   UNL     1      41.220 -13.919   4.784  1.00  0.00     0.011 A 
HETATM    6  C   UNL     1      40.417 -14.208   3.675  1.00  0.00     0.040 A 
HETATM    7  C   UNL     1      40.636 -15.368   2.925  1.00  0.00     0.101 A 
HETATM    8  C   UNL     1      41.650 -16.257   3.318  1.00  0.00     0.102 A 
HETATM    9  C   UNL     1      42.462 -15.954   4.416  1.00  0.00     0.048 A 
BRANCH   7  10
HETATM   10  O   UNL     1      39.901 -15.733   1.826  1.00  0.00    -0.353 OA
HETATM   11  C   UNL     1      40.141 -15.024   0.620  1.00  0.00     0.210 C 
ENDBRANCH   7  10
BRANCH   8  12
HETATM   12  O   UNL     1      41.858 -17.364   2.533  1.00  0.00    -0.344 OA
BRANCH  12  13
HETATM   13  C   UNL     1      43.221 -17.669   2.229  1.00  0.00     0.209 C 
BRANCH  13  14
HETATM   14  C   UNL     1      43.566 -19.062   2.703  1.00  0.00    -0.069 C 
HETATM   15  C   UNL     1      44.282 -19.156   4.021  1.00  0.00     0.044 C 
HETATM   16  C   UNL     1      43.271 -20.159   1.983  1.00  0.00     0.016 C 
ENDBRANCH  13  14
ENDBRANCH  12  13
ENDBRANCH   8  12
ENDBRANCH   3   4
ENDBRANCH   1   3
BRANCH   1  17
HETATM   17  C   UNL     1      43.721 -12.217   7.133  1.00  0.00     0.009 A 
HETATM   18  C   UNL     1      43.481 -11.038   7.855  1.00  0.00     0.039 A 
HETATM   19  C   UNL     1      44.485 -10.052   7.970  1.00  0.00     0.030 A 
HETATM   20  C   UNL     1      45.701 -10.259   7.337  1.00  0.00     0.063 A 
HETATM   21  C   UNL     1      44.602  -8.776   8.597  1.00  0.00     0.156 A 
HETATM   22  N   UNL     1      46.450  -9.151   7.621  1.00  0.00    -0.277 N 
HETATM   23  C   UNL     1      45.976 -11.397   6.580  1.00  0.00     0.034 A 
HETATM   24  H   UNL     1      47.398  -8.957   7.319  1.00  0.00     0.189 HD
HETATM   25  N   UNL     1      45.821  -8.233   8.377  1.00  0.00    -0.168 NA
HETATM   26  C   UNL     1      44.956 -12.354   6.478  1.00  0.00     0.026 A 
BRANCH  21  27
HETATM   27  C   UNL     1      43.582  -8.076   9.388  1.00  0.00     0.270 C 
HETATM   28  N   UNL     1      43.510  -6.732   9.146  1.00  0.00    -0.365 N 
HETATM   29  H   UNL     1      44.136  -6.329   8.458  1.00  0.00     0.159 HD
HETATM   30  H   UNL     1      42.829  -6.170   9.630  1.00  0.00     0.159 HD
HETATM   31  O   UNL     1      42.839  -8.617  10.202  1.00  0.00    -0.266 OA
ENDBRANCH  21  27
ENDBRANCH   1  17
TORSDOF 8
ENDMDL
MODEL 4
REMARK VINA RESULT:      -7.9      4.405      7.739
REMARK  8 active torsions:
REMARK  status: ('A' for Active; 'I' for Inactive)
REMARK    1  A    between atoms: C_2  and  C_3 
REMARK    2  A    between atoms: C_3  and  O_4 
REMARK    3  A    between atoms: O_4  and  C_5 
REMARK    4  A    between atoms: C_6  and  O_7 
REMARK    5  A    between atoms: C_11  and  C_12 
REMARK    6  A    between atoms: C_12  and  N_13 
REMARK    7  A    between atoms: N_13  and  C_14 
REMARK    8  A    between atoms: C_21  and  C_22 
REMARK       I    between atoms: C_22  and  N_23 
ROOT
HETATM    1  N   UNL     1      42.409 -16.345   7.397  1.00  0.00    -0.289 NA
HETATM    2  H   UNL     1      41.607 -16.927   7.172  1.00  0.00     0.128 HD
ENDROOT
BRANCH   1   3
HETATM    3  C   UNL     1      43.669 -17.053   7.213  1.00  0.00     0.131 C 
BRANCH   3   4
HETATM    4  C   UNL     1      43.698 -17.657   5.828  1.00  0.00    -0.042 A 
HETATM    5  C   UNL     1      43.934 -19.024   5.644  1.00  0.00     0.011 A 
HETATM    6  C   UNL     1      43.957 -19.576   4.359  1.00  0.00     0.040 A 
HETATM    7  C   UNL     1      43.754 -18.766   3.237  1.00  0.00     0.101 A 
HETATM    8  C   UNL     1      43.559 -17.385   3.414  1.00  0.00     0.102 A 
HETATM    9  C   UNL     1      43.517 -16.842   4.702  1.00  0.00     0.048 A 
BRANCH   7  10
HETATM   10  O   UNL     1      43.761 -19.215   1.941  1.00  0.00    -0.353 OA
HETATM   11  C   UNL     1      43.514 -20.599   1.733  1.00  0.00     0.210 C 
ENDBRANCH   7  10
BRANCH   8  12
HETATM   12  O   UNL     1      43.325 -16.632   2.291  1.00  0.00    -0.344 OA
BRANCH  12  13
HETATM   13  C   UNL     1      42.704 -15.363   2.507  1.00  0.00     0.209 C 
BRANCH  13  14
HETATM   14  C   UNL     1      41.248 -15.415   2.103  1.00  0.00    -0.069 C 
HETATM   15  C   UNL     1      40.925 -14.915   0.722  1.00  0.00     0.044 C 
HETATM   16  C   UNL     1      40.288 -15.862   2.931  1.00  0.00     0.016 C 
ENDBRANCH  13  14
ENDBRANCH  12  13
ENDBRANCH   8  12
ENDBRANCH   3   4
ENDBRANCH   1   3
BRANCH   1  17
HETATM   17  C   UNL     1      42.281 -15.045   6.891  1.00  0.00     0.009 A 
HETATM   18  C   UNL     1      43.271 -14.063   7.046  1.00  0.00     0.039 A 
HETATM   19  C   UNL     1      43.049 -12.744   6.592  1.00  0.00     0.030 A 
HETATM   20  C   UNL     1      41.828 -12.433   6.014  1.00  0.00     0.063 A 
HETATM   21  C   UNL     1      43.791 -11.526   6.578  1.00  0.00     0.156 A 
HETATM   22  N   UNL     1      41.910 -11.108   5.687  1.00  0.00    -0.277 N 
HETATM   23  C   UNL     1      40.800 -13.363   5.868  1.00  0.00     0.034 A 
HETATM   24  H   UNL     1      41.197 -10.539   5.245  1.00  0.00     0.189 HD
HETATM   25  N   UNL     1      43.078 -10.525   6.013  1.00  0.00    -0.168 NA
HETATM   26  C   UNL     1      41.049 -14.662   6.336  1.00  0.00     0.026 A 
BRANCH  21  27
HETATM   27  C   UNL     1      45.149 -11.304   7.092  1.00  0.00     0.270 C 
HETATM   28  N   UNL     1      46.107 -11.209   6.121  1.00  0.00    -0.365 N 
HETATM   29  H   UNL     1      45.823 -11.286   5.150  1.00  0.00     0.159 HD
HETATM   30  H   UNL     1      47.066 -11.040   6.376  1.00  0.00     0.159 HD
HETATM   31  O   UNL     1      45.436 -11.205   8.281  1.00  0.00    -0.266 OA
ENDBRANCH  21  27
ENDBRANCH   1  17
TORSDOF 8
ENDMDL
MODEL 5
REMARK VINA RESULT:      -7.6      3.448      5.422
REMARK  8 active torsions:
REMARK  status: ('A' for Active; 'I' for Inactive)
REMARK    1  A    between atoms: C_2  and  C_3 
REMARK    2  A    between atoms: C_3  and  O_4 
REMARK    3  A    between atoms: O_4  and  C_5 
REMARK    4  A    between atoms: C_6  and  O_7 
REMARK    5  A    between atoms: C_11  and  C_12 
REMARK    6  A    between atoms: C_12  and  N_13 
REMARK    7  A    between atoms: N_13  and  C_14 
REMARK    8  A    between atoms: C_21  and  C_22 
REMARK       I    between atoms: C_22  and  N_23 
ROOT
HETATM    1  N   UNL     1      40.834 -15.594   2.018  1.00  0.00    -0.289 NA
HETATM    2  H   UNL     1      40.193 -16.166   1.475  1.00  0.00     0.128 HD
ENDROOT
BRANCH   1   3
HETATM    3  C   UNL     1      42.220 -15.780   1.605  1.00  0.00     0.131 C 
BRANCH   3   4
HETATM    4  C   UNL     1      42.859 -16.831   2.483  1.00  0.00    -0.042 A 
HETATM    5  C   UNL     1      43.113 -18.118   1.996  1.00  0.00     0.011 A 
HETATM    6  C   UNL     1      43.708 -19.084   2.815  1.00  0.00     0.040 A 
HETATM    7  C   UNL     1      44.048 -18.780   4.137  1.00  0.00     0.101 A 
HETATM    8  C   UNL     1      43.756 -17.502   4.643  1.00  0.00     0.102 A 
HETATM    9  C   UNL     1      43.180 -16.534   3.815  1.00  0.00     0.048 A 
BRANCH   7  10
HETATM   10  O   UNL     1      44.631 -19.660   5.012  1.00  0.00    -0.353 OA
HETATM   11  C   UNL     1      43.942 -20.877   5.264  1.00  0.00     0.210 C 
ENDBRANCH   7  10
BRANCH   8  12
HETATM   12  O   UNL     1      44.141 -17.232   5.932  1.00  0.00    -0.344 OA
BRANCH  12  13
HETATM   13  C   UNL     1      43.117 -17.330   6.925  1.00  0.00     0.209 C 
BRANCH  13  14
HETATM   14  C   UNL     1      42.362 -16.025   7.033  1.00  0.00    -0.069 C 
HETATM   15  C   UNL     1      43.153 -14.838   7.509  1.00  0.00     0.044 C 
HETATM   16  C   UNL     1      41.053 -15.926   6.741  1.00  0.00     0.016 C 
ENDBRANCH  13  14
ENDBRANCH  12  13
ENDBRANCH   8  12
ENDBRANCH   3   4
ENDBRANCH   1   3
BRANCH   1  17
HETATM   17  C   UNL     1      40.352 -14.293   2.210  1.00  0.00     0.009 A 
HETATM   18  C   UNL     1      40.204 -13.711   3.479  1.00  0.00     0.039 A 
HETATM   19  C   UNL     1      39.630 -12.428   3.616  1.00  0.00     0.030 A 
HETATM   20  C   UNL     1      39.195 -11.765   2.478  1.00  0.00     0.063 A 
HETATM   21  C   UNL     1      39.328 -11.550   4.699  1.00  0.00     0.156 A 
HETATM   22  N   UNL     1      38.693 -10.575   2.924  1.00  0.00    -0.277 N 
HETATM   23  C   UNL     1      39.289 -12.314   1.200  1.00  0.00     0.034 A 
HETATM   24  H   UNL     1      38.285  -9.833   2.365  1.00  0.00     0.189 HD
HETATM   25  N   UNL     1      38.753 -10.408   4.257  1.00  0.00    -0.168 NA
HETATM   26  C   UNL     1      39.857 -13.593   1.098  1.00  0.00     0.026 A 
BRANCH  21  27
HETATM   27  C   UNL     1      39.572 -11.784   6.128  1.00  0.00     0.270 C 
HETATM   28  N   UNL     1      40.848 -12.176   6.422  1.00  0.00    -0.365 N 
HETATM   29  H   UNL     1      41.514 -12.268   5.663  1.00  0.00     0.159 HD
HETATM   30  H   UNL     1      41.115 -12.343   7.379  1.00  0.00     0.159 HD
HETATM   31  O   UNL     1      38.729 -11.644   7.010  1.00  0.00    -0.266 OA
ENDBRANCH  21  27
ENDBRANCH   1  17
TORSDOF 8
ENDMDL
MODEL 6
REMARK VINA RESULT:      -7.6      2.444      3.308
REMARK  8 active torsions:
REMARK  status: ('A' for Active; 'I' for Inactive)
REMARK    1  A    between atoms: C_2  and  C_3 
REMARK    2  A    between atoms: C_3  and  O_4 
REMARK    3  A    between atoms: O_4  and  C_5 
REMARK    4  A    between atoms: C_6  and  O_7 
REMARK    5  A    between atoms: C_11  and  C_12 
REMARK    6  A    between atoms: C_12  and  N_13 
REMARK    7  A    between atoms: N_13  and  C_14 
REMARK    8  A    between atoms: C_21  and  C_22 
REMARK       I    between atoms: C_22  and  N_23 
ROOT
HETATM    1  N   UNL     1      41.216 -15.016   0.734  1.00  0.00    -0.289 NA
HETATM    2  H   UNL     1      42.045 -14.735   1.249  1.00  0.00     0.128 HD
ENDROOT
BRANCH   1   3
HETATM    3  C   UNL     1      40.298 -15.797   1.554  1.00  0.00     0.131 C 
BRANCH   3   4
HETATM    4  C   UNL     1      40.935 -16.052   2.901  1.00  0.00    -0.042 A 
HETATM    5  C   UNL     1      40.455 -15.422   4.055  1.00  0.00     0.011 A 
HETATM    6  C   UNL     1      41.049 -15.665   5.298  1.00  0.00     0.040 A 
HETATM    7  C   UNL     1      42.139 -16.534   5.404  1.00  0.00     0.101 A 
HETATM    8  C   UNL     1      42.652 -17.136   4.242  1.00  0.00     0.102 A 
HETATM    9  C   UNL     1      42.042 -16.905   3.004  1.00  0.00     0.048 A 
BRANCH   7  10
HETATM   10  O   UNL     1      42.786 -16.832   6.576  1.00  0.00    -0.353 OA
HETATM   11  C   UNL     1      42.816 -15.822   7.575  1.00  0.00     0.210 C 
ENDBRANCH   7  10
BRANCH   8  12
HETATM   12  O   UNL     1      43.698 -18.011   4.393  1.00  0.00    -0.344 OA
BRANCH  12  13
HETATM   13  C   UNL     1      44.239 -18.556   3.187  1.00  0.00     0.209 C 
BRANCH  13  14
HETATM   14  C   UNL     1      43.856 -20.012   3.050  1.00  0.00    -0.069 C 
HETATM   15  C   UNL     1      43.394 -20.451   1.688  1.00  0.00     0.044 C 
HETATM   16  C   UNL     1      43.904 -20.868   4.086  1.00  0.00     0.016 C 
ENDBRANCH  13  14
ENDBRANCH  12  13
ENDBRANCH   8  12
ENDBRANCH   3   4
ENDBRANCH   1   3
BRANCH   1  17
HETATM   17  C   UNL     1      40.704 -13.978  -0.056  1.00  0.00     0.009 A 
HETATM   18  C   UNL     1      41.161 -12.654   0.030  1.00  0.00     0.039 A 
HETATM   19  C   UNL     1      40.547 -11.633  -0.728  1.00  0.00     0.030 A 
HETATM   20  C   UNL     1      39.469 -11.959  -1.538  1.00  0.00     0.063 A 
HETATM   21  C   UNL     1      40.728 -10.228  -0.894  1.00  0.00     0.156 A 
HETATM   22  N   UNL     1      39.094 -10.785  -2.129  1.00  0.00    -0.277 N 
HETATM   23  C   UNL     1      38.956 -13.252  -1.632  1.00  0.00     0.034 A 
HETATM   24  H   UNL     1      38.335 -10.644  -2.786  1.00  0.00     0.189 HD
HETATM   25  N   UNL     1      39.827  -9.718  -1.764  1.00  0.00    -0.168 NA
HETATM   26  C   UNL     1      39.583 -14.242  -0.861  1.00  0.00     0.026 A 
BRANCH  21  27
HETATM   27  C   UNL     1      41.732  -9.377  -0.241  1.00  0.00     0.270 C 
HETATM   28  N   UNL     1      41.458  -9.094   1.069  1.00  0.00    -0.365 N 
HETATM   29  H   UNL     1      40.619  -9.482   1.484  1.00  0.00     0.159 HD
HETATM   30  H   UNL     1      42.099  -8.530   1.605  1.00  0.00     0.159 HD
HETATM   31  O   UNL     1      42.740  -8.944  -0.790  1.00  0.00    -0.266 OA
ENDBRANCH  21  27
ENDBRANCH   1  17
TORSDOF 8
ENDMDL
MODEL 7
REMARK VINA RESULT:      -7.6      5.047      9.170
REMARK  8 active torsions:
REMARK  status: ('A' for Active; 'I' for Inactive)
REMARK    1  A    between atoms: C_2  and  C_3 
REMARK    2  A    between atoms: C_3  and  O_4 
REMARK    3  A    between atoms: O_4  and  C_5 
REMARK    4  A    between atoms: C_6  and  O_7 
REMARK    5  A    between atoms: C_11  and  C_12 
REMARK    6  A    between atoms: C_12  and  N_13 
REMARK    7  A    between atoms: N_13  and  C_14 
REMARK    8  A    between atoms: C_21  and  C_22 
REMARK       I    between atoms: C_22  and  N_23 
ROOT
HETATM    1  N   UNL     1      42.827 -13.255   6.828  1.00  0.00    -0.289 NA
HETATM    2  H   UNL     1      42.488 -13.239   5.871  1.00  0.00     0.128 HD
ENDROOT
BRANCH   1   3
HETATM    3  C   UNL     1      43.078 -14.612   7.299  1.00  0.00     0.131 C 
BRANCH   3   4
HETATM    4  C   UNL     1      43.301 -15.514   6.107  1.00  0.00    -0.042 A 
HETATM    5  C   UNL     1      43.982 -16.729   6.242  1.00  0.00     0.011 A 
HETATM    6  C   UNL     1      44.182 -17.559   5.133  1.00  0.00     0.040 A 
HETATM    7  C   UNL     1      43.713 -17.181   3.871  1.00  0.00     0.101 A 
HETATM    8  C   UNL     1      43.067 -15.942   3.723  1.00  0.00     0.102 A 
HETATM    9  C   UNL     1      42.852 -15.125   4.838  1.00  0.00     0.048 A 
BRANCH   7  10
HETATM   10  O   UNL     1      43.864 -17.927   2.730  1.00  0.00    -0.353 OA
HETATM   11  C   UNL     1      43.691 -19.332   2.845  1.00  0.00     0.210 C 
ENDBRANCH   7  10
BRANCH   8  12
HETATM   12  O   UNL     1      42.587 -15.626   2.477  1.00  0.00    -0.344 OA
BRANCH  12  13
HETATM   13  C   UNL     1      41.878 -14.389   2.374  1.00  0.00     0.209 C 
BRANCH  13  14
HETATM   14  C   UNL     1      40.406 -14.644   2.143  1.00  0.00    -0.069 C 
HETATM   15  C   UNL     1      39.463 -13.584   2.640  1.00  0.00     0.044 C 
HETATM   16  C   UNL     1      39.956 -15.762   1.547  1.00  0.00     0.016 C 
ENDBRANCH  13  14
ENDBRANCH  12  13
ENDBRANCH   8  12
ENDBRANCH   3   4
ENDBRANCH   1   3
BRANCH   1  17
HETATM   17  C   UNL     1      43.790 -12.265   7.068  1.00  0.00     0.009 A 
HETATM   18  C   UNL     1      43.521 -11.098   7.800  1.00  0.00     0.039 A 
HETATM   19  C   UNL     1      44.505 -10.095   7.934  1.00  0.00     0.030 A 
HETATM   20  C   UNL     1      45.731 -10.273   7.310  1.00  0.00     0.063 A 
HETATM   21  C   UNL     1      44.593  -8.823   8.575  1.00  0.00     0.156 A 
HETATM   22  N   UNL     1      46.456  -9.154   7.612  1.00  0.00    -0.277 N 
HETATM   23  C   UNL     1      46.034 -11.397   6.543  1.00  0.00     0.034 A 
HETATM   24  H   UNL     1      47.403  -8.939   7.320  1.00  0.00     0.189 HD
HETATM   25  N   UNL     1      45.804  -8.255   8.371  1.00  0.00    -0.168 NA
HETATM   26  C   UNL     1      45.033 -12.372   6.423  1.00  0.00     0.026 A 
BRANCH  21  27
HETATM   27  C   UNL     1      43.553  -8.151   9.364  1.00  0.00     0.270 C 
HETATM   28  N   UNL     1      43.402  -6.822   9.074  1.00  0.00    -0.365 N 
HETATM   29  H   UNL     1      43.990  -6.412   8.357  1.00  0.00     0.159 HD
HETATM   30  H   UNL     1      42.700  -6.281   9.553  1.00  0.00     0.159 HD
HETATM   31  O   UNL     1      42.859  -8.701  10.213  1.00  0.00    -0.266 OA
ENDBRANCH  21  27
ENDBRANCH   1  17
TORSDOF 8
ENDMDL
MODEL 8
REMARK VINA RESULT:      -7.4      3.824      6.525
REMARK  8 active torsions:
REMARK  status: ('A' for Active; 'I' for Inactive)
REMARK    1  A    between atoms: C_2  and  C_3 
REMARK    2  A    between atoms: C_3  and  O_4 
REMARK    3  A    between atoms: O_4  and  C_5 
REMARK    4  A    between atoms: C_6  and  O_7 
REMARK    5  A    between atoms: C_11  and  C_12 
REMARK    6  A    between atoms: C_12  and  N_13 
REMARK    7  A    between atoms: N_13  and  C_14 
REMARK    8  A    between atoms: C_21  and  C_22 
REMARK       I    between atoms: C_22  and  N_23 
ROOT
HETATM    1  N   UNL     1      40.375 -13.029   2.102  1.00  0.00    -0.289 NA
HETATM    2  H   UNL     1      40.967 -13.050   1.277  1.00  0.00     0.128 HD
ENDROOT
BRANCH   1   3
HETATM    3  C   UNL     1      39.761 -14.324   2.370  1.00  0.00     0.131 C 
BRANCH   3   4
HETATM    4  C   UNL     1      40.838 -15.310   2.758  1.00  0.00    -0.042 A 
HETATM    5  C   UNL     1      41.712 -15.835   1.800  1.00  0.00     0.011 A 
HETATM    6  C   UNL     1      42.708 -16.746   2.168  1.00  0.00     0.040 A 
HETATM    7  C   UNL     1      42.839 -17.152   3.500  1.00  0.00     0.101 A 
HETATM    8  C   UNL     1      41.938 -16.659   4.459  1.00  0.00     0.102 A 
HETATM    9  C   UNL     1      40.956 -15.734   4.089  1.00  0.00     0.048 A 
BRANCH   7  10
HETATM   10  O   UNL     1      43.782 -18.039   3.954  1.00  0.00    -0.353 OA
HETATM   11  C   UNL     1      44.119 -19.122   3.098  1.00  0.00     0.210 C 
ENDBRANCH   7  10
BRANCH   8  12
HETATM   12  O   UNL     1      42.124 -17.052   5.761  1.00  0.00    -0.344 OA
BRANCH  12  13
HETATM   13  C   UNL     1      42.218 -16.000   6.724  1.00  0.00     0.209 C 
BRANCH  13  14
HETATM   14  C   UNL     1      43.564 -15.317   6.627  1.00  0.00    -0.069 C 
HETATM   15  C   UNL     1      44.768 -16.216   6.664  1.00  0.00     0.044 C 
HETATM   16  C   UNL     1      43.686 -13.982   6.534  1.00  0.00     0.016 C 
ENDBRANCH  13  14
ENDBRANCH  12  13
ENDBRANCH   8  12
ENDBRANCH   3   4
ENDBRANCH   1   3
BRANCH   1  17
HETATM   17  C   UNL     1      40.964 -12.326   3.160  1.00  0.00     0.009 A 
HETATM   18  C   UNL     1      40.260 -11.953   4.317  1.00  0.00     0.039 A 
HETATM   19  C   UNL     1      40.882 -11.168   5.312  1.00  0.00     0.030 A 
HETATM   20  C   UNL     1      42.191 -10.752   5.114  1.00  0.00     0.063 A 
HETATM   21  C   UNL     1      40.501 -10.616   6.570  1.00  0.00     0.156 A 
HETATM   22  N   UNL     1      42.509 -10.020   6.224  1.00  0.00    -0.277 N 
HETATM   23  C   UNL     1      42.920 -11.067   3.968  1.00  0.00     0.034 A 
HETATM   24  H   UNL     1      43.389  -9.558   6.423  1.00  0.00     0.189 HD
HETATM   25  N   UNL     1      41.515  -9.913   7.124  1.00  0.00    -0.168 NA
HETATM   26  C   UNL     1      42.272 -11.842   2.996  1.00  0.00     0.026 A 
BRANCH  21  27
HETATM   27  C   UNL     1      39.200 -10.743   7.240  1.00  0.00     0.270 C 
HETATM   28  N   UNL     1      39.231 -10.469   8.580  1.00  0.00    -0.365 N 
HETATM   29  H   UNL     1      40.114 -10.198   8.999  1.00  0.00     0.159 HD
HETATM   30  H   UNL     1      38.383 -10.514   9.121  1.00  0.00     0.159 HD
HETATM   31  O   UNL     1      38.156 -11.062   6.679  1.00  0.00    -0.266 OA
ENDBRANCH  21  27
ENDBRANCH   1  17
TORSDOF 8
ENDMDL
MODEL 9
REMARK VINA RESULT:      -7.4      1.751      2.419
REMARK  8 active torsions:
REMARK  status: ('A' for Active; 'I' for Inactive)
REMARK    1  A    between atoms: C_2  and  C_3 
REMARK    2  A    between atoms: C_3  and  O_4 
REMARK    3  A    between atoms: O_4  and  C_5 
REMARK    4  A    between atoms: C_6  and  O_7 
REMARK    5  A    between atoms: C_11  and  C_12 
REMARK    6  A    between atoms: C_12  and  N_13 
REMARK    7  A    between atoms: N_13  and  C_14 
REMARK    8  A    between atoms: C_21  and  C_22 
REMARK       I    between atoms: C_22  and  N_23 
ROOT
HETATM    1  N   UNL     1      41.459 -12.586   2.120  1.00  0.00    -0.289 NA
HETATM    2  H   UNL     1      40.822 -12.643   2.909  1.00  0.00     0.128 HD
ENDROOT
BRANCH   1   3
HETATM    3  C   UNL     1      42.827 -12.925   2.492  1.00  0.00     0.131 C 
BRANCH   3   4
HETATM    4  C   UNL     1      42.797 -13.860   3.679  1.00  0.00    -0.042 A 
HETATM    5  C   UNL     1      42.665 -13.366   4.982  1.00  0.00     0.011 A 
HETATM    6  C   UNL     1      42.636 -14.239   6.075  1.00  0.00     0.040 A 
HETATM    7  C   UNL     1      42.749 -15.619   5.882  1.00  0.00     0.101 A 
HETATM    8  C   UNL     1      42.924 -16.117   4.580  1.00  0.00     0.102 A 
HETATM    9  C   UNL     1      42.933 -15.242   3.489  1.00  0.00     0.048 A 
BRANCH   7  10
HETATM   10  O   UNL     1      42.733 -16.549   6.890  1.00  0.00    -0.353 OA
HETATM   11  C   UNL     1      43.935 -16.732   7.624  1.00  0.00     0.210 C 
ENDBRANCH   7  10
BRANCH   8  12
HETATM   12  O   UNL     1      42.992 -17.480   4.430  1.00  0.00    -0.344 OA
BRANCH  12  13
HETATM   13  C   UNL     1      43.481 -17.947   3.170  1.00  0.00     0.209 C 
BRANCH  13  14
HETATM   14  C   UNL     1      43.776 -19.428   3.237  1.00  0.00    -0.069 C 
HETATM   15  C   UNL     1      43.586 -20.201   1.962  1.00  0.00     0.044 C 
HETATM   16  C   UNL     1      44.166 -20.032   4.374  1.00  0.00     0.016 C 
ENDBRANCH  13  14
ENDBRANCH  12  13
ENDBRANCH   8  12
ENDBRANCH   3   4
ENDBRANCH   1   3
BRANCH   1  17
HETATM   17  C   UNL     1      40.915 -13.145   0.956  1.00  0.00     0.009 A 
HETATM   18  C   UNL     1      40.675 -12.402  -0.210  1.00  0.00     0.039 A 
HETATM   19  C   UNL     1      40.043 -12.999  -1.323  1.00  0.00     0.030 A 
HETATM   20  C   UNL     1      39.643 -14.324  -1.233  1.00  0.00     0.063 A 
HETATM   21  C   UNL     1      39.646 -12.576  -2.626  1.00  0.00     0.156 A 
HETATM   22  N   UNL     1      39.070 -14.610  -2.440  1.00  0.00    -0.277 N 
HETATM   23  C   UNL     1      39.828 -15.094  -0.086  1.00  0.00     0.034 A 
HETATM   24  H   UNL     1      38.662 -15.492  -2.732  1.00  0.00     0.189 HD
HETATM   25  N   UNL     1      39.050 -13.582  -3.307  1.00  0.00    -0.168 NA
HETATM   26  C   UNL     1      40.452 -14.470   1.004  1.00  0.00     0.026 A 
BRANCH  21  27
HETATM   27  C   UNL     1      39.822 -11.245  -3.222  1.00  0.00     0.270 C 
HETATM   28  N   UNL     1      38.650 -10.611  -3.530  1.00  0.00    -0.365 N 
HETATM   29  H   UNL     1      37.775 -11.081  -3.327  1.00  0.00     0.159 HD
HETATM   30  H   UNL     1      38.670  -9.686  -3.928  1.00  0.00     0.159 HD
HETATM   31  O   UNL     1      40.908 -10.716  -3.435  1.00  0.00    -0.266 OA
ENDBRANCH  21  27
ENDBRANCH   1  17
TORSDOF 8
ENDMDL
MODEL 10
REMARK VINA RESULT:      -7.4      2.070      3.022
REMARK  8 active torsions:
REMARK  status: ('A' for Active; 'I' for Inactive)
REMARK    1  A    between atoms: C_2  and  C_3 
REMARK    2  A    between atoms: C_3  and  O_4 
REMARK    3  A    between atoms: O_4  and  C_5 
REMARK    4  A    between atoms: C_6  and  O_7 
REMARK    5  A    between atoms: C_11  and  C_12 
REMARK    6  A    between atoms: C_12  and  N_13 
REMARK    7  A    between atoms: N_13  and  C_14 
REMARK    8  A    between atoms: C_21  and  C_22 
REMARK       I    between atoms: C_22  and  N_23 
ROOT
HETATM    1  N   UNL     1      40.787 -14.686   0.091  1.00  0.00    -0.289 NA
HETATM    2  H   UNL     1      41.516 -14.169   0.575  1.00  0.00     0.128 HD
ENDROOT
BRANCH   1   3
HETATM    3  C   UNL     1      40.153 -15.676   0.953  1.00  0.00     0.131 C 
BRANCH   3   4
HETATM    4  C   UNL     1      40.869 -15.703   2.283  1.00  0.00    -0.042 A 
HETATM    5  C   UNL     1      40.708 -14.666   3.209  1.00  0.00     0.011 A 
HETATM    6  C   UNL     1      41.373 -14.700   4.439  1.00  0.00     0.040 A 
HETATM    7  C   UNL     1      42.217 -15.768   4.758  1.00  0.00     0.101 A 
HETATM    8  C   UNL     1      42.416 -16.791   3.815  1.00  0.00     0.102 A 
HETATM    9  C   UNL     1      41.733 -16.762   2.595  1.00  0.00     0.048 A 
BRANCH   7  10
HETATM   10  O   UNL     1      42.911 -15.887   5.936  1.00  0.00    -0.353 OA
HETATM   11  C   UNL     1      43.593 -14.734   6.406  1.00  0.00     0.210 C 
ENDBRANCH   7  10
BRANCH   8  12
HETATM   12  O   UNL     1      43.221 -17.840   4.182  1.00  0.00    -0.344 OA
BRANCH  12  13
HETATM   13  C   UNL     1      44.066 -18.368   3.157  1.00  0.00     0.209 C 
BRANCH  13  14
HETATM   14  C   UNL     1      43.813 -19.848   2.978  1.00  0.00    -0.069 C 
HETATM   15  C   UNL     1      43.978 -20.702   4.204  1.00  0.00     0.044 C 
HETATM   16  C   UNL     1      43.479 -20.381   1.789  1.00  0.00     0.016 C 
ENDBRANCH  13  14
ENDBRANCH  12  13
ENDBRANCH   8  12
ENDBRANCH   3   4
ENDBRANCH   1   3
BRANCH   1  17
HETATM   17  C   UNL     1      39.980 -13.855  -0.696  1.00  0.00     0.009 A 
HETATM   18  C   UNL     1      39.204 -12.813  -0.163  1.00  0.00     0.039 A 
HETATM   19  C   UNL     1      38.341 -12.066  -0.994  1.00  0.00     0.030 A 
HETATM   20  C   UNL     1      38.257 -12.395  -2.339  1.00  0.00     0.063 A 
HETATM   21  C   UNL     1      37.435 -10.979  -0.818  1.00  0.00     0.156 A 
HETATM   22  N   UNL     1      37.355 -11.515  -2.870  1.00  0.00    -0.277 N 
HETATM   23  C   UNL     1      38.980 -13.442  -2.909  1.00  0.00     0.034 A 
HETATM   24  H   UNL     1      37.044 -11.462  -3.833  1.00  0.00     0.189 HD
HETATM   25  N   UNL     1      36.836 -10.647  -1.984  1.00  0.00    -0.168 NA
HETATM   26  C   UNL     1      39.822 -14.170  -2.056  1.00  0.00     0.026 A 
BRANCH  21  27
HETATM   27  C   UNL     1      37.133 -10.265   0.430  1.00  0.00     0.270 C 
HETATM   28  N   UNL     1      35.799 -10.180   0.718  1.00  0.00    -0.365 N 
HETATM   29  H   UNL     1      35.136 -10.606   0.079  1.00  0.00     0.159 HD
HETATM   30  H   UNL     1      35.495  -9.723   1.563  1.00  0.00     0.159 HD
HETATM   31  O   UNL     1      37.978  -9.779   1.176  1.00  0.00    -0.266 OA
ENDBRANCH  21  27
ENDBRANCH   1  17
TORSDOF 8
ENDMDL
