MODEL 1
REMARK VINA RESULT:      -9.4      0.000      0.000
REMARK  4 active torsions:
REMARK  status: ('A' for Active; 'I' for Inactive)
REMARK    1  A    between atoms: C_3  and  C_4 
REMARK    2  A    between atoms: C_14  and  N_15 
REMARK       I    between atoms: N_15  and  C_16 
REMARK    3  A    between atoms: C_16  and  C_17 
REMARK    4  A    between atoms: C_19  and  N_20 
ROOT
HETATM    1  N   UNL     1      42.124 -11.741   4.976  1.00  0.00    -0.322 N 
HETATM    2  C   UNL     1      43.395 -11.327   4.640  1.00  0.00     0.256 C 
HETATM    3  O   UNL     1      43.879 -11.183   3.527  1.00  0.00    -0.267 OA
HETATM    4  H   UNL     1      41.926 -11.848   5.966  1.00  0.00     0.169 HD
ENDROOT
BRANCH   1   5
HETATM    5  C   UNL     1      41.019 -11.909   4.101  1.00  0.00     0.049 A 
HETATM    6  C   UNL     1      40.694 -13.203   3.631  1.00  0.00     0.037 A 
HETATM    7  C   UNL     1      39.516 -13.394   2.888  1.00  0.00     0.017 A 
HETATM    8  C   UNL     1      38.691 -12.318   2.571  1.00  0.00     0.001 A 
HETATM    9  C   UNL     1      39.036 -11.038   2.990  1.00  0.00     0.002 A 
HETATM   10  C   UNL     1      40.191 -10.835   3.751  1.00  0.00     0.030 A 
BRANCH   6  11
HETATM   11  C   UNL     1      41.573 -14.360   3.814  1.00  0.00     0.141 A 
HETATM   12  N   UNL     1      42.235 -14.687   4.907  1.00  0.00    -0.228 NA
HETATM   13  C   UNL     1      42.880 -15.866   4.618  1.00  0.00     0.086 A 
HETATM   14  C   UNL     1      42.598 -16.281   3.323  1.00  0.00     0.062 A 
HETATM   15  C   UNL     1      43.724 -16.647   5.420  1.00  0.00     0.034 A 
HETATM   16  N   UNL     1      41.744 -15.324   2.845  1.00  0.00    -0.338 N 
HETATM   17  C   UNL     1      43.121 -17.445   2.758  1.00  0.00     0.032 A 
HETATM   18  H   UNL     1      41.293 -15.321   1.941  1.00  0.00     0.167 HD
HETATM   19  C   UNL     1      43.966 -18.210   3.570  1.00  0.00     0.002 A 
HETATM   20  C   UNL     1      44.262 -17.823   4.879  1.00  0.00     0.002 A 
ENDBRANCH   6  11
ENDBRANCH   1   5
BRANCH   2  21
HETATM   21  C   UNL     1      44.250 -11.075   5.813  1.00  0.00     0.034 A 
HETATM   22  C   UNL     1      43.692 -10.447   6.933  1.00  0.00     0.047 A 
HETATM   23  C   UNL     1      44.464 -10.188   8.076  1.00  0.00     0.046 A 
HETATM   24  C   UNL     1      45.814 -10.586   8.032  1.00  0.00     0.030 A 
HETATM   25  C   UNL     1      46.371 -11.210   6.905  1.00  0.00     0.003 A 
HETATM   26  C   UNL     1      45.588 -11.456   5.785  1.00  0.00     0.017 A 
BRANCH  23  27
HETATM   27  N   UNL     1      43.905  -9.540   9.227  1.00  0.00    -0.252 N 
HETATM   28  C   UNL     1      43.591 -10.180  10.408  1.00  0.00     0.231 C 
HETATM   29  O   UNL     1      43.819 -11.331  10.753  1.00  0.00    -0.273 OA
HETATM   30  C   UNL     1      42.871  -9.222  11.308  1.00  0.00     0.113 C 
HETATM   31  C   UNL     1      43.166  -7.876  10.706  1.00  0.00     0.113 C 
HETATM   32  C   UNL     1      43.618  -8.194   9.312  1.00  0.00     0.231 C 
HETATM   33  O   UNL     1      43.703  -7.322   8.457  1.00  0.00    -0.273 OA
ENDBRANCH  23  27
ENDBRANCH   2  21
TORSDOF 4
ENDMDL
MODEL 2
REMARK VINA RESULT:      -9.3      2.782      8.005
REMARK  4 active torsions:
REMARK  status: ('A' for Active; 'I' for Inactive)
REMARK    1  A    between atoms: C_3  and  C_4 
REMARK    2  A    between atoms: C_14  and  N_15 
REMARK       I    between atoms: N_15  and  C_16 
REMARK    3  A    between atoms: C_16  and  C_17 
REMARK    4  A    between atoms: C_19  and  N_20 
ROOT
HETATM    1  N   UNL     1      41.808 -13.111   5.307  1.00  0.00    -0.322 N 
HETATM    2  C   UNL     1      41.505 -14.350   5.829  1.00  0.00     0.256 C 
HETATM    3  O   UNL     1      40.455 -14.730   6.325  1.00  0.00    -0.267 OA
HETATM    4  H   UNL     1      42.761 -12.972   4.984  1.00  0.00     0.169 HD
ENDROOT
BRANCH   1   5
HETATM    5  C   UNL     1      40.905 -12.045   5.051  1.00  0.00     0.049 A 
HETATM    6  C   UNL     1      41.132 -10.782   5.646  1.00  0.00     0.037 A 
HETATM    7  C   UNL     1      40.329  -9.689   5.277  1.00  0.00     0.017 A 
HETATM    8  C   UNL     1      39.285  -9.846   4.369  1.00  0.00     0.001 A 
HETATM    9  C   UNL     1      39.030 -11.098   3.822  1.00  0.00     0.002 A 
HETATM   10  C   UNL     1      39.835 -12.191   4.160  1.00  0.00     0.030 A 
BRANCH   6  11
HETATM   11  C   UNL     1      42.126 -10.567   6.700  1.00  0.00     0.141 A 
HETATM   12  N   UNL     1      43.419 -10.817   6.634  1.00  0.00    -0.228 NA
HETATM   13  C   UNL     1      43.943 -10.412   7.837  1.00  0.00     0.086 A 
HETATM   14  C   UNL     1      42.954  -9.886   8.658  1.00  0.00     0.062 A 
HETATM   15  C   UNL     1      45.266 -10.456   8.301  1.00  0.00     0.034 A 
HETATM   16  N   UNL     1      41.816  -9.969   7.902  1.00  0.00    -0.338 N 
HETATM   17  C   UNL     1      43.199  -9.400   9.943  1.00  0.00     0.032 A 
HETATM   18  H   UNL     1      40.898  -9.637   8.162  1.00  0.00     0.167 HD
HETATM   19  C   UNL     1      44.524  -9.457  10.392  1.00  0.00     0.002 A 
HETATM   20  C   UNL     1      45.542  -9.973   9.587  1.00  0.00     0.002 A 
ENDBRANCH   6  11
ENDBRANCH   1   5
BRANCH   2  21
HETATM   21  C   UNL     1      42.641 -15.288   5.789  1.00  0.00     0.034 A 
HETATM   22  C   UNL     1      42.586 -16.378   4.912  1.00  0.00     0.047 A 
HETATM   23  C   UNL     1      43.645 -17.296   4.835  1.00  0.00     0.046 A 
HETATM   24  C   UNL     1      44.748 -17.065   5.679  1.00  0.00     0.030 A 
HETATM   25  C   UNL     1      44.795 -15.974   6.561  1.00  0.00     0.003 A 
HETATM   26  C   UNL     1      43.737 -15.078   6.621  1.00  0.00     0.017 A 
BRANCH  23  27
HETATM   27  N   UNL     1      43.597 -18.420   3.945  1.00  0.00    -0.252 N 
HETATM   28  C   UNL     1      43.323 -18.337   2.596  1.00  0.00     0.231 C 
HETATM   29  O   UNL     1      43.192 -17.347   1.888  1.00  0.00    -0.273 OA
HETATM   30  C   UNL     1      43.189 -19.720   2.037  1.00  0.00     0.113 C 
HETATM   31  C   UNL     1      43.814 -20.594   3.090  1.00  0.00     0.113 C 
HETATM   32  C   UNL     1      43.831 -19.729   4.314  1.00  0.00     0.231 C 
HETATM   33  O   UNL     1      44.044 -20.200   5.423  1.00  0.00    -0.273 OA
ENDBRANCH  23  27
ENDBRANCH   2  21
TORSDOF 4
ENDMDL
MODEL 3
REMARK VINA RESULT:      -9.3      2.247      5.019
REMARK  4 active torsions:
REMARK  status: ('A' for Active; 'I' for Inactive)
REMARK    1  A    between atoms: C_3  and  C_4 
REMARK    2  A    between atoms: C_14  and  N_15 
REMARK       I    between atoms: N_15  and  C_16 
REMARK    3  A    between atoms: C_16  and  C_17 
REMARK    4  A    between atoms: C_19  and  N_20 
ROOT
HETATM    1  N   UNL     1      42.660 -14.596   4.606  1.00  0.00    -0.322 N 
HETATM    2  C   UNL     1      41.519 -14.213   5.276  1.00  0.00     0.256 C 
HETATM    3  O   UNL     1      40.479 -14.837   5.428  1.00  0.00    -0.267 OA
HETATM    4  H   UNL     1      43.407 -13.911   4.546  1.00  0.00     0.169 HD
ENDROOT
BRANCH   1   5
HETATM    5  C   UNL     1      42.963 -15.888   4.099  1.00  0.00     0.049 A 
HETATM    6  C   UNL     1      42.733 -16.171   2.733  1.00  0.00     0.037 A 
HETATM    7  C   UNL     1      43.169 -17.395   2.197  1.00  0.00     0.017 A 
HETATM    8  C   UNL     1      43.782 -18.349   3.004  1.00  0.00     0.001 A 
HETATM    9  C   UNL     1      43.963 -18.092   4.358  1.00  0.00     0.002 A 
HETATM   10  C   UNL     1      43.557 -16.869   4.902  1.00  0.00     0.030 A 
BRANCH   6  11
HETATM   11  C   UNL     1      41.984 -15.274   1.850  1.00  0.00     0.141 A 
HETATM   12  N   UNL     1      42.174 -13.979   1.689  1.00  0.00    -0.228 NA
HETATM   13  C   UNL     1      41.271 -13.581   0.732  1.00  0.00     0.086 A 
HETATM   14  C   UNL     1      40.517 -14.658   0.283  1.00  0.00     0.062 A 
HETATM   15  C   UNL     1      41.041 -12.309   0.189  1.00  0.00     0.034 A 
HETATM   16  N   UNL     1      41.010 -15.724   0.986  1.00  0.00    -0.338 N 
HETATM   17  C   UNL     1      39.520 -14.547  -0.687  1.00  0.00     0.032 A 
HETATM   18  H   UNL     1      40.726 -16.689   0.887  1.00  0.00     0.167 HD
HETATM   19  C   UNL     1      39.300 -13.269  -1.215  1.00  0.00     0.002 A 
HETATM   20  C   UNL     1      40.047 -12.168  -0.789  1.00  0.00     0.002 A 
ENDBRANCH   6  11
ENDBRANCH   1   5
BRANCH   2  21
HETATM   21  C   UNL     1      41.606 -12.851   5.832  1.00  0.00     0.034 A 
HETATM   22  C   UNL     1      42.813 -12.430   6.404  1.00  0.00     0.047 A 
HETATM   23  C   UNL     1      42.945 -11.141   6.944  1.00  0.00     0.046 A 
HETATM   24  C   UNL     1      41.812 -10.308   6.882  1.00  0.00     0.030 A 
HETATM   25  C   UNL     1      40.603 -10.736   6.313  1.00  0.00     0.003 A 
HETATM   26  C   UNL     1      40.493 -12.016   5.785  1.00  0.00     0.017 A 
BRANCH  23  27
HETATM   27  N   UNL     1      44.175 -10.701   7.537  1.00  0.00    -0.252 N 
HETATM   28  C   UNL     1      44.298 -10.245   8.833  1.00  0.00     0.231 C 
HETATM   29  O   UNL     1      43.471 -10.232   9.735  1.00  0.00    -0.273 OA
HETATM   30  C   UNL     1      45.684  -9.716   9.037  1.00  0.00     0.113 C 
HETATM   31  C   UNL     1      46.458 -10.284   7.879  1.00  0.00     0.113 C 
HETATM   32  C   UNL     1      45.398 -10.688   6.899  1.00  0.00     0.231 C 
HETATM   33  O   UNL     1      45.675 -10.961   5.738  1.00  0.00    -0.273 OA
ENDBRANCH  23  27
ENDBRANCH   2  21
TORSDOF 4
ENDMDL
MODEL 4
REMARK VINA RESULT:      -9.1      3.564      7.979
REMARK  4 active torsions:
REMARK  status: ('A' for Active; 'I' for Inactive)
REMARK    1  A    between atoms: C_3  and  C_4 
REMARK    2  A    between atoms: C_14  and  N_15 
REMARK       I    between atoms: N_15  and  C_16 
REMARK    3  A    between atoms: C_16  and  C_17 
REMARK    4  A    between atoms: C_19  and  N_20 
ROOT
HETATM    1  N   UNL     1      41.633 -13.096   3.608  1.00  0.00    -0.322 N 
HETATM    2  C   UNL     1      41.873 -12.447   2.417  1.00  0.00     0.256 C 
HETATM    3  O   UNL     1      42.593 -11.482   2.207  1.00  0.00    -0.267 OA
HETATM    4  H   UNL     1      40.957 -13.853   3.587  1.00  0.00     0.169 HD
ENDROOT
BRANCH   1   5
HETATM    5  C   UNL     1      42.319 -12.912   4.838  1.00  0.00     0.049 A 
HETATM    6  C   UNL     1      43.196 -13.919   5.303  1.00  0.00     0.037 A 
HETATM    7  C   UNL     1      43.988 -13.676   6.438  1.00  0.00     0.017 A 
HETATM    8  C   UNL     1      43.886 -12.476   7.137  1.00  0.00     0.001 A 
HETATM    9  C   UNL     1      42.987 -11.505   6.709  1.00  0.00     0.002 A 
HETATM   10  C   UNL     1      42.209 -11.721   5.567  1.00  0.00     0.030 A 
BRANCH   6  11
HETATM   11  C   UNL     1      43.268 -15.251   4.700  1.00  0.00     0.141 A 
HETATM   12  N   UNL     1      42.890 -15.593   3.483  1.00  0.00    -0.228 NA
HETATM   13  C   UNL     1      43.193 -16.927   3.355  1.00  0.00     0.086 A 
HETATM   14  C   UNL     1      43.784 -17.416   4.513  1.00  0.00     0.062 A 
HETATM   15  C   UNL     1      42.996 -17.792   2.269  1.00  0.00     0.034 A 
HETATM   16  N   UNL     1      43.847 -16.326   5.339  1.00  0.00    -0.338 N 
HETATM   17  C   UNL     1      44.193 -18.741   4.667  1.00  0.00     0.032 A 
HETATM   18  H   UNL     1      44.261 -16.296   6.260  1.00  0.00     0.167 HD
HETATM   19  C   UNL     1      43.984 -19.592   3.575  1.00  0.00     0.002 A 
HETATM   20  C   UNL     1      43.398 -19.128   2.394  1.00  0.00     0.002 A 
ENDBRANCH   6  11
ENDBRANCH   1   5
BRANCH   2  21
HETATM   21  C   UNL     1      41.110 -13.009   1.288  1.00  0.00     0.034 A 
HETATM   22  C   UNL     1      40.598 -12.138   0.318  1.00  0.00     0.047 A 
HETATM   23  C   UNL     1      39.868 -12.626  -0.777  1.00  0.00     0.046 A 
HETATM   24  C   UNL     1      39.678 -14.020  -0.842  1.00  0.00     0.030 A 
HETATM   25  C   UNL     1      40.188 -14.888   0.135  1.00  0.00     0.003 A 
HETATM   26  C   UNL     1      40.908 -14.384   1.211  1.00  0.00     0.017 A 
BRANCH  23  27
HETATM   27  N   UNL     1      39.335 -11.743  -1.773  1.00  0.00    -0.252 N 
HETATM   28  C   UNL     1      38.080 -11.173  -1.720  1.00  0.00     0.231 C 
HETATM   29  O   UNL     1      37.253 -11.193  -0.818  1.00  0.00    -0.273 OA
HETATM   30  C   UNL     1      37.811 -10.458  -3.009  1.00  0.00     0.113 C 
HETATM   31  C   UNL     1      39.173 -10.323  -3.633  1.00  0.00     0.113 C 
HETATM   32  C   UNL     1      40.006 -11.337  -2.907  1.00  0.00     0.231 C 
HETATM   33  O   UNL     1      41.106 -11.674  -3.326  1.00  0.00    -0.273 OA
ENDBRANCH  23  27
ENDBRANCH   2  21
TORSDOF 4
ENDMDL
MODEL 5
REMARK VINA RESULT:      -9.0      2.649      5.575
REMARK  4 active torsions:
REMARK  status: ('A' for Active; 'I' for Inactive)
REMARK    1  A    between atoms: C_3  and  C_4 
REMARK    2  A    between atoms: C_14  and  N_15 
REMARK       I    between atoms: N_15  and  C_16 
REMARK    3  A    between atoms: C_16  and  C_17 
REMARK    4  A    between atoms: C_19  and  N_20 
ROOT
HETATM    1  N   UNL     1      42.854 -15.008   4.849  1.00  0.00    -0.322 N 
HETATM    2  C   UNL     1      43.552 -14.577   5.957  1.00  0.00     0.256 C 
HETATM    3  O   UNL     1      44.333 -15.205   6.656  1.00  0.00    -0.267 OA
HETATM    4  H   UNL     1      42.208 -14.345   4.431  1.00  0.00     0.169 HD
ENDROOT
BRANCH   1   5
HETATM    5  C   UNL     1      43.030 -16.230   4.148  1.00  0.00     0.049 A 
HETATM    6  C   UNL     1      42.546 -16.348   2.824  1.00  0.00     0.037 A 
HETATM    7  C   UNL     1      42.849 -17.499   2.077  1.00  0.00     0.017 A 
HETATM    8  C   UNL     1      43.579 -18.543   2.639  1.00  0.00     0.001 A 
HETATM    9  C   UNL     1      44.012 -18.449   3.957  1.00  0.00     0.002 A 
HETATM   10  C   UNL     1      43.740 -17.299   4.706  1.00  0.00     0.030 A 
BRANCH   6  11
HETATM   11  C   UNL     1      41.667 -15.353   2.206  1.00  0.00     0.141 A 
HETATM   12  N   UNL     1      40.839 -14.533   2.824  1.00  0.00    -0.228 NA
HETATM   13  C   UNL     1      40.270 -13.760   1.841  1.00  0.00     0.086 A 
HETATM   14  C   UNL     1      40.769 -14.100   0.591  1.00  0.00     0.062 A 
HETATM   15  C   UNL     1      39.318 -12.736   1.944  1.00  0.00     0.034 A 
HETATM   16  N   UNL     1      41.675 -15.092   0.853  1.00  0.00    -0.338 N 
HETATM   17  C   UNL     1      40.366 -13.480  -0.593  1.00  0.00     0.032 A 
HETATM   18  H   UNL     1      42.269 -15.555   0.179  1.00  0.00     0.167 HD
HETATM   19  C   UNL     1      39.410 -12.464  -0.473  1.00  0.00     0.002 A 
HETATM   20  C   UNL     1      38.895 -12.094   0.772  1.00  0.00     0.002 A 
ENDBRANCH   6  11
ENDBRANCH   1   5
BRANCH   2  21
HETATM   21  C   UNL     1      43.253 -13.181   6.322  1.00  0.00     0.034 A 
HETATM   22  C   UNL     1      42.090 -12.585   5.818  1.00  0.00     0.047 A 
HETATM   23  C   UNL     1      41.761 -11.260   6.140  1.00  0.00     0.046 A 
HETATM   24  C   UNL     1      42.653 -10.570   6.982  1.00  0.00     0.030 A 
HETATM   25  C   UNL     1      43.821 -11.170   7.479  1.00  0.00     0.003 A 
HETATM   26  C   UNL     1      44.128 -12.483   7.148  1.00  0.00     0.017 A 
BRANCH  23  27
HETATM   27  N   UNL     1      40.575 -10.637   5.625  1.00  0.00    -0.252 N 
HETATM   28  C   UNL     1      40.527  -9.882   4.472  1.00  0.00     0.231 C 
HETATM   29  O   UNL     1      41.394  -9.692   3.629  1.00  0.00    -0.273 OA
HETATM   30  C   UNL     1      39.170  -9.258   4.351  1.00  0.00     0.113 C 
HETATM   31  C   UNL     1      38.326 -10.050   5.311  1.00  0.00     0.113 C 
HETATM   32  C   UNL     1      39.326 -10.721   6.204  1.00  0.00     0.231 C 
HETATM   33  O   UNL     1      38.987 -11.249   7.255  1.00  0.00    -0.273 OA
ENDBRANCH  23  27
ENDBRANCH   2  21
TORSDOF 4
ENDMDL
MODEL 6
REMARK VINA RESULT:      -8.9      3.121      7.779
REMARK  4 active torsions:
REMARK  status: ('A' for Active; 'I' for Inactive)
REMARK    1  A    between atoms: C_3  and  C_4 
REMARK    2  A    between atoms: C_14  and  N_15 
REMARK       I    between atoms: N_15  and  C_16 
REMARK    3  A    between atoms: C_16  and  C_17 
REMARK    4  A    between atoms: C_19  and  N_20 
ROOT
HETATM    1  N   UNL     1      41.409 -11.533   4.140  1.00  0.00    -0.322 N 
HETATM    2  C   UNL     1      40.153 -12.076   3.985  1.00  0.00     0.256 C 
HETATM    3  O   UNL     1      39.546 -12.819   4.742  1.00  0.00    -0.267 OA
HETATM    4  H   UNL     1      41.764 -10.975   3.370  1.00  0.00     0.169 HD
ENDROOT
BRANCH   1   5
HETATM    5  C   UNL     1      42.214 -11.556   5.310  1.00  0.00     0.049 A 
HETATM    6  C   UNL     1      43.113 -12.629   5.515  1.00  0.00     0.037 A 
HETATM    7  C   UNL     1      44.015 -12.579   6.592  1.00  0.00     0.017 A 
HETATM    8  C   UNL     1      44.001 -11.512   7.485  1.00  0.00     0.001 A 
HETATM    9  C   UNL     1      43.083 -10.482   7.314  1.00  0.00     0.002 A 
HETATM   10  C   UNL     1      42.196 -10.503   6.233  1.00  0.00     0.030 A 
BRANCH   6  11
HETATM   11  C   UNL     1      43.103 -13.842   4.696  1.00  0.00     0.141 A 
HETATM   12  N   UNL     1      43.075 -13.911   3.379  1.00  0.00    -0.228 NA
HETATM   13  C   UNL     1      43.125 -15.249   3.070  1.00  0.00     0.086 A 
HETATM   14  C   UNL     1      43.200 -16.022   4.221  1.00  0.00     0.062 A 
HETATM   15  C   UNL     1      43.117 -15.881   1.818  1.00  0.00     0.034 A 
HETATM   16  N   UNL     1      43.214 -15.105   5.237  1.00  0.00    -0.338 N 
HETATM   17  C   UNL     1      43.259 -17.416   4.208  1.00  0.00     0.032 A 
HETATM   18  H   UNL     1      43.306 -15.305   6.223  1.00  0.00     0.167 HD
HETATM   19  C   UNL     1      43.243 -18.032   2.951  1.00  0.00     0.002 A 
HETATM   20  C   UNL     1      43.177 -17.281   1.775  1.00  0.00     0.002 A 
ENDBRANCH   6  11
ENDBRANCH   1   5
BRANCH   2  21
HETATM   21  C   UNL     1      39.518 -11.709   2.706  1.00  0.00     0.034 A 
HETATM   22  C   UNL     1      40.086 -12.173   1.513  1.00  0.00     0.047 A 
HETATM   23  C   UNL     1      39.517 -11.853   0.271  1.00  0.00     0.046 A 
HETATM   24  C   UNL     1      38.362 -11.049   0.290  1.00  0.00     0.030 A 
HETATM   25  C   UNL     1      37.800 -10.582   1.489  1.00  0.00     0.003 A 
HETATM   26  C   UNL     1      38.379 -10.910   2.707  1.00  0.00     0.017 A 
BRANCH  23  27
HETATM   27  N   UNL     1      40.093 -12.317  -0.958  1.00  0.00    -0.252 N 
HETATM   28  C   UNL     1      40.999 -11.603  -1.715  1.00  0.00     0.231 C 
HETATM   29  O   UNL     1      41.563 -10.547  -1.462  1.00  0.00    -0.273 OA
HETATM   30  C   UNL     1      41.239 -12.328  -3.004  1.00  0.00     0.113 C 
HETATM   31  C   UNL     1      40.713 -13.712  -2.739  1.00  0.00     0.113 C 
HETATM   32  C   UNL     1      39.831 -13.540  -1.539  1.00  0.00     0.231 C 
HETATM   33  O   UNL     1      39.045 -14.414  -1.198  1.00  0.00    -0.273 OA
ENDBRANCH  23  27
ENDBRANCH   2  21
TORSDOF 4
ENDMDL
MODEL 7
REMARK VINA RESULT:      -8.8      4.061      7.925
REMARK  4 active torsions:
REMARK  status: ('A' for Active; 'I' for Inactive)
REMARK    1  A    between atoms: C_3  and  C_4 
REMARK    2  A    between atoms: C_14  and  N_15 
REMARK       I    between atoms: N_15  and  C_16 
REMARK    3  A    between atoms: C_16  and  C_17 
REMARK    4  A    between atoms: C_19  and  N_20 
ROOT
HETATM    1  N   UNL     1      41.984 -15.321   1.316  1.00  0.00    -0.322 N 
HETATM    2  C   UNL     1      40.621 -15.251   1.127  1.00  0.00     0.256 C 
HETATM    3  O   UNL     1      39.749 -15.967   1.597  1.00  0.00    -0.267 OA
HETATM    4  H   UNL     1      42.552 -14.662   0.793  1.00  0.00     0.169 HD
ENDROOT
BRANCH   1   5
HETATM    5  C   UNL     1      42.678 -16.126   2.257  1.00  0.00     0.049 A 
HETATM    6  C   UNL     1      42.888 -15.639   3.569  1.00  0.00     0.037 A 
HETATM    7  C   UNL     1      43.440 -16.489   4.542  1.00  0.00     0.017 A 
HETATM    8  C   UNL     1      43.824 -17.788   4.221  1.00  0.00     0.001 A 
HETATM    9  C   UNL     1      43.664 -18.251   2.920  1.00  0.00     0.002 A 
HETATM   10  C   UNL     1      43.093 -17.426   1.945  1.00  0.00     0.030 A 
BRANCH   6  11
HETATM   11  C   UNL     1      42.629 -14.249   3.952  1.00  0.00     0.141 A 
HETATM   12  N   UNL     1      42.987 -13.164   3.292  1.00  0.00    -0.228 NA
HETATM   13  C   UNL     1      42.485 -12.105   4.009  1.00  0.00     0.086 A 
HETATM   14  C   UNL     1      41.790 -12.547   5.127  1.00  0.00     0.062 A 
HETATM   15  C   UNL     1      42.578 -10.728   3.759  1.00  0.00     0.034 A 
HETATM   16  N   UNL     1      41.871 -13.911   5.051  1.00  0.00    -0.338 N 
HETATM   17  C   UNL     1      41.176 -11.687   6.039  1.00  0.00     0.032 A 
HETATM   18  H   UNL     1      41.439 -14.573   5.681  1.00  0.00     0.167 HD
HETATM   19  C   UNL     1      41.284 -10.316   5.778  1.00  0.00     0.002 A 
HETATM   20  C   UNL     1      41.970  -9.842   4.658  1.00  0.00     0.002 A 
ENDBRANCH   6  11
ENDBRANCH   1   5
BRANCH   2  21
HETATM   21  C   UNL     1      40.220 -14.176   0.201  1.00  0.00     0.034 A 
HETATM   22  C   UNL     1      40.202 -12.856   0.666  1.00  0.00     0.047 A 
HETATM   23  C   UNL     1      39.832 -11.798  -0.178  1.00  0.00     0.046 A 
HETATM   24  C   UNL     1      39.480 -12.134  -1.499  1.00  0.00     0.030 A 
HETATM   25  C   UNL     1      39.493 -13.460  -1.959  1.00  0.00     0.003 A 
HETATM   26  C   UNL     1      39.863 -14.492  -1.106  1.00  0.00     0.017 A 
BRANCH  23  27
HETATM   27  N   UNL     1      39.804 -10.442   0.289  1.00  0.00    -0.252 N 
HETATM   28  C   UNL     1      40.918  -9.638   0.418  1.00  0.00     0.231 C 
HETATM   29  O   UNL     1      42.072  -9.846   0.071  1.00  0.00    -0.273 OA
HETATM   30  C   UNL     1      40.524  -8.360   1.094  1.00  0.00     0.113 C 
HETATM   31  C   UNL     1      39.025  -8.336   0.966  1.00  0.00     0.113 C 
HETATM   32  C   UNL     1      38.665  -9.758   0.658  1.00  0.00     0.231 C 
HETATM   33  O   UNL     1      37.509 -10.152   0.734  1.00  0.00    -0.273 OA
ENDBRANCH  23  27
ENDBRANCH   2  21
TORSDOF 4
ENDMDL
MODEL 8
REMARK VINA RESULT:      -8.7      1.802      2.052
REMARK  4 active torsions:
REMARK  status: ('A' for Active; 'I' for Inactive)
REMARK    1  A    between atoms: C_3  and  C_4 
REMARK    2  A    between atoms: C_14  and  N_15 
REMARK       I    between atoms: N_15  and  C_16 
REMARK    3  A    between atoms: C_16  and  C_17 
REMARK    4  A    between atoms: C_19  and  N_20 
ROOT
HETATM    1  N   UNL     1      41.941 -12.560   3.696  1.00  0.00    -0.322 N 
HETATM    2  C   UNL     1      42.995 -11.705   3.932  1.00  0.00     0.256 C 
HETATM    3  O   UNL     1      43.682 -11.101   3.122  1.00  0.00    -0.267 OA
HETATM    4  H   UNL     1      41.526 -13.009   4.507  1.00  0.00     0.169 HD
ENDROOT
BRANCH   1   5
HETATM    5  C   UNL     1      41.283 -12.787   2.459  1.00  0.00     0.049 A 
HETATM    6  C   UNL     1      41.216 -14.100   1.937  1.00  0.00     0.037 A 
HETATM    7  C   UNL     1      40.439 -14.351   0.792  1.00  0.00     0.017 A 
HETATM    8  C   UNL     1      39.774 -13.316   0.140  1.00  0.00     0.001 A 
HETATM    9  C   UNL     1      39.881 -12.017   0.624  1.00  0.00     0.002 A 
HETATM   10  C   UNL     1      40.629 -11.754   1.776  1.00  0.00     0.030 A 
BRANCH   6  11
HETATM   11  C   UNL     1      41.986 -15.216   2.490  1.00  0.00     0.141 A 
HETATM   12  N   UNL     1      42.590 -15.260   3.661  1.00  0.00    -0.228 NA
HETATM   13  C   UNL     1      43.136 -16.517   3.758  1.00  0.00     0.086 A 
HETATM   14  C   UNL     1      42.851 -17.270   2.626  1.00  0.00     0.062 A 
HETATM   15  C   UNL     1      43.889 -17.091   4.792  1.00  0.00     0.034 A 
HETATM   16  N   UNL     1      42.096 -16.432   1.851  1.00  0.00    -0.338 N 
HETATM   17  C   UNL     1      43.285 -18.585   2.449  1.00  0.00     0.032 A 
HETATM   18  H   UNL     1      41.670 -16.659   0.963  1.00  0.00     0.167 HD
HETATM   19  C   UNL     1      44.040 -19.140   3.488  1.00  0.00     0.002 A 
HETATM   20  C   UNL     1      44.336 -18.411   4.642  1.00  0.00     0.002 A 
ENDBRANCH   6  11
ENDBRANCH   1   5
BRANCH   2  21
HETATM   21  C   UNL     1      43.316 -11.564   5.364  1.00  0.00     0.034 A 
HETATM   22  C   UNL     1      43.085 -10.333   5.990  1.00  0.00     0.047 A 
HETATM   23  C   UNL     1      43.371 -10.151   7.352  1.00  0.00     0.046 A 
HETATM   24  C   UNL     1      43.898 -11.259   8.043  1.00  0.00     0.030 A 
HETATM   25  C   UNL     1      44.133 -12.489   7.410  1.00  0.00     0.003 A 
HETATM   26  C   UNL     1      43.843 -12.647   6.061  1.00  0.00     0.017 A 
BRANCH  23  27
HETATM   27  N   UNL     1      43.144  -8.893   8.002  1.00  0.00    -0.252 N 
HETATM   28  C   UNL     1      44.143  -8.054   8.451  1.00  0.00     0.231 C 
HETATM   29  O   UNL     1      45.354  -8.133   8.294  1.00  0.00    -0.273 OA
HETATM   30  C   UNL     1      43.528  -6.929   9.226  1.00  0.00     0.113 C 
HETATM   31  C   UNL     1      42.077  -6.976   8.831  1.00  0.00     0.113 C 
HETATM   32  C   UNL     1      41.902  -8.348   8.254  1.00  0.00     0.231 C 
HETATM   33  O   UNL     1      40.790  -8.819   8.058  1.00  0.00    -0.273 OA
ENDBRANCH  23  27
ENDBRANCH   2  21
TORSDOF 4
ENDMDL
MODEL 9
REMARK VINA RESULT:      -8.6     18.021     19.729
REMARK  4 active torsions:
REMARK  status: ('A' for Active; 'I' for Inactive)
REMARK    1  A    between atoms: C_3  and  C_4 
REMARK    2  A    between atoms: C_14  and  N_15 
REMARK       I    between atoms: N_15  and  C_16 
REMARK    3  A    between atoms: C_16  and  C_17 
REMARK    4  A    between atoms: C_19  and  N_20 
ROOT
HETATM    1  N   UNL     1      44.682 -30.437   3.070  1.00  0.00    -0.322 N 
HETATM    2  C   UNL     1      45.700 -31.293   3.432  1.00  0.00     0.256 C 
HETATM    3  O   UNL     1      45.618 -32.426   3.882  1.00  0.00    -0.267 OA
HETATM    4  H   UNL     1      44.954 -29.509   2.762  1.00  0.00     0.169 HD
ENDROOT
BRANCH   1   5
HETATM    5  C   UNL     1      43.302 -30.749   2.956  1.00  0.00     0.049 A 
HETATM    6  C   UNL     1      42.693 -30.755   1.679  1.00  0.00     0.037 A 
HETATM    7  C   UNL     1      41.369 -31.208   1.546  1.00  0.00     0.017 A 
HETATM    8  C   UNL     1      40.635 -31.605   2.660  1.00  0.00     0.001 A 
HETATM    9  C   UNL     1      41.217 -31.552   3.922  1.00  0.00     0.002 A 
HETATM   10  C   UNL     1      42.541 -31.128   4.069  1.00  0.00     0.030 A 
BRANCH   6  11
HETATM   11  C   UNL     1      43.354 -30.234   0.480  1.00  0.00     0.141 A 
HETATM   12  N   UNL     1      43.784 -29.003   0.283  1.00  0.00    -0.228 NA
HETATM   13  C   UNL     1      44.372 -29.004  -0.959  1.00  0.00     0.086 A 
HETATM   14  C   UNL     1      44.316 -30.267  -1.534  1.00  0.00     0.062 A 
HETATM   15  C   UNL     1      44.984 -27.956  -1.662  1.00  0.00     0.034 A 
HETATM   16  N   UNL     1      43.692 -31.035  -0.589  1.00  0.00    -0.338 N 
HETATM   17  C   UNL     1      44.833 -30.560  -2.797  1.00  0.00     0.032 A 
HETATM   18  H   UNL     1      43.516 -32.028  -0.645  1.00  0.00     0.167 HD
HETATM   19  C   UNL     1      45.436 -29.501  -3.487  1.00  0.00     0.002 A 
HETATM   20  C   UNL     1      45.514 -28.222  -2.932  1.00  0.00     0.002 A 
ENDBRANCH   6  11
ENDBRANCH   1   5
BRANCH   2  21
HETATM   21  C   UNL     1      47.039 -30.700   3.267  1.00  0.00     0.034 A 
HETATM   22  C   UNL     1      47.667 -30.785   2.019  1.00  0.00     0.047 A 
HETATM   23  C   UNL     1      48.940 -30.233   1.811  1.00  0.00     0.046 A 
HETATM   24  C   UNL     1      49.545 -29.601   2.914  1.00  0.00     0.030 A 
HETATM   25  C   UNL     1      48.914 -29.523   4.165  1.00  0.00     0.003 A 
HETATM   26  C   UNL     1      47.654 -30.076   4.349  1.00  0.00     0.017 A 
BRANCH  23  27
HETATM   27  N   UNL     1      49.595 -30.320   0.538  1.00  0.00    -0.252 N 
HETATM   28  C   UNL     1      49.225 -29.603  -0.581  1.00  0.00     0.231 C 
HETATM   29  O   UNL     1      48.397 -28.709  -0.694  1.00  0.00    -0.273 OA
HETATM   30  C   UNL     1      50.021 -30.083  -1.756  1.00  0.00     0.113 C 
HETATM   31  C   UNL     1      51.159 -30.842  -1.130  1.00  0.00     0.113 C 
HETATM   32  C   UNL     1      50.686 -31.118   0.265  1.00  0.00     0.231 C 
HETATM   33  O   UNL     1      51.256 -31.932   0.980  1.00  0.00    -0.273 OA
ENDBRANCH  23  27
ENDBRANCH   2  21
TORSDOF 4
ENDMDL
MODEL 10
REMARK VINA RESULT:      -8.5      2.871      7.885
REMARK  4 active torsions:
REMARK  status: ('A' for Active; 'I' for Inactive)
REMARK    1  A    between atoms: C_3  and  C_4 
REMARK    2  A    between atoms: C_14  and  N_15 
REMARK       I    between atoms: N_15  and  C_16 
REMARK    3  A    between atoms: C_16  and  C_17 
REMARK    4  A    between atoms: C_19  and  N_20 
ROOT
HETATM    1  N   UNL     1      42.590 -13.918   3.965  1.00  0.00    -0.322 N 
HETATM    2  C   UNL     1      42.055 -14.432   5.126  1.00  0.00     0.256 C 
HETATM    3  O   UNL     1      41.177 -13.961   5.834  1.00  0.00    -0.267 OA
HETATM    4  H   UNL     1      43.355 -14.437   3.546  1.00  0.00     0.169 HD
ENDROOT
BRANCH   1   5
HETATM    5  C   UNL     1      42.108 -12.812   3.216  1.00  0.00     0.049 A 
HETATM    6  C   UNL     1      42.496 -11.502   3.581  1.00  0.00     0.037 A 
HETATM    7  C   UNL     1      42.144 -10.420   2.756  1.00  0.00     0.017 A 
HETATM    8  C   UNL     1      41.378 -10.618   1.610  1.00  0.00     0.001 A 
HETATM    9  C   UNL     1      40.954 -11.899   1.278  1.00  0.00     0.002 A 
HETATM   10  C   UNL     1      41.316 -12.989   2.075  1.00  0.00     0.030 A 
BRANCH   6  11
HETATM   11  C   UNL     1      43.191 -11.198   4.834  1.00  0.00     0.141 A 
HETATM   12  N   UNL     1      44.469 -11.391   5.099  1.00  0.00    -0.228 NA
HETATM   13  C   UNL     1      44.666 -10.914   6.372  1.00  0.00     0.086 A 
HETATM   14  C   UNL     1      43.487 -10.403   6.900  1.00  0.00     0.062 A 
HETATM   15  C   UNL     1      45.835 -10.878   7.146  1.00  0.00     0.034 A 
HETATM   16  N   UNL     1      42.574 -10.569   5.893  1.00  0.00    -0.338 N 
HETATM   17  C   UNL     1      43.391  -9.855   8.179  1.00  0.00     0.032 A 
HETATM   18  H   UNL     1      41.609 -10.270   5.904  1.00  0.00     0.167 HD
HETATM   19  C   UNL     1      44.566  -9.833   8.940  1.00  0.00     0.002 A 
HETATM   20  C   UNL     1      45.769 -10.332   8.435  1.00  0.00     0.002 A 
ENDBRANCH   6  11
ENDBRANCH   1   5
BRANCH   2  21
HETATM   21  C   UNL     1      42.684 -15.699   5.541  1.00  0.00     0.034 A 
HETATM   22  C   UNL     1      42.834 -16.720   4.596  1.00  0.00     0.047 A 
HETATM   23  C   UNL     1      43.430 -17.943   4.942  1.00  0.00     0.046 A 
HETATM   24  C   UNL     1      43.860 -18.084   6.275  1.00  0.00     0.030 A 
HETATM   25  C   UNL     1      43.702 -17.059   7.220  1.00  0.00     0.003 A 
HETATM   26  C   UNL     1      43.110 -15.857   6.857  1.00  0.00     0.017 A 
BRANCH  23  27
HETATM   27  N   UNL     1      43.583 -18.999   3.983  1.00  0.00    -0.252 N 
HETATM   28  C   UNL     1      43.889 -20.305   4.302  1.00  0.00     0.231 C 
HETATM   29  O   UNL     1      43.968 -20.840   5.399  1.00  0.00    -0.273 OA
HETATM   30  C   UNL     1      44.137 -21.073   3.039  1.00  0.00     0.113 C 
HETATM   31  C   UNL     1      43.546 -20.198   1.967  1.00  0.00     0.113 C 
HETATM   32  C   UNL     1      43.433 -18.853   2.619  1.00  0.00     0.231 C 
HETATM   33  O   UNL     1      43.223 -17.843   1.961  1.00  0.00    -0.273 OA
ENDBRANCH  23  27
ENDBRANCH   2  21
TORSDOF 4
ENDMDL
