MODEL 1
REMARK VINA RESULT:      -7.9      0.000      0.000
REMARK  5 active torsions:
REMARK  status: ('A' for Active; 'I' for Inactive)
REMARK    1  A    between atoms: C_8  and  N_9 
REMARK       I    between atoms: N_9  and  C_10 
REMARK       I    between atoms: C_10  and  N_11 
REMARK    2  A    between atoms: N_11  and  C_12 
REMARK    3  A    between atoms: C_13  and  O_14 
REMARK    4  A    between atoms: O_14  and  C_15 
REMARK    5  A    between atoms: C_15  and  C_16 
ROOT
HETATM    1  N   UNL     1      41.499 -14.088   2.131  1.00  0.00    -0.305 N 
HETATM    2  C   UNL     1      41.530 -15.408   2.540  1.00  0.00     0.325 C 
HETATM    3  N   UNL     1      42.832 -15.875   2.546  1.00  0.00    -0.306 N 
HETATM    4  O   UNL     1      40.554 -16.071   2.867  1.00  0.00    -0.247 OA
HETATM    5  H   UNL     1      42.305 -13.538   2.385  1.00  0.00     0.171 HD
HETATM    6  H   UNL     1      43.456 -15.451   1.869  1.00  0.00     0.171 HD
ENDROOT
BRANCH   3   7
HETATM    7  C   UNL     1      43.290 -17.076   3.126  1.00  0.00     0.070 A 
HETATM    8  C   UNL     1      43.646 -17.058   4.485  1.00  0.00     0.097 A 
HETATM    9  C   UNL     1      44.032 -18.226   5.145  1.00  0.00     0.063 A 
HETATM   10  C   UNL     1      44.095 -19.420   4.429  1.00  0.00     0.036 A 
HETATM   11 CL   UNL     1      44.575 -20.866   5.227  1.00  0.00    -0.084 Cl
HETATM   12  C   UNL     1      43.772 -19.451   3.074  1.00  0.00     0.026 A 
HETATM   13  C   UNL     1      43.365 -18.281   2.424  1.00  0.00     0.034 A 
BRANCH   8  14
HETATM   14  O   UNL     1      43.584 -15.861   5.158  1.00  0.00    -0.340 OA
BRANCH  14  15
HETATM   15  C   UNL     1      43.927 -16.031   6.548  1.00  0.00     0.293 C 
BRANCH  15  16
HETATM   16  C   UNL     1      42.791 -15.543   7.432  1.00  0.00     0.408 C 
HETATM   17  F   UNL     1      42.477 -14.256   7.160  1.00  0.00    -0.169 F 
HETATM   18  F   UNL     1      41.675 -16.285   7.265  1.00  0.00    -0.169 F 
HETATM   19  F   UNL     1      43.137 -15.613   8.738  1.00  0.00    -0.169 F 
ENDBRANCH  15  16
ENDBRANCH  14  15
ENDBRANCH   8  14
ENDBRANCH   3   7
BRANCH   1  20
HETATM   20  C   UNL     1      40.348 -13.384   1.821  1.00  0.00     0.086 A 
HETATM   21  C   UNL     1      39.776 -13.394   0.565  1.00  0.00     0.052 A 
HETATM   22  C   UNL     1      40.171 -14.027  -0.714  1.00  0.00     0.072 C 
HETATM   23  N   UNL     1      38.670 -12.594   0.657  1.00  0.00    -0.280 N 
HETATM   24  H   UNL     1      38.013 -12.346  -0.075  1.00  0.00     0.189 HD
HETATM   25  N   UNL     1      38.456 -12.102   1.882  1.00  0.00    -0.177 NA
HETATM   26  C   UNL     1      39.477 -12.580   2.611  1.00  0.00     0.079 A 
HETATM   27  C   UNL     1      39.516 -12.281   4.065  1.00  0.00     0.075 C 
ENDBRANCH   1  20
TORSDOF 5
ENDMDL
MODEL 2
REMARK VINA RESULT:      -7.8      1.489      2.430
REMARK  5 active torsions:
REMARK  status: ('A' for Active; 'I' for Inactive)
REMARK    1  A    between atoms: C_8  and  N_9 
REMARK       I    between atoms: N_9  and  C_10 
REMARK       I    between atoms: C_10  and  N_11 
REMARK    2  A    between atoms: N_11  and  C_12 
REMARK    3  A    between atoms: C_13  and  O_14 
REMARK    4  A    between atoms: O_14  and  C_15 
REMARK    5  A    between atoms: C_15  and  C_16 
ROOT
HETATM    1  N   UNL     1      41.345 -14.091   0.778  1.00  0.00    -0.305 N 
HETATM    2  C   UNL     1      41.391 -15.343   1.363  1.00  0.00     0.325 C 
HETATM    3  N   UNL     1      42.703 -15.706   1.610  1.00  0.00    -0.306 N 
HETATM    4  O   UNL     1      40.417 -16.031   1.640  1.00  0.00    -0.247 OA
HETATM    5  H   UNL     1      42.074 -13.454   1.064  1.00  0.00     0.171 HD
HETATM    6  H   UNL     1      43.393 -15.326   0.973  1.00  0.00     0.171 HD
ENDROOT
BRANCH   3   7
HETATM    7  C   UNL     1      43.138 -16.787   2.403  1.00  0.00     0.070 A 
HETATM    8  C   UNL     1      43.338 -16.558   3.775  1.00  0.00     0.097 A 
HETATM    9  C   UNL     1      43.693 -17.599   4.635  1.00  0.00     0.063 A 
HETATM   10  C   UNL     1      43.882 -18.877   4.112  1.00  0.00     0.036 A 
HETATM   11 CL   UNL     1      44.324 -20.168   5.159  1.00  0.00    -0.084 Cl
HETATM   12  C   UNL     1      43.714 -19.116   2.750  1.00  0.00     0.026 A 
HETATM   13  C   UNL     1      43.338 -18.073   1.896  1.00  0.00     0.034 A 
BRANCH   8  14
HETATM   14  O   UNL     1      43.156 -15.284   4.256  1.00  0.00    -0.340 OA
BRANCH  14  15
HETATM   15  C   UNL     1      42.455 -15.302   5.516  1.00  0.00     0.293 C 
BRANCH  15  16
HETATM   16  C   UNL     1      40.954 -15.261   5.282  1.00  0.00     0.408 C 
HETATM   17  F   UNL     1      40.625 -14.307   4.381  1.00  0.00    -0.169 F 
HETATM   18  F   UNL     1      40.488 -16.442   4.823  1.00  0.00    -0.169 F 
HETATM   19  F   UNL     1      40.298 -14.981   6.431  1.00  0.00    -0.169 F 
ENDBRANCH  15  16
ENDBRANCH  14  15
ENDBRANCH   8  14
ENDBRANCH   3   7
BRANCH   1  20
HETATM   20  C   UNL     1      40.213 -13.519   0.222  1.00  0.00     0.086 A 
HETATM   21  C   UNL     1      39.365 -12.691   0.929  1.00  0.00     0.052 A 
HETATM   22  C   UNL     1      39.348 -12.238   2.339  1.00  0.00     0.072 C 
HETATM   23  N   UNL     1      38.382 -12.332   0.048  1.00  0.00    -0.280 N 
HETATM   24  H   UNL     1      37.571 -11.747   0.218  1.00  0.00     0.189 HD
HETATM   25  N   UNL     1      38.549 -12.827  -1.183  1.00  0.00    -0.177 NA
HETATM   26  C   UNL     1      39.672 -13.556  -1.094  1.00  0.00     0.079 A 
HETATM   27  C   UNL     1      40.199 -14.205  -2.322  1.00  0.00     0.075 C 
ENDBRANCH   1  20
TORSDOF 5
ENDMDL
MODEL 3
REMARK VINA RESULT:      -7.5      1.396      2.304
REMARK  5 active torsions:
REMARK  status: ('A' for Active; 'I' for Inactive)
REMARK    1  A    between atoms: C_8  and  N_9 
REMARK       I    between atoms: N_9  and  C_10 
REMARK       I    between atoms: C_10  and  N_11 
REMARK    2  A    between atoms: N_11  and  C_12 
REMARK    3  A    between atoms: C_13  and  O_14 
REMARK    4  A    between atoms: O_14  and  C_15 
REMARK    5  A    between atoms: C_15  and  C_16 
ROOT
HETATM    1  N   UNL     1      41.967 -13.554   3.666  1.00  0.00    -0.305 N 
HETATM    2  C   UNL     1      41.834 -14.914   3.461  1.00  0.00     0.325 C 
HETATM    3  N   UNL     1      43.081 -15.505   3.352  1.00  0.00    -0.306 N 
HETATM    4  O   UNL     1      40.772 -15.520   3.398  1.00  0.00    -0.247 OA
HETATM    5  H   UNL     1      42.783 -13.274   4.190  1.00  0.00     0.171 HD
HETATM    6  H   UNL     1      43.815 -14.918   2.972  1.00  0.00     0.171 HD
ENDROOT
BRANCH   3   7
HETATM    7  C   UNL     1      43.360 -16.886   3.381  1.00  0.00     0.070 A 
HETATM    8  C   UNL     1      43.916 -17.422   4.555  1.00  0.00     0.097 A 
HETATM    9  C   UNL     1      44.145 -18.793   4.683  1.00  0.00     0.063 A 
HETATM   10  C   UNL     1      43.846 -19.634   3.613  1.00  0.00     0.036 A 
HETATM   11 CL   UNL     1      44.129 -21.325   3.754  1.00  0.00    -0.084 Cl
HETATM   12  C   UNL     1      43.320 -19.116   2.431  1.00  0.00     0.026 A 
HETATM   13  C   UNL     1      43.073 -17.743   2.317  1.00  0.00     0.034 A 
BRANCH   8  14
HETATM   14  O   UNL     1      44.210 -16.563   5.586  1.00  0.00    -0.340 OA
BRANCH  14  15
HETATM   15  C   UNL     1      43.555 -16.974   6.804  1.00  0.00     0.293 C 
BRANCH  15  16
HETATM   16  C   UNL     1      42.689 -15.846   7.340  1.00  0.00     0.408 C 
HETATM   17  F   UNL     1      41.376 -16.165   7.280  1.00  0.00    -0.169 F 
HETATM   18  F   UNL     1      42.987 -15.556   8.625  1.00  0.00    -0.169 F 
HETATM   19  F   UNL     1      42.870 -14.718   6.615  1.00  0.00    -0.169 F 
ENDBRANCH  15  16
ENDBRANCH  14  15
ENDBRANCH   8  14
ENDBRANCH   3   7
BRANCH   1  20
HETATM   20  C   UNL     1      40.927 -12.642   3.616  1.00  0.00     0.086 A 
HETATM   21  C   UNL     1      40.109 -12.374   4.696  1.00  0.00     0.052 A 
HETATM   22  C   UNL     1      40.042 -12.931   6.066  1.00  0.00     0.072 C 
HETATM   23  N   UNL     1      39.219 -11.432   4.259  1.00  0.00    -0.280 N 
HETATM   24  H   UNL     1      38.453 -11.009   4.772  1.00  0.00     0.189 HD
HETATM   25  N   UNL     1      39.422 -11.037   2.998  1.00  0.00    -0.177 NA
HETATM   26  C   UNL     1      40.469 -11.768   2.588  1.00  0.00     0.079 A 
HETATM   27  C   UNL     1      41.016 -11.531   1.228  1.00  0.00     0.075 C 
ENDBRANCH   1  20
TORSDOF 5
ENDMDL
MODEL 4
REMARK VINA RESULT:      -7.4      3.457      6.437
REMARK  5 active torsions:
REMARK  status: ('A' for Active; 'I' for Inactive)
REMARK    1  A    between atoms: C_8  and  N_9 
REMARK       I    between atoms: N_9  and  C_10 
REMARK       I    between atoms: C_10  and  N_11 
REMARK    2  A    between atoms: N_11  and  C_12 
REMARK    3  A    between atoms: C_13  and  O_14 
REMARK    4  A    between atoms: O_14  and  C_15 
REMARK    5  A    between atoms: C_15  and  C_16 
ROOT
HETATM    1  N   UNL     1      43.518 -17.474   2.477  1.00  0.00    -0.305 N 
HETATM    2  C   UNL     1      42.460 -16.586   2.540  1.00  0.00     0.325 C 
HETATM    3  N   UNL     1      42.664 -15.538   1.660  1.00  0.00    -0.306 N 
HETATM    4  O   UNL     1      41.474 -16.710   3.255  1.00  0.00    -0.247 OA
HETATM    5  H   UNL     1      43.956 -17.560   1.573  1.00  0.00     0.171 HD
HETATM    6  H   UNL     1      43.631 -15.294   1.482  1.00  0.00     0.171 HD
ENDROOT
BRANCH   3   7
HETATM    7  C   UNL     1      41.711 -14.577   1.266  1.00  0.00     0.070 A 
HETATM    8  C   UNL     1      41.879 -13.258   1.720  1.00  0.00     0.097 A 
HETATM    9  C   UNL     1      41.020 -12.238   1.307  1.00  0.00     0.063 A 
HETATM   10  C   UNL     1      39.960 -12.547   0.457  1.00  0.00     0.036 A 
HETATM   11 CL   UNL     1      38.889 -11.302  -0.056  1.00  0.00    -0.084 Cl
HETATM   12  C   UNL     1      39.762 -13.855   0.019  1.00  0.00     0.026 A 
HETATM   13  C   UNL     1      40.639 -14.869   0.420  1.00  0.00     0.034 A 
BRANCH   8  14
HETATM   14  O   UNL     1      42.928 -12.990   2.568  1.00  0.00    -0.340 OA
BRANCH  14  15
HETATM   15  C   UNL     1      42.464 -12.366   3.783  1.00  0.00     0.293 C 
BRANCH  15  16
HETATM   16  C   UNL     1      42.298 -13.408   4.876  1.00  0.00     0.408 C 
HETATM   17  F   UNL     1      41.093 -14.019   4.792  1.00  0.00    -0.169 F 
HETATM   18  F   UNL     1      43.251 -14.362   4.806  1.00  0.00    -0.169 F 
HETATM   19  F   UNL     1      42.382 -12.837   6.099  1.00  0.00    -0.169 F 
ENDBRANCH  15  16
ENDBRANCH  14  15
ENDBRANCH   8  14
ENDBRANCH   3   7
BRANCH   1  20
HETATM   20  C   UNL     1      43.728 -18.517   3.363  1.00  0.00     0.086 A 
HETATM   21  C   UNL     1      43.761 -19.840   2.972  1.00  0.00     0.052 A 
HETATM   22  C   UNL     1      43.559 -20.507   1.665  1.00  0.00     0.072 C 
HETATM   23  N   UNL     1      43.990 -20.557   4.115  1.00  0.00    -0.280 N 
HETATM   24  H   UNL     1      44.056 -21.563   4.221  1.00  0.00     0.189 HD
HETATM   25  N   UNL     1      44.151 -19.801   5.206  1.00  0.00    -0.177 NA
HETATM   26  C   UNL     1      43.995 -18.544   4.762  1.00  0.00     0.079 A 
HETATM   27  C   UNL     1      44.181 -17.423   5.717  1.00  0.00     0.075 C 
ENDBRANCH   1  20
TORSDOF 5
ENDMDL
MODEL 5
REMARK VINA RESULT:      -7.2      3.662      6.900
REMARK  5 active torsions:
REMARK  status: ('A' for Active; 'I' for Inactive)
REMARK    1  A    between atoms: C_8  and  N_9 
REMARK       I    between atoms: N_9  and  C_10 
REMARK       I    between atoms: C_10  and  N_11 
REMARK    2  A    between atoms: N_11  and  C_12 
REMARK    3  A    between atoms: C_13  and  O_14 
REMARK    4  A    between atoms: O_14  and  C_15 
REMARK    5  A    between atoms: C_15  and  C_16 
ROOT
HETATM    1  N   UNL     1      41.878 -16.380   3.269  1.00  0.00    -0.305 N 
HETATM    2  C   UNL     1      41.822 -15.805   2.013  1.00  0.00     0.325 C 
HETATM    3  N   UNL     1      40.545 -15.337   1.759  1.00  0.00    -0.306 N 
HETATM    4  O   UNL     1      42.765 -15.705   1.238  1.00  0.00    -0.247 OA
HETATM    5  H   UNL     1      41.269 -15.968   3.960  1.00  0.00     0.171 HD
HETATM    6  H   UNL     1      39.793 -15.842   2.212  1.00  0.00     0.171 HD
ENDROOT
BRANCH   3   7
HETATM    7  C   UNL     1      40.159 -14.487   0.703  1.00  0.00     0.070 A 
HETATM    8  C   UNL     1      40.265 -13.100   0.900  1.00  0.00     0.097 A 
HETATM    9  C   UNL     1      39.975 -12.201  -0.128  1.00  0.00     0.063 A 
HETATM   10  C   UNL     1      39.541 -12.693  -1.356  1.00  0.00     0.036 A 
HETATM   11 CL   UNL     1      39.174 -11.598  -2.631  1.00  0.00    -0.084 Cl
HETATM   12  C   UNL     1      39.403 -14.065  -1.562  1.00  0.00     0.026 A 
HETATM   13  C   UNL     1      39.716 -14.962  -0.534  1.00  0.00     0.034 A 
BRANCH   8  14
HETATM   14  O   UNL     1      40.684 -12.648   2.129  1.00  0.00    -0.340 OA
BRANCH  14  15
HETATM   15  C   UNL     1      41.927 -11.924   2.017  1.00  0.00     0.293 C 
BRANCH  15  16
HETATM   16  C   UNL     1      42.897 -12.379   3.094  1.00  0.00     0.408 C 
HETATM   17  F   UNL     1      43.877 -13.154   2.575  1.00  0.00    -0.169 F 
HETATM   18  F   UNL     1      43.482 -11.331   3.713  1.00  0.00    -0.169 F 
HETATM   19  F   UNL     1      42.257 -13.106   4.038  1.00  0.00    -0.169 F 
ENDBRANCH  15  16
ENDBRANCH  14  15
ENDBRANCH   8  14
ENDBRANCH   3   7
BRANCH   1  20
HETATM   20  C   UNL     1      42.944 -17.120   3.753  1.00  0.00     0.086 A 
HETATM   21  C   UNL     1      43.645 -16.773   4.890  1.00  0.00     0.052 A 
HETATM   22  C   UNL     1      43.545 -15.625   5.820  1.00  0.00     0.072 C 
HETATM   23  N   UNL     1      44.605 -17.736   5.039  1.00  0.00    -0.280 N 
HETATM   24  H   UNL     1      45.322 -17.800   5.754  1.00  0.00     0.189 HD
HETATM   25  N   UNL     1      44.554 -18.701   4.115  1.00  0.00    -0.177 NA
HETATM   26  C   UNL     1      43.537 -18.339   3.318  1.00  0.00     0.079 A 
HETATM   27  C   UNL     1      43.151 -19.240   2.202  1.00  0.00     0.075 C 
ENDBRANCH   1  20
TORSDOF 5
ENDMDL
MODEL 6
REMARK VINA RESULT:      -7.1      2.346      3.422
REMARK  5 active torsions:
REMARK  status: ('A' for Active; 'I' for Inactive)
REMARK    1  A    between atoms: C_8  and  N_9 
REMARK       I    between atoms: N_9  and  C_10 
REMARK       I    between atoms: C_10  and  N_11 
REMARK    2  A    between atoms: N_11  and  C_12 
REMARK    3  A    between atoms: C_13  and  O_14 
REMARK    4  A    between atoms: O_14  and  C_15 
REMARK    5  A    between atoms: C_15  and  C_16 
ROOT
HETATM    1  N   UNL     1      39.304 -14.517  -0.287  1.00  0.00    -0.305 N 
HETATM    2  C   UNL     1      40.407 -14.509   0.546  1.00  0.00     0.325 C 
HETATM    3  N   UNL     1      40.341 -15.565   1.436  1.00  0.00    -0.306 N 
HETATM    4  O   UNL     1      41.323 -13.697   0.500  1.00  0.00    -0.247 OA
HETATM    5  H   UNL     1      38.936 -15.431  -0.506  1.00  0.00     0.171 HD
HETATM    6  H   UNL     1      39.409 -15.868   1.693  1.00  0.00     0.171 HD
ENDROOT
BRANCH   3   7
HETATM    7  C   UNL     1      41.382 -16.026   2.269  1.00  0.00     0.070 A 
HETATM    8  C   UNL     1      41.356 -15.652   3.623  1.00  0.00     0.097 A 
HETATM    9  C   UNL     1      42.309 -16.135   4.522  1.00  0.00     0.063 A 
HETATM   10  C   UNL     1      43.318 -16.974   4.055  1.00  0.00     0.036 A 
HETATM   11 CL   UNL     1      44.503 -17.572   5.150  1.00  0.00    -0.084 Cl
HETATM   12  C   UNL     1      43.375 -17.333   2.710  1.00  0.00     0.026 A 
HETATM   13  C   UNL     1      42.404 -16.863   1.818  1.00  0.00     0.034 A 
BRANCH   8  14
HETATM   14  O   UNL     1      40.354 -14.813   4.048  1.00  0.00    -0.340 OA
BRANCH  14  15
HETATM   15  C   UNL     1      40.888 -13.540   4.468  1.00  0.00     0.293 C 
BRANCH  15  16
HETATM   16  C   UNL     1      40.248 -13.110   5.776  1.00  0.00     0.408 C 
HETATM   17  F   UNL     1      40.260 -14.115   6.682  1.00  0.00    -0.169 F 
HETATM   18  F   UNL     1      40.890 -12.054   6.322  1.00  0.00    -0.169 F 
HETATM   19  F   UNL     1      38.959 -12.748   5.583  1.00  0.00    -0.169 F 
ENDBRANCH  15  16
ENDBRANCH  14  15
ENDBRANCH   8  14
ENDBRANCH   3   7
BRANCH   1  20
HETATM   20  C   UNL     1      38.959 -13.493  -1.151  1.00  0.00     0.086 A 
HETATM   21  C   UNL     1      38.629 -13.705  -2.475  1.00  0.00     0.052 A 
HETATM   22  C   UNL     1      38.590 -14.922  -3.318  1.00  0.00     0.072 C 
HETATM   23  N   UNL     1      38.350 -12.468  -2.988  1.00  0.00    -0.280 N 
HETATM   24  H   UNL     1      38.091 -12.227  -3.939  1.00  0.00     0.189 HD
HETATM   25  N   UNL     1      38.431 -11.478  -2.092  1.00  0.00    -0.177 NA
HETATM   26  C   UNL     1      38.801 -12.090  -0.957  1.00  0.00     0.079 A 
HETATM   27  C   UNL     1      38.920 -11.282   0.282  1.00  0.00     0.075 C 
ENDBRANCH   1  20
TORSDOF 5
ENDMDL
MODEL 7
REMARK VINA RESULT:      -7.0      3.447      4.878
REMARK  5 active torsions:
REMARK  status: ('A' for Active; 'I' for Inactive)
REMARK    1  A    between atoms: C_8  and  N_9 
REMARK       I    between atoms: N_9  and  C_10 
REMARK       I    between atoms: C_10  and  N_11 
REMARK    2  A    between atoms: N_11  and  C_12 
REMARK    3  A    between atoms: C_13  and  O_14 
REMARK    4  A    between atoms: O_14  and  C_15 
REMARK    5  A    between atoms: C_15  and  C_16 
ROOT
HETATM    1  N   UNL     1      41.066 -13.172  -0.965  1.00  0.00    -0.305 N 
HETATM    2  C   UNL     1      40.985 -13.015   0.406  1.00  0.00     0.325 C 
HETATM    3  N   UNL     1      41.927 -13.809   1.034  1.00  0.00    -0.306 N 
HETATM    4  O   UNL     1      40.206 -12.270   0.988  1.00  0.00    -0.247 OA
HETATM    5  H   UNL     1      41.990 -13.361  -1.324  1.00  0.00     0.171 HD
HETATM    6  H   UNL     1      42.175 -14.664   0.552  1.00  0.00     0.171 HD
ENDROOT
BRANCH   3   7
HETATM    7  C   UNL     1      42.311 -13.742   2.389  1.00  0.00     0.070 A 
HETATM    8  C   UNL     1      42.408 -14.946   3.107  1.00  0.00     0.097 A 
HETATM    9  C   UNL     1      42.858 -14.963   4.429  1.00  0.00     0.063 A 
HETATM   10  C   UNL     1      43.182 -13.759   5.050  1.00  0.00     0.036 A 
HETATM   11 CL   UNL     1      43.732 -13.764   6.680  1.00  0.00    -0.084 Cl
HETATM   12  C   UNL     1      43.066 -12.553   4.362  1.00  0.00     0.026 A 
HETATM   13  C   UNL     1      42.635 -12.545   3.031  1.00  0.00     0.034 A 
BRANCH   8  14
HETATM   14  O   UNL     1      42.068 -16.114   2.467  1.00  0.00    -0.340 OA
BRANCH  14  15
HETATM   15  C   UNL     1      43.244 -16.820   2.021  1.00  0.00     0.293 C 
BRANCH  15  16
HETATM   16  C   UNL     1      43.296 -18.201   2.652  1.00  0.00     0.408 C 
HETATM   17  F   UNL     1      44.536 -18.736   2.560  1.00  0.00    -0.169 F 
HETATM   18  F   UNL     1      42.957 -18.167   3.958  1.00  0.00    -0.169 F 
HETATM   19  F   UNL     1      42.440 -19.044   2.030  1.00  0.00    -0.169 F 
ENDBRANCH  15  16
ENDBRANCH  14  15
ENDBRANCH   8  14
ENDBRANCH   3   7
BRANCH   1  20
HETATM   20  C   UNL     1      40.143 -12.683  -1.873  1.00  0.00     0.086 A 
HETATM   21  C   UNL     1      39.174 -13.472  -2.460  1.00  0.00     0.052 A 
HETATM   22  C   UNL     1      38.869 -14.918  -2.372  1.00  0.00     0.072 C 
HETATM   23  N   UNL     1      38.466 -12.638  -3.280  1.00  0.00    -0.280 N 
HETATM   24  H   UNL     1      37.690 -12.869  -3.891  1.00  0.00     0.189 HD
HETATM   25  N   UNL     1      38.871 -11.364  -3.239  1.00  0.00    -0.177 NA
HETATM   26  C   UNL     1      39.899 -11.373  -2.377  1.00  0.00     0.079 A 
HETATM   27  C   UNL     1      40.555 -10.085  -2.036  1.00  0.00     0.075 C 
ENDBRANCH   1  20
TORSDOF 5
ENDMDL
MODEL 8
REMARK VINA RESULT:      -7.0      5.074      6.759
REMARK  5 active torsions:
REMARK  status: ('A' for Active; 'I' for Inactive)
REMARK    1  A    between atoms: C_8  and  N_9 
REMARK       I    between atoms: N_9  and  C_10 
REMARK       I    between atoms: C_10  and  N_11 
REMARK    2  A    between atoms: N_11  and  C_12 
REMARK    3  A    between atoms: C_13  and  O_14 
REMARK    4  A    between atoms: O_14  and  C_15 
REMARK    5  A    between atoms: C_15  and  C_16 
ROOT
HETATM    1  N   UNL     1      42.830 -10.667   7.605  1.00  0.00    -0.305 N 
HETATM    2  C   UNL     1      42.741 -11.243   6.352  1.00  0.00     0.325 C 
HETATM    3  N   UNL     1      41.948 -12.375   6.403  1.00  0.00    -0.306 N 
HETATM    4  O   UNL     1      43.270 -10.812   5.335  1.00  0.00    -0.247 OA
HETATM    5  H   UNL     1      42.012 -10.770   8.187  1.00  0.00     0.171 HD
HETATM    6  H   UNL     1      41.948 -12.875   7.284  1.00  0.00     0.171 HD
ENDROOT
BRANCH   3   7
HETATM    7  C   UNL     1      41.430 -13.086   5.301  1.00  0.00     0.070 A 
HETATM    8  C   UNL     1      41.966 -14.355   5.025  1.00  0.00     0.097 A 
HETATM    9  C   UNL     1      41.449 -15.149   3.999  1.00  0.00     0.063 A 
HETATM   10  C   UNL     1      40.407 -14.654   3.218  1.00  0.00     0.036 A 
HETATM   11 CL   UNL     1      39.763 -15.617   1.947  1.00  0.00    -0.084 Cl
HETATM   12  C   UNL     1      39.881 -13.386   3.460  1.00  0.00     0.026 A 
HETATM   13  C   UNL     1      40.390 -12.604   4.504  1.00  0.00     0.034 A 
BRANCH   8  14
HETATM   14  O   UNL     1      43.002 -14.808   5.806  1.00  0.00    -0.340 OA
BRANCH  14  15
HETATM   15  C   UNL     1      42.839 -16.206   6.122  1.00  0.00     0.293 C 
BRANCH  15  16
HETATM   16  C   UNL     1      44.081 -16.983   5.720  1.00  0.00     0.408 C 
HETATM   17  F   UNL     1      45.201 -16.404   6.212  1.00  0.00    -0.169 F 
HETATM   18  F   UNL     1      44.041 -18.256   6.169  1.00  0.00    -0.169 F 
HETATM   19  F   UNL     1      44.202 -17.028   4.374  1.00  0.00    -0.169 F 
ENDBRANCH  15  16
ENDBRANCH  14  15
ENDBRANCH   8  14
ENDBRANCH   3   7
BRANCH   1  20
HETATM   20  C   UNL     1      43.701  -9.646   7.945  1.00  0.00     0.086 A 
HETATM   21  C   UNL     1      43.275  -8.414   8.399  1.00  0.00     0.052 A 
HETATM   22  C   UNL     1      41.930  -7.828   8.599  1.00  0.00     0.072 C 
HETATM   23  N   UNL     1      44.413  -7.691   8.628  1.00  0.00    -0.280 N 
HETATM   24  H   UNL     1      44.493  -6.732   8.947  1.00  0.00     0.189 HD
HETATM   25  N   UNL     1      45.543  -8.370   8.399  1.00  0.00    -0.177 NA
HETATM   26  C   UNL     1      45.123  -9.574   7.982  1.00  0.00     0.079 A 
HETATM   27  C   UNL     1      46.136 -10.623   7.699  1.00  0.00     0.075 C 
ENDBRANCH   1  20
TORSDOF 5
ENDMDL
MODEL 9
REMARK VINA RESULT:      -6.9      4.834      8.121
REMARK  5 active torsions:
REMARK  status: ('A' for Active; 'I' for Inactive)
REMARK    1  A    between atoms: C_8  and  N_9 
REMARK       I    between atoms: N_9  and  C_10 
REMARK       I    between atoms: C_10  and  N_11 
REMARK    2  A    between atoms: N_11  and  C_12 
REMARK    3  A    between atoms: C_13  and  O_14 
REMARK    4  A    between atoms: O_14  and  C_15 
REMARK    5  A    between atoms: C_15  and  C_16 
ROOT
HETATM    1  N   UNL     1      41.292 -16.095   4.244  1.00  0.00    -0.305 N 
HETATM    2  C   UNL     1      41.314 -14.842   3.661  1.00  0.00     0.325 C 
HETATM    3  N   UNL     1      40.047 -14.494   3.228  1.00  0.00    -0.306 N 
HETATM    4  O   UNL     1      42.303 -14.129   3.553  1.00  0.00    -0.247 OA
HETATM    5  H   UNL     1      40.436 -16.333   4.722  1.00  0.00     0.171 HD
HETATM    6  H   UNL     1      39.448 -15.264   2.952  1.00  0.00     0.171 HD
ENDROOT
BRANCH   3   7
HETATM    7  C   UNL     1      39.625 -13.216   2.809  1.00  0.00     0.070 A 
HETATM    8  C   UNL     1      39.487 -12.987   1.430  1.00  0.00     0.097 A 
HETATM    9  C   UNL     1      38.999 -11.771   0.947  1.00  0.00     0.063 A 
HETATM   10  C   UNL     1      38.678 -10.761   1.851  1.00  0.00     0.036 A 
HETATM   11 CL   UNL     1      38.081  -9.256   1.270  1.00  0.00    -0.084 Cl
HETATM   12  C   UNL     1      38.835 -10.961   3.221  1.00  0.00     0.026 A 
HETATM   13  C   UNL     1      39.304 -12.190   3.700  1.00  0.00     0.034 A 
BRANCH   8  14
HETATM   14  O   UNL     1      39.824 -14.000   0.565  1.00  0.00    -0.340 OA
BRANCH  14  15
HETATM   15  C   UNL     1      39.981 -13.501  -0.779  1.00  0.00     0.293 C 
BRANCH  15  16
HETATM   16  C   UNL     1      39.241 -14.395  -1.760  1.00  0.00     0.408 C 
HETATM   17  F   UNL     1      39.909 -14.497  -2.932  1.00  0.00    -0.169 F 
HETATM   18  F   UNL     1      39.074 -15.643  -1.270  1.00  0.00    -0.169 F 
HETATM   19  F   UNL     1      38.013 -13.896  -2.030  1.00  0.00    -0.169 F 
ENDBRANCH  15  16
ENDBRANCH  14  15
ENDBRANCH   8  14
ENDBRANCH   3   7
BRANCH   1  20
HETATM   20  C   UNL     1      42.415 -16.822   4.597  1.00  0.00     0.086 A 
HETATM   21  C   UNL     1      42.887 -16.896   5.892  1.00  0.00     0.052 A 
HETATM   22  C   UNL     1      42.446 -16.267   7.158  1.00  0.00     0.072 C 
HETATM   23  N   UNL     1      43.994 -17.697   5.836  1.00  0.00    -0.280 N 
HETATM   24  H   UNL     1      44.616 -17.960   6.593  1.00  0.00     0.189 HD
HETATM   25  N   UNL     1      44.251 -18.183   4.617  1.00  0.00    -0.177 NA
HETATM   26  C   UNL     1      43.289 -17.658   3.844  1.00  0.00     0.079 A 
HETATM   27  C   UNL     1      43.231 -18.051   2.413  1.00  0.00     0.075 C 
ENDBRANCH   1  20
TORSDOF 5
ENDMDL
MODEL 10
REMARK VINA RESULT:      -6.9      2.323      3.331
REMARK  5 active torsions:
REMARK  status: ('A' for Active; 'I' for Inactive)
REMARK    1  A    between atoms: C_8  and  N_9 
REMARK       I    between atoms: N_9  and  C_10 
REMARK       I    between atoms: C_10  and  N_11 
REMARK    2  A    between atoms: N_11  and  C_12 
REMARK    3  A    between atoms: C_13  and  O_14 
REMARK    4  A    between atoms: O_14  and  C_15 
REMARK    5  A    between atoms: C_15  and  C_16 
ROOT
HETATM    1  N   UNL     1      39.538 -14.106   0.309  1.00  0.00    -0.305 N 
HETATM    2  C   UNL     1      40.657 -14.343   1.085  1.00  0.00     0.325 C 
HETATM    3  N   UNL     1      40.463 -15.463   1.874  1.00  0.00    -0.306 N 
HETATM    4  O   UNL     1      41.683 -13.674   1.072  1.00  0.00    -0.247 OA
HETATM    5  H   UNL     1      39.030 -14.929   0.023  1.00  0.00     0.171 HD
HETATM    6  H   UNL     1      39.505 -15.650   2.145  1.00  0.00     0.171 HD
ENDROOT
BRANCH   3   7
HETATM    7  C   UNL     1      41.449 -16.153   2.608  1.00  0.00     0.070 A 
HETATM    8  C   UNL     1      41.468 -15.987   4.003  1.00  0.00     0.097 A 
HETATM    9  C   UNL     1      42.365 -16.700   4.801  1.00  0.00     0.063 A 
HETATM   10  C   UNL     1      43.276 -17.562   4.195  1.00  0.00     0.036 A 
HETATM   11 CL   UNL     1      44.391 -18.442   5.164  1.00  0.00    -0.084 Cl
HETATM   12  C   UNL     1      43.290 -17.718   2.810  1.00  0.00     0.026 A 
HETATM   13  C   UNL     1      42.374 -17.017   2.017  1.00  0.00     0.034 A 
BRANCH   8  14
HETATM   14  O   UNL     1      40.564 -15.120   4.568  1.00  0.00    -0.340 OA
BRANCH  14  15
HETATM   15  C   UNL     1      41.185 -14.327   5.601  1.00  0.00     0.293 C 
BRANCH  15  16
HETATM   16  C   UNL     1      41.637 -12.991   5.036  1.00  0.00     0.408 C 
HETATM   17  F   UNL     1      42.942 -13.027   4.677  1.00  0.00    -0.169 F 
HETATM   18  F   UNL     1      40.919 -12.641   3.947  1.00  0.00    -0.169 F 
HETATM   19  F   UNL     1      41.492 -12.009   5.954  1.00  0.00    -0.169 F 
ENDBRANCH  15  16
ENDBRANCH  14  15
ENDBRANCH   8  14
ENDBRANCH   3   7
BRANCH   1  20
HETATM   20  C   UNL     1      39.322 -12.960  -0.437  1.00  0.00     0.086 A 
HETATM   21  C   UNL     1      38.714 -11.833   0.077  1.00  0.00     0.052 A 
HETATM   22  C   UNL     1      38.121 -11.526   1.399  1.00  0.00     0.072 C 
HETATM   23  N   UNL     1      38.686 -10.929  -0.949  1.00  0.00    -0.280 N 
HETATM   24  H   UNL     1      38.293  -9.994  -0.950  1.00  0.00     0.189 HD
HETATM   25  N   UNL     1      39.265 -11.365  -2.073  1.00  0.00    -0.177 NA
HETATM   26  C   UNL     1      39.664 -12.611  -1.775  1.00  0.00     0.079 A 
HETATM   27  C   UNL     1      40.421 -13.380  -2.795  1.00  0.00     0.075 C 
ENDBRANCH   1  20
TORSDOF 5
ENDMDL
