MODEL 1
REMARK VINA RESULT:      -8.5      0.000      0.000
REMARK  4 active torsions:
REMARK  status: ('A' for Active; 'I' for Inactive)
REMARK    1  A    between atoms: C_9  and  C_10 
REMARK       I    between atoms: C_10  and  N_11 
REMARK    2  A    between atoms: N_11  and  C_12 
REMARK    3  A    between atoms: C_12  and  C_13 
REMARK    4  A    between atoms: C_14  and  O_15 
ROOT
HETATM    1  C   UNL     1      43.211 -12.724   6.293  1.00  0.00     0.273 C 
HETATM    2  N   UNL     1      43.562 -14.052   6.230  1.00  0.00    -0.347 N 
HETATM    3  O   UNL     1      42.064 -12.303   6.180  1.00  0.00    -0.266 OA
HETATM    4  H   UNL     1      44.540 -14.231   6.442  1.00  0.00     0.163 HD
ENDROOT
BRANCH   1   5
HETATM    5  C   UNL     1      44.364 -11.839   6.535  1.00  0.00     0.157 A 
HETATM    6  C   UNL     1      44.604 -11.029   7.685  1.00  0.00     0.029 A 
HETATM    7  C   UNL     1      43.935 -10.762   8.896  1.00  0.00     0.023 A 
HETATM    8  C   UNL     1      45.816 -10.399   7.437  1.00  0.00     0.063 A 
HETATM    9  C   UNL     1      44.506  -9.871   9.821  1.00  0.00    -0.061 A 
HETATM   10  C   UNL     1      43.809  -9.571  11.117  1.00  0.00     0.048 C 
HETATM   11  C   UNL     1      45.732  -9.258   9.532  1.00  0.00     0.009 A 
HETATM   12  C   UNL     1      46.413  -9.509   8.335  1.00  0.00     0.032 A 
HETATM   13  N   UNL     1      46.212 -10.849   6.208  1.00  0.00    -0.277 N 
HETATM   14  H   UNL     1      47.056 -10.599   5.707  1.00  0.00     0.189 HD
HETATM   15  N   UNL     1      45.364 -11.720   5.632  1.00  0.00    -0.168 NA
ENDBRANCH   1   5
BRANCH   2  16
HETATM   16  C   UNL     1      42.669 -15.198   6.121  1.00  0.00     0.116 C 
HETATM   17  C   UNL     1      42.437 -15.946   7.435  1.00  0.00     0.037 C 
BRANCH  16  18
HETATM   18  C   UNL     1      43.040 -16.151   4.991  1.00  0.00    -0.002 A 
HETATM   19  C   UNL     1      42.887 -15.757   3.645  1.00  0.00     0.076 A 
HETATM   20  C   UNL     1      43.220 -16.646   2.617  1.00  0.00     0.038 A 
HETATM   21  C   UNL     1      43.687 -17.930   2.908  1.00  0.00     0.009 A 
HETATM   22  C   UNL     1      43.822 -18.347   4.231  1.00  0.00    -0.061 A 
HETATM   23  C   UNL     1      44.308 -19.727   4.564  1.00  0.00     0.048 C 
HETATM   24  C   UNL     1      43.488 -17.459   5.261  1.00  0.00     0.018 A 
BRANCH  19  25
HETATM   25  O   UNL     1      42.410 -14.487   3.439  1.00  0.00    -0.355 OA
HETATM   26  C   UNL     1      43.177 -13.626   2.607  1.00  0.00     0.210 C 
ENDBRANCH  19  25
ENDBRANCH  16  18
ENDBRANCH   2  16
TORSDOF 4
ENDMDL
MODEL 2
REMARK VINA RESULT:      -7.8      3.998      5.094
REMARK  4 active torsions:
REMARK  status: ('A' for Active; 'I' for Inactive)
REMARK    1  A    between atoms: C_9  and  C_10 
REMARK       I    between atoms: C_10  and  N_11 
REMARK    2  A    between atoms: N_11  and  C_12 
REMARK    3  A    between atoms: C_12  and  C_13 
REMARK    4  A    between atoms: C_14  and  O_15 
ROOT
HETATM    1  C   UNL     1      42.446 -13.539   4.042  1.00  0.00     0.273 C 
HETATM    2  N   UNL     1      42.436 -14.897   3.828  1.00  0.00    -0.347 N 
HETATM    3  O   UNL     1      43.219 -12.756   3.501  1.00  0.00    -0.266 OA
HETATM    4  H   UNL     1      41.666 -15.382   4.281  1.00  0.00     0.163 HD
ENDROOT
BRANCH   1   5
HETATM    5  C   UNL     1      41.402 -13.102   4.987  1.00  0.00     0.157 A 
HETATM    6  C   UNL     1      40.505 -12.004   4.835  1.00  0.00     0.029 A 
HETATM    7  C   UNL     1      40.273 -11.009   3.865  1.00  0.00     0.023 A 
HETATM    8  C   UNL     1      39.719 -12.017   5.980  1.00  0.00     0.063 A 
HETATM    9  C   UNL     1      39.259 -10.059   4.074  1.00  0.00    -0.061 A 
HETATM   10  C   UNL     1      38.996  -8.989   3.053  1.00  0.00     0.048 C 
HETATM   11  C   UNL     1      38.488 -10.110   5.243  1.00  0.00     0.009 A 
HETATM   12  C   UNL     1      38.701 -11.090   6.220  1.00  0.00     0.032 A 
HETATM   13  N   UNL     1      40.173 -13.076   6.717  1.00  0.00    -0.277 N 
HETATM   14  H   UNL     1      39.829 -13.388   7.617  1.00  0.00     0.189 HD
HETATM   15  N   UNL     1      41.187 -13.756   6.151  1.00  0.00    -0.168 NA
ENDBRANCH   1   5
BRANCH   2  16
HETATM   16  C   UNL     1      43.243 -15.647   2.874  1.00  0.00     0.116 C 
HETATM   17  C   UNL     1      42.749 -15.571   1.429  1.00  0.00     0.037 C 
BRANCH  16  18
HETATM   18  C   UNL     1      43.506 -17.086   3.303  1.00  0.00    -0.002 A 
HETATM   19  C   UNL     1      43.932 -17.374   4.617  1.00  0.00     0.076 A 
HETATM   20  C   UNL     1      44.181 -18.698   4.994  1.00  0.00     0.038 A 
HETATM   21  C   UNL     1      44.031 -19.741   4.076  1.00  0.00     0.009 A 
HETATM   22  C   UNL     1      43.635 -19.475   2.766  1.00  0.00    -0.061 A 
HETATM   23  C   UNL     1      43.482 -20.580   1.763  1.00  0.00     0.048 C 
HETATM   24  C   UNL     1      43.386 -18.150   2.387  1.00  0.00     0.018 A 
BRANCH  19  25
HETATM   25  O   UNL     1      44.070 -16.297   5.455  1.00  0.00    -0.355 OA
HETATM   26  C   UNL     1      43.923 -16.528   6.851  1.00  0.00     0.210 C 
ENDBRANCH  19  25
ENDBRANCH  16  18
ENDBRANCH   2  16
TORSDOF 4
ENDMDL
MODEL 3
REMARK VINA RESULT:      -7.7      4.462      7.956
REMARK  4 active torsions:
REMARK  status: ('A' for Active; 'I' for Inactive)
REMARK    1  A    between atoms: C_9  and  C_10 
REMARK       I    between atoms: C_10  and  N_11 
REMARK    2  A    between atoms: N_11  and  C_12 
REMARK    3  A    between atoms: C_12  and  C_13 
REMARK    4  A    between atoms: C_14  and  O_15 
ROOT
HETATM    1  C   UNL     1      42.413 -14.929   2.525  1.00  0.00     0.273 C 
HETATM    2  N   UNL     1      41.046 -15.000   2.391  1.00  0.00    -0.347 N 
HETATM    3  O   UNL     1      43.141 -14.212   1.845  1.00  0.00    -0.266 OA
HETATM    4  H   UNL     1      40.591 -15.568   3.100  1.00  0.00     0.163 HD
ENDROOT
BRANCH   1   5
HETATM    5  C   UNL     1      42.928 -15.795   3.599  1.00  0.00     0.157 A 
HETATM    6  C   UNL     1      43.259 -17.180   3.508  1.00  0.00     0.029 A 
HETATM    7  C   UNL     1      43.232 -18.166   2.502  1.00  0.00     0.023 A 
HETATM    8  C   UNL     1      43.705 -17.530   4.776  1.00  0.00     0.063 A 
HETATM    9  C   UNL     1      43.653 -19.473   2.801  1.00  0.00    -0.061 A 
HETATM   10  C   UNL     1      43.630 -20.540   1.744  1.00  0.00     0.048 C 
HETATM   11  C   UNL     1      44.097 -19.783   4.094  1.00  0.00     0.009 A 
HETATM   12  C   UNL     1      44.133 -18.819   5.108  1.00  0.00     0.032 A 
HETATM   13  N   UNL     1      43.617 -16.385   5.518  1.00  0.00    -0.277 N 
HETATM   14  H   UNL     1      43.861 -16.268   6.495  1.00  0.00     0.189 HD
HETATM   15  N   UNL     1      43.154 -15.317   4.844  1.00  0.00    -0.168 NA
ENDBRANCH   1   5
BRANCH   2  16
HETATM   16  C   UNL     1      40.201 -14.196   1.517  1.00  0.00     0.116 C 
HETATM   17  C   UNL     1      40.264 -14.589   0.041  1.00  0.00     0.037 C 
BRANCH  16  18
HETATM   18  C   UNL     1      40.387 -12.696   1.707  1.00  0.00    -0.002 A 
HETATM   19  C   UNL     1      39.973 -12.070   2.903  1.00  0.00     0.076 A 
HETATM   20  C   UNL     1      40.139 -10.689   3.059  1.00  0.00     0.038 A 
HETATM   21  C   UNL     1      40.694  -9.917   2.036  1.00  0.00     0.009 A 
HETATM   22  C   UNL     1      41.085 -10.512   0.837  1.00  0.00    -0.061 A 
HETATM   23  C   UNL     1      41.669  -9.697  -0.279  1.00  0.00     0.048 C 
HETATM   24  C   UNL     1      40.920 -11.894   0.679  1.00  0.00     0.018 A 
BRANCH  19  25
HETATM   25  O   UNL     1      39.425 -12.892   3.855  1.00  0.00    -0.355 OA
HETATM   26  C   UNL     1      39.984 -12.845   5.161  1.00  0.00     0.210 C 
ENDBRANCH  19  25
ENDBRANCH  16  18
ENDBRANCH   2  16
TORSDOF 4
ENDMDL
MODEL 4
REMARK VINA RESULT:      -7.6      4.555      8.308
REMARK  4 active torsions:
REMARK  status: ('A' for Active; 'I' for Inactive)
REMARK    1  A    between atoms: C_9  and  C_10 
REMARK       I    between atoms: C_10  and  N_11 
REMARK    2  A    between atoms: N_11  and  C_12 
REMARK    3  A    between atoms: C_12  and  C_13 
REMARK    4  A    between atoms: C_14  and  O_15 
ROOT
HETATM    1  C   UNL     1      40.621 -15.180   2.215  1.00  0.00     0.273 C 
HETATM    2  N   UNL     1      40.916 -14.089   1.432  1.00  0.00    -0.347 N 
HETATM    3  O   UNL     1      39.560 -15.794   2.179  1.00  0.00    -0.266 OA
HETATM    4  H   UNL     1      41.875 -13.764   1.519  1.00  0.00     0.163 HD
ENDROOT
BRANCH   1   5
HETATM    5  C   UNL     1      41.732 -15.562   3.104  1.00  0.00     0.157 A 
HETATM    6  C   UNL     1      42.478 -16.778   3.081  1.00  0.00     0.029 A 
HETATM    7  C   UNL     1      42.466 -17.962   2.317  1.00  0.00     0.023 A 
HETATM    8  C   UNL     1      43.412 -16.649   4.101  1.00  0.00     0.063 A 
HETATM    9  C   UNL     1      43.392 -18.979   2.601  1.00  0.00    -0.061 A 
HETATM   10  C   UNL     1      43.395 -20.250   1.801  1.00  0.00     0.048 C 
HETATM   11  C   UNL     1      44.318 -18.808   3.638  1.00  0.00     0.009 A 
HETATM   12  C   UNL     1      44.348 -17.640   4.410  1.00  0.00     0.032 A 
HETATM   13  N   UNL     1      43.180 -15.418   4.650  1.00  0.00    -0.277 N 
HETATM   14  H   UNL     1      43.676 -14.988   5.421  1.00  0.00     0.189 HD
HETATM   15  N   UNL     1      42.176 -14.731   4.076  1.00  0.00    -0.168 NA
ENDBRANCH   1   5
BRANCH   2  16
HETATM   16  C   UNL     1      40.100 -13.520   0.367  1.00  0.00     0.116 C 
HETATM   17  C   UNL     1      39.765 -14.494  -0.763  1.00  0.00     0.037 C 
BRANCH  16  18
HETATM   18  C   UNL     1      40.641 -12.201  -0.172  1.00  0.00    -0.002 A 
HETATM   19  C   UNL     1      41.142 -11.220   0.711  1.00  0.00     0.076 A 
HETATM   20  C   UNL     1      41.625 -10.008   0.204  1.00  0.00     0.038 A 
HETATM   21  C   UNL     1      41.600  -9.749  -1.169  1.00  0.00     0.009 A 
HETATM   22  C   UNL     1      41.087 -10.695  -2.055  1.00  0.00    -0.061 A 
HETATM   23  C   UNL     1      41.038 -10.429  -3.531  1.00  0.00     0.048 C 
HETATM   24  C   UNL     1      40.602 -11.908  -1.549  1.00  0.00     0.018 A 
BRANCH  19  25
HETATM   25  O   UNL     1      41.119 -11.542   2.044  1.00  0.00    -0.355 OA
HETATM   26  C   UNL     1      42.218 -11.116   2.840  1.00  0.00     0.210 C 
ENDBRANCH  19  25
ENDBRANCH  16  18
ENDBRANCH   2  16
TORSDOF 4
ENDMDL
MODEL 5
REMARK VINA RESULT:      -7.5      1.524      2.581
REMARK  4 active torsions:
REMARK  status: ('A' for Active; 'I' for Inactive)
REMARK    1  A    between atoms: C_9  and  C_10 
REMARK       I    between atoms: C_10  and  N_11 
REMARK    2  A    between atoms: N_11  and  C_12 
REMARK    3  A    between atoms: C_12  and  C_13 
REMARK    4  A    between atoms: C_14  and  O_15 
ROOT
HETATM    1  C   UNL     1      43.988 -11.527   5.454  1.00  0.00     0.273 C 
HETATM    2  N   UNL     1      43.065 -12.450   5.889  1.00  0.00    -0.347 N 
HETATM    3  O   UNL     1      44.099 -11.151   4.292  1.00  0.00    -0.266 OA
HETATM    4  H   UNL     1      43.047 -12.571   6.898  1.00  0.00     0.163 HD
ENDROOT
BRANCH   1   5
HETATM    5  C   UNL     1      44.833 -11.007   6.543  1.00  0.00     0.157 A 
HETATM    6  C   UNL     1      44.399 -10.391   7.754  1.00  0.00     0.029 A 
HETATM    7  C   UNL     1      43.160 -10.057   8.336  1.00  0.00     0.023 A 
HETATM    8  C   UNL     1      45.565 -10.090   8.446  1.00  0.00     0.063 A 
HETATM    9  C   UNL     1      43.131  -9.433   9.594  1.00  0.00    -0.061 A 
HETATM   10  C   UNL     1      41.821  -9.067  10.231  1.00  0.00     0.048 C 
HETATM   11  C   UNL     1      44.331  -9.148  10.259  1.00  0.00     0.009 A 
HETATM   12  C   UNL     1      45.573  -9.470   9.699  1.00  0.00     0.032 A 
HETATM   13  N   UNL     1      46.584 -10.524   7.643  1.00  0.00    -0.277 N 
HETATM   14  H   UNL     1      47.577 -10.468   7.829  1.00  0.00     0.189 HD
HETATM   15  N   UNL     1      46.183 -11.084   6.487  1.00  0.00    -0.168 NA
ENDBRANCH   1   5
BRANCH   2  16
HETATM   16  C   UNL     1      42.003 -13.072   5.110  1.00  0.00     0.116 C 
HETATM   17  C   UNL     1      40.618 -12.992   5.752  1.00  0.00     0.037 C 
BRANCH  16  18
HETATM   18  C   UNL     1      42.333 -14.491   4.661  1.00  0.00    -0.002 A 
HETATM   19  C   UNL     1      42.452 -15.530   5.609  1.00  0.00     0.076 A 
HETATM   20  C   UNL     1      42.767 -16.826   5.185  1.00  0.00     0.038 A 
HETATM   21  C   UNL     1      42.984 -17.100   3.832  1.00  0.00     0.009 A 
HETATM   22  C   UNL     1      42.896 -16.083   2.884  1.00  0.00    -0.061 A 
HETATM   23  C   UNL     1      43.140 -16.355   1.429  1.00  0.00     0.048 C 
HETATM   24  C   UNL     1      42.581 -14.785   3.306  1.00  0.00     0.018 A 
BRANCH  19  25
HETATM   25  O   UNL     1      42.239 -15.180   6.918  1.00  0.00    -0.355 OA
HETATM   26  C   UNL     1      43.026 -15.831   7.907  1.00  0.00     0.210 C 
ENDBRANCH  19  25
ENDBRANCH  16  18
ENDBRANCH   2  16
TORSDOF 4
ENDMDL
MODEL 6
REMARK VINA RESULT:      -7.5      5.156      7.737
REMARK  4 active torsions:
REMARK  status: ('A' for Active; 'I' for Inactive)
REMARK    1  A    between atoms: C_9  and  C_10 
REMARK       I    between atoms: C_10  and  N_11 
REMARK    2  A    between atoms: N_11  and  C_12 
REMARK    3  A    between atoms: C_12  and  C_13 
REMARK    4  A    between atoms: C_14  and  O_15 
ROOT
HETATM    1  C   UNL     1      40.759 -14.774   2.815  1.00  0.00     0.273 C 
HETATM    2  N   UNL     1      40.852 -13.418   2.609  1.00  0.00    -0.347 N 
HETATM    3  O   UNL     1      39.850 -15.480   2.391  1.00  0.00    -0.266 OA
HETATM    4  H   UNL     1      41.719 -13.007   2.945  1.00  0.00     0.163 HD
ENDROOT
BRANCH   1   5
HETATM    5  C   UNL     1      41.889 -15.313   3.591  1.00  0.00     0.157 A 
HETATM    6  C   UNL     1      42.535 -16.573   3.415  1.00  0.00     0.029 A 
HETATM    7  C   UNL     1      42.385 -17.680   2.557  1.00  0.00     0.023 A 
HETATM    8  C   UNL     1      43.537 -16.603   4.377  1.00  0.00     0.063 A 
HETATM    9  C   UNL     1      43.245 -18.783   2.690  1.00  0.00    -0.061 A 
HETATM   10  C   UNL     1      43.100 -19.974   1.787  1.00  0.00     0.048 C 
HETATM   11  C   UNL     1      44.243 -18.772   3.673  1.00  0.00     0.009 A 
HETATM   12  C   UNL     1      44.411 -17.683   4.537  1.00  0.00     0.032 A 
HETATM   13  N   UNL     1      43.435 -15.413   5.042  1.00  0.00    -0.277 N 
HETATM   14  H   UNL     1      44.010 -15.091   5.811  1.00  0.00     0.189 HD
HETATM   15  N   UNL     1      42.455 -14.607   4.597  1.00  0.00    -0.168 NA
ENDBRANCH   1   5
BRANCH   2  16
HETATM   16  C   UNL     1      39.979 -12.586   1.790  1.00  0.00     0.116 C 
HETATM   17  C   UNL     1      38.500 -12.652   2.175  1.00  0.00     0.037 C 
BRANCH  16  18
HETATM   18  C   UNL     1      40.179 -12.788   0.293  1.00  0.00    -0.002 A 
HETATM   19  C   UNL     1      40.977 -11.891  -0.449  1.00  0.00     0.076 A 
HETATM   20  C   UNL     1      41.142 -12.081  -1.825  1.00  0.00     0.038 A 
HETATM   21  C   UNL     1      40.511 -13.141  -2.479  1.00  0.00     0.009 A 
HETATM   22  C   UNL     1      39.699 -14.024  -1.770  1.00  0.00    -0.061 A 
HETATM   23  C   UNL     1      39.000 -15.160  -2.457  1.00  0.00     0.048 C 
HETATM   24  C   UNL     1      39.531 -13.835  -0.392  1.00  0.00     0.018 A 
BRANCH  19  25
HETATM   25  O   UNL     1      41.552 -10.867   0.261  1.00  0.00    -0.355 OA
HETATM   26  C   UNL     1      41.697  -9.615  -0.396  1.00  0.00     0.210 C 
ENDBRANCH  19  25
ENDBRANCH  16  18
ENDBRANCH   2  16
TORSDOF 4
ENDMDL
MODEL 7
REMARK VINA RESULT:      -7.4      4.327      7.106
REMARK  4 active torsions:
REMARK  status: ('A' for Active; 'I' for Inactive)
REMARK    1  A    between atoms: C_9  and  C_10 
REMARK       I    between atoms: C_10  and  N_11 
REMARK    2  A    between atoms: N_11  and  C_12 
REMARK    3  A    between atoms: C_12  and  C_13 
REMARK    4  A    between atoms: C_14  and  O_15 
ROOT
HETATM    1  C   UNL     1      42.667 -14.248   2.372  1.00  0.00     0.273 C 
HETATM    2  N   UNL     1      41.436 -14.212   1.761  1.00  0.00    -0.347 N 
HETATM    3  O   UNL     1      43.379 -13.266   2.556  1.00  0.00    -0.266 OA
HETATM    4  H   UNL     1      40.939 -15.099   1.779  1.00  0.00     0.163 HD
ENDROOT
BRANCH   1   5
HETATM    5  C   UNL     1      43.047 -15.602   2.812  1.00  0.00     0.157 A 
HETATM    6  C   UNL     1      43.166 -16.072   4.154  1.00  0.00     0.029 A 
HETATM    7  C   UNL     1      43.003 -15.522   5.441  1.00  0.00     0.023 A 
HETATM    8  C   UNL     1      43.535 -17.406   4.038  1.00  0.00     0.063 A 
HETATM    9  C   UNL     1      43.215 -16.328   6.571  1.00  0.00    -0.061 A 
HETATM   10  C   UNL     1      43.049 -15.761   7.952  1.00  0.00     0.048 C 
HETATM   11  C   UNL     1      43.586 -17.670   6.410  1.00  0.00     0.009 A 
HETATM   12  C   UNL     1      43.753 -18.237   5.141  1.00  0.00     0.032 A 
HETATM   13  N   UNL     1      43.613 -17.644   2.694  1.00  0.00    -0.277 N 
HETATM   14  H   UNL     1      43.857 -18.516   2.240  1.00  0.00     0.189 HD
HETATM   15  N   UNL     1      43.325 -16.581   1.921  1.00  0.00    -0.168 NA
ENDBRANCH   1   5
BRANCH   2  16
HETATM   16  C   UNL     1      40.705 -13.033   1.314  1.00  0.00     0.116 C 
HETATM   17  C   UNL     1      39.436 -12.734   2.113  1.00  0.00     0.037 C 
BRANCH  16  18
HETATM   18  C   UNL     1      40.439 -13.018  -0.187  1.00  0.00    -0.002 A 
HETATM   19  C   UNL     1      40.847 -11.918  -0.973  1.00  0.00     0.076 A 
HETATM   20  C   UNL     1      40.586 -11.911  -2.348  1.00  0.00     0.038 A 
HETATM   21  C   UNL     1      39.909 -12.974  -2.950  1.00  0.00     0.009 A 
HETATM   22  C   UNL     1      39.476 -14.058  -2.187  1.00  0.00    -0.061 A 
HETATM   23  C   UNL     1      38.734 -15.201  -2.814  1.00  0.00     0.048 C 
HETATM   24  C   UNL     1      39.735 -14.066  -0.811  1.00  0.00     0.018 A 
BRANCH  19  25
HETATM   25  O   UNL     1      41.493 -10.908  -0.308  1.00  0.00    -0.355 OA
HETATM   26  C   UNL     1      40.877  -9.626  -0.305  1.00  0.00     0.210 C 
ENDBRANCH  19  25
ENDBRANCH  16  18
ENDBRANCH   2  16
TORSDOF 4
ENDMDL
MODEL 8
REMARK VINA RESULT:      -7.4      3.833      6.964
REMARK  4 active torsions:
REMARK  status: ('A' for Active; 'I' for Inactive)
REMARK    1  A    between atoms: C_9  and  C_10 
REMARK       I    between atoms: C_10  and  N_11 
REMARK    2  A    between atoms: N_11  and  C_12 
REMARK    3  A    between atoms: C_12  and  C_13 
REMARK    4  A    between atoms: C_14  and  O_15 
ROOT
HETATM    1  C   UNL     1      42.733 -12.709   3.445  1.00  0.00     0.273 C 
HETATM    2  N   UNL     1      41.474 -12.824   2.902  1.00  0.00    -0.347 N 
HETATM    3  O   UNL     1      43.556 -11.861   3.117  1.00  0.00    -0.266 OA
HETATM    4  H   UNL     1      40.889 -13.518   3.358  1.00  0.00     0.163 HD
ENDROOT
BRANCH   1   5
HETATM    5  C   UNL     1      42.995 -13.709   4.495  1.00  0.00     0.157 A 
HETATM    6  C   UNL     1      43.139 -15.119   4.329  1.00  0.00     0.029 A 
HETATM    7  C   UNL     1      43.091 -16.024   3.251  1.00  0.00     0.023 A 
HETATM    8  C   UNL     1      43.383 -15.610   5.605  1.00  0.00     0.063 A 
HETATM    9  C   UNL     1      43.290 -17.395   3.487  1.00  0.00    -0.061 A 
HETATM   10  C   UNL     1      43.241 -18.377   2.352  1.00  0.00     0.048 C 
HETATM   11  C   UNL     1      43.534 -17.848   4.790  1.00  0.00     0.009 A 
HETATM   12  C   UNL     1      43.586 -16.966   5.876  1.00  0.00     0.032 A 
HETATM   13  N   UNL     1      43.370 -14.514   6.423  1.00  0.00    -0.277 N 
HETATM   14  H   UNL     1      43.513 -14.497   7.425  1.00  0.00     0.189 HD
HETATM   15  N   UNL     1      43.140 -13.349   5.791  1.00  0.00    -0.168 NA
ENDBRANCH   1   5
BRANCH   2  16
HETATM   16  C   UNL     1      40.846 -11.934   1.934  1.00  0.00     0.116 C 
HETATM   17  C   UNL     1      39.612 -11.199   2.459  1.00  0.00     0.037 C 
BRANCH  16  18
HETATM   18  C   UNL     1      40.574 -12.597   0.589  1.00  0.00    -0.002 A 
HETATM   19  C   UNL     1      40.030 -13.898   0.531  1.00  0.00     0.076 A 
HETATM   20  C   UNL     1      39.796 -14.500  -0.711  1.00  0.00     0.038 A 
HETATM   21  C   UNL     1      40.114 -13.833  -1.897  1.00  0.00     0.009 A 
HETATM   22  C   UNL     1      40.675 -12.558  -1.861  1.00  0.00    -0.061 A 
HETATM   23  C   UNL     1      41.036 -11.833  -3.123  1.00  0.00     0.048 C 
HETATM   24  C   UNL     1      40.910 -11.954  -0.619  1.00  0.00     0.018 A 
BRANCH  19  25
HETATM   25  O   UNL     1      39.758 -14.492   1.737  1.00  0.00    -0.355 OA
HETATM   26  C   UNL     1      39.811 -15.912   1.795  1.00  0.00     0.210 C 
ENDBRANCH  19  25
ENDBRANCH  16  18
ENDBRANCH   2  16
TORSDOF 4
ENDMDL
MODEL 9
REMARK VINA RESULT:      -7.3      2.665      7.338
REMARK  4 active torsions:
REMARK  status: ('A' for Active; 'I' for Inactive)
REMARK    1  A    between atoms: C_9  and  C_10 
REMARK       I    between atoms: C_10  and  N_11 
REMARK    2  A    between atoms: N_11  and  C_12 
REMARK    3  A    between atoms: C_12  and  C_13 
REMARK    4  A    between atoms: C_14  and  O_15 
ROOT
HETATM    1  C   UNL     1      40.187 -12.554   5.541  1.00  0.00     0.273 C 
HETATM    2  N   UNL     1      41.280 -11.721   5.487  1.00  0.00    -0.347 N 
HETATM    3  O   UNL     1      39.412 -12.621   6.489  1.00  0.00    -0.266 OA
HETATM    4  H   UNL     1      41.755 -11.721   4.589  1.00  0.00     0.163 HD
ENDROOT
BRANCH   1   5
HETATM    5  C   UNL     1      40.019 -13.357   4.317  1.00  0.00     0.157 A 
HETATM    6  C   UNL     1      40.772 -14.504   3.928  1.00  0.00     0.029 A 
HETATM    7  C   UNL     1      41.845 -15.245   4.463  1.00  0.00     0.023 A 
HETATM    8  C   UNL     1      40.227 -14.900   2.713  1.00  0.00     0.063 A 
HETATM    9  C   UNL     1      42.336 -16.359   3.763  1.00  0.00    -0.061 A 
HETATM   10  C   UNL     1      43.480 -17.161   4.314  1.00  0.00     0.048 C 
HETATM   11  C   UNL     1      41.755 -16.725   2.541  1.00  0.00     0.009 A 
HETATM   12  C   UNL     1      40.689 -16.004   1.990  1.00  0.00     0.032 A 
HETATM   13  N   UNL     1      39.224 -14.005   2.459  1.00  0.00    -0.277 N 
HETATM   14  H   UNL     1      38.608 -13.988   1.655  1.00  0.00     0.189 HD
HETATM   15  N   UNL     1      39.067 -13.061   3.404  1.00  0.00    -0.168 NA
ENDBRANCH   1   5
BRANCH   2  16
HETATM   16  C   UNL     1      41.672 -10.713   6.463  1.00  0.00     0.116 C 
HETATM   17  C   UNL     1      41.234  -9.290   6.114  1.00  0.00     0.037 C 
BRANCH  16  18
HETATM   18  C   UNL     1      43.149 -10.770   6.834  1.00  0.00    -0.002 A 
HETATM   19  C   UNL     1      44.065 -11.463   6.013  1.00  0.00     0.076 A 
HETATM   20  C   UNL     1      45.417 -11.518   6.371  1.00  0.00     0.038 A 
HETATM   21  C   UNL     1      45.868 -10.910   7.545  1.00  0.00     0.009 A 
HETATM   22  C   UNL     1      44.976 -10.243   8.382  1.00  0.00    -0.061 A 
HETATM   23  C   UNL     1      45.440  -9.597   9.654  1.00  0.00     0.048 C 
HETATM   24  C   UNL     1      43.622 -10.187   8.025  1.00  0.00     0.018 A 
BRANCH  19  25
HETATM   25  O   UNL     1      43.543 -12.045   4.886  1.00  0.00    -0.355 OA
HETATM   26  C   UNL     1      44.106 -11.672   3.634  1.00  0.00     0.210 C 
ENDBRANCH  19  25
ENDBRANCH  16  18
ENDBRANCH   2  16
TORSDOF 4
ENDMDL
MODEL 10
REMARK VINA RESULT:      -7.3      4.580      8.367
REMARK  4 active torsions:
REMARK  status: ('A' for Active; 'I' for Inactive)
REMARK    1  A    between atoms: C_9  and  C_10 
REMARK       I    between atoms: C_10  and  N_11 
REMARK    2  A    between atoms: N_11  and  C_12 
REMARK    3  A    between atoms: C_12  and  C_13 
REMARK    4  A    between atoms: C_14  and  O_15 
ROOT
HETATM    1  C   UNL     1      40.770 -14.402   1.304  1.00  0.00     0.273 C 
HETATM    2  N   UNL     1      42.092 -14.041   1.422  1.00  0.00    -0.347 N 
HETATM    3  O   UNL     1      40.315 -15.488   1.646  1.00  0.00    -0.266 OA
HETATM    4  H   UNL     1      42.278 -13.071   1.182  1.00  0.00     0.163 HD
ENDROOT
BRANCH   1   5
HETATM    5  C   UNL     1      39.933 -13.330   0.737  1.00  0.00     0.157 A 
HETATM    6  C   UNL     1      39.234 -13.347  -0.507  1.00  0.00     0.029 A 
HETATM    7  C   UNL     1      39.076 -14.257  -1.571  1.00  0.00     0.023 A 
HETATM    8  C   UNL     1      38.591 -12.118  -0.577  1.00  0.00     0.063 A 
HETATM    9  C   UNL     1      38.277 -13.905  -2.671  1.00  0.00    -0.061 A 
HETATM   10  C   UNL     1      38.098 -14.859  -3.817  1.00  0.00     0.048 C 
HETATM   11  C   UNL     1      37.645 -12.655  -2.701  1.00  0.00     0.009 A 
HETATM   12  C   UNL     1      37.788 -11.735  -1.655  1.00  0.00     0.032 A 
HETATM   13  N   UNL     1      38.929 -11.467   0.578  1.00  0.00    -0.277 N 
HETATM   14  H   UNL     1      38.638 -10.541   0.866  1.00  0.00     0.189 HD
HETATM   15  N   UNL     1      39.736 -12.166   1.396  1.00  0.00    -0.168 NA
ENDBRANCH   1   5
BRANCH   2  16
HETATM   16  C   UNL     1      43.164 -14.804   2.046  1.00  0.00     0.116 C 
HETATM   17  C   UNL     1      43.409 -16.179   1.422  1.00  0.00     0.037 C 
BRANCH  16  18
HETATM   18  C   UNL     1      43.043 -14.891   3.563  1.00  0.00    -0.002 A 
HETATM   19  C   UNL     1      42.890 -13.719   4.335  1.00  0.00     0.076 A 
HETATM   20  C   UNL     1      42.792 -13.811   5.728  1.00  0.00     0.038 A 
HETATM   21  C   UNL     1      42.863 -15.052   6.367  1.00  0.00     0.009 A 
HETATM   22  C   UNL     1      43.039 -16.218   5.625  1.00  0.00    -0.061 A 
HETATM   23  C   UNL     1      43.133 -17.557   6.294  1.00  0.00     0.048 C 
HETATM   24  C   UNL     1      43.138 -16.128   4.230  1.00  0.00     0.018 A 
BRANCH  19  25
HETATM   25  O   UNL     1      42.843 -12.539   3.637  1.00  0.00    -0.355 OA
HETATM   26  C   UNL     1      43.922 -11.629   3.815  1.00  0.00     0.210 C 
ENDBRANCH  19  25
ENDBRANCH  16  18
ENDBRANCH   2  16
TORSDOF 4
ENDMDL
