MODEL 1
REMARK VINA RESULT:      -8.5      0.000      0.000
REMARK  8 active torsions:
REMARK  status: ('A' for Active; 'I' for Inactive)
REMARK    1  A    between atoms: C_2  and  C_3 
REMARK    2  A    between atoms: C_4  and  N_5 
REMARK    3  A    between atoms: N_5  and  S_6 
REMARK    4  A    between atoms: S_6  and  C_7 
REMARK    5  A    between atoms: C_13  and  C_14 
REMARK       I    between atoms: C_14  and  N_15 
REMARK    6  A    between atoms: N_15  and  C_16 
REMARK    7  A    between atoms: C_16  and  C_17 
REMARK    8  A    between atoms: C_17  and  O_18 
ROOT
HETATM    1  C   UNL     1      42.096 -14.305   3.591  1.00  0.00     0.081 A 
HETATM    2  C   UNL     1      42.681 -14.182   4.853  1.00  0.00     0.043 A 
HETATM    3  C   UNL     1      42.877 -12.905   5.389  1.00  0.00     0.043 A 
HETATM    4  C   UNL     1      42.447 -11.757   4.698  1.00  0.00     0.046 A 
HETATM    5  N   UNL     1      42.669 -10.490   5.248  1.00  0.00    -0.364 N 
HETATM    6  C   UNL     1      43.235 -10.353   6.489  1.00  0.00     0.109 A 
HETATM    7  C   UNL     1      43.694 -11.360   7.252  1.00  0.00     0.098 A 
HETATM    8  C   UNL     1      43.552 -12.739   6.705  1.00  0.00     0.201 A 
HETATM    9  O   UNL     1      43.980 -13.721   7.306  1.00  0.00    -0.286 OA
HETATM   10  C   UNL     1      41.858 -11.901   3.438  1.00  0.00     0.032 A 
HETATM   11  C   UNL     1      41.676 -13.172   2.886  1.00  0.00     0.027 A 
HETATM   12  H   UNL     1      42.236  -9.678   4.821  1.00  0.00     0.165 HD
ENDROOT
BRANCH   1  13
HETATM   13  S   UNL     1      41.802 -15.922   2.915  1.00  0.00     0.263 S 
HETATM   14  O   UNL     1      41.388 -15.737   1.538  1.00  0.00    -0.200 OA
HETATM   15  O   UNL     1      40.978 -16.663   3.842  1.00  0.00    -0.200 OA
BRANCH  13  16
HETATM   16  N   UNL     1      43.357 -16.587   2.834  1.00  0.00    -0.280 N 
HETATM   17  H   UNL     1      43.841 -16.249   2.004  1.00  0.00     0.179 HD
BRANCH  16  18
HETATM   18  C   UNL     1      43.507 -17.971   3.145  1.00  0.00     0.049 A 
HETATM   19  C   UNL     1      43.995 -18.393   4.393  1.00  0.00    -0.031 A 
HETATM   20  C   UNL     1      44.160 -19.771   4.616  1.00  0.00     0.009 A 
HETATM   21  C   UNL     1      43.859 -20.700   3.618  1.00  0.00     0.001 A 
HETATM   22  C   UNL     1      43.379 -20.267   2.387  1.00  0.00     0.002 A 
HETATM   23  C   UNL     1      43.202 -18.905   2.151  1.00  0.00     0.030 A 
BRANCH  19  24
HETATM   24  C   UNL     1      44.325 -17.436   5.514  1.00  0.00     0.036 C 
HETATM   25  C   UNL     1      43.277 -17.479   6.617  1.00  0.00     0.010 C 
ENDBRANCH  19  24
ENDBRANCH  16  18
ENDBRANCH  13  16
ENDBRANCH   1  13
BRANCH   7  26
HETATM   26  C   UNL     1      44.320 -11.024   8.562  1.00  0.00     0.257 C 
HETATM   27  N   UNL     1      43.447 -10.749   9.581  1.00  0.00    -0.355 N 
HETATM   28  H   UNL     1      42.455 -10.652   9.363  1.00  0.00     0.162 HD
HETATM   29  O   UNL     1      45.541 -11.006   8.708  1.00  0.00    -0.267 OA
BRANCH  27  30
HETATM   30  C   UNL     1      43.892 -10.351  10.904  1.00  0.00     0.149 C 
BRANCH  30  31
HETATM   31  C   UNL     1      42.727 -10.145  11.872  1.00  0.00     0.186 C 
BRANCH  31  32
HETATM   32  O   UNL     1      41.598  -9.648  11.145  1.00  0.00    -0.394 OA
HETATM   33  C   UNL     1      40.386  -9.848  11.861  1.00  0.00     0.201 C 
ENDBRANCH  31  32
ENDBRANCH  30  31
ENDBRANCH  27  30
ENDBRANCH   7  26
TORSDOF 8
ENDMDL
MODEL 2
REMARK VINA RESULT:      -8.2      2.287      2.491
REMARK  8 active torsions:
REMARK  status: ('A' for Active; 'I' for Inactive)
REMARK    1  A    between atoms: C_2  and  C_3 
REMARK    2  A    between atoms: C_4  and  N_5 
REMARK    3  A    between atoms: N_5  and  S_6 
REMARK    4  A    between atoms: S_6  and  C_7 
REMARK    5  A    between atoms: C_13  and  C_14 
REMARK       I    between atoms: C_14  and  N_15 
REMARK    6  A    between atoms: N_15  and  C_16 
REMARK    7  A    between atoms: C_16  and  C_17 
REMARK    8  A    between atoms: C_17  and  O_18 
ROOT
HETATM    1  C   UNL     1      41.919 -14.145   3.425  1.00  0.00     0.081 A 
HETATM    2  C   UNL     1      41.060 -13.668   4.418  1.00  0.00     0.043 A 
HETATM    3  C   UNL     1      41.217 -12.357   4.879  1.00  0.00     0.043 A 
HETATM    4  C   UNL     1      42.189 -11.505   4.323  1.00  0.00     0.046 A 
HETATM    5  N   UNL     1      42.337 -10.204   4.814  1.00  0.00    -0.364 N 
HETATM    6  C   UNL     1      41.496  -9.719   5.782  1.00  0.00     0.109 A 
HETATM    7  C   UNL     1      40.532 -10.422   6.401  1.00  0.00     0.098 A 
HETATM    8  C   UNL     1      40.355 -11.840   5.977  1.00  0.00     0.201 A 
HETATM    9  O   UNL     1      39.531 -12.577   6.513  1.00  0.00    -0.286 OA
HETATM   10  C   UNL     1      43.036 -12.000   3.327  1.00  0.00     0.032 A 
HETATM   11  C   UNL     1      42.901 -13.315   2.873  1.00  0.00     0.027 A 
HETATM   12  H   UNL     1      42.937  -9.550   4.321  1.00  0.00     0.165 HD
ENDROOT
BRANCH   1  13
HETATM   13  S   UNL     1      41.706 -15.794   2.798  1.00  0.00     0.263 S 
HETATM   14  O   UNL     1      41.329 -15.672   1.403  1.00  0.00    -0.200 OA
HETATM   15  O   UNL     1      40.881 -16.532   3.726  1.00  0.00    -0.200 OA
BRANCH  13  16
HETATM   16  N   UNL     1      43.285 -16.402   2.788  1.00  0.00    -0.280 N 
HETATM   17  H   UNL     1      43.790 -16.056   1.974  1.00  0.00     0.179 HD
BRANCH  16  18
HETATM   18  C   UNL     1      43.472 -17.776   3.121  1.00  0.00     0.049 A 
HETATM   19  C   UNL     1      43.979 -18.165   4.372  1.00  0.00    -0.031 A 
HETATM   20  C   UNL     1      44.180 -19.534   4.618  1.00  0.00     0.009 A 
HETATM   21  C   UNL     1      43.897 -20.487   3.637  1.00  0.00     0.001 A 
HETATM   22  C   UNL     1      43.399 -20.088   2.402  1.00  0.00     0.002 A 
HETATM   23  C   UNL     1      43.186 -18.735   2.145  1.00  0.00     0.030 A 
BRANCH  19  24
HETATM   24  C   UNL     1      44.291 -17.181   5.475  1.00  0.00     0.036 C 
HETATM   25  C   UNL     1      43.415 -17.411   6.699  1.00  0.00     0.010 C 
ENDBRANCH  19  24
ENDBRANCH  16  18
ENDBRANCH  13  16
ENDBRANCH   1  13
BRANCH   7  26
HETATM   26  C   UNL     1      39.736  -9.745   7.463  1.00  0.00     0.257 C 
HETATM   27  N   UNL     1      40.003 -10.142   8.746  1.00  0.00    -0.355 N 
HETATM   28  H   UNL     1      40.608 -10.951   8.892  1.00  0.00     0.162 HD
HETATM   29  O   UNL     1      38.901  -8.883   7.193  1.00  0.00    -0.267 OA
BRANCH  27  30
HETATM   30  C   UNL     1      39.279  -9.622   9.891  1.00  0.00     0.149 C 
BRANCH  30  31
HETATM   31  C   UNL     1      40.192  -9.366  11.090  1.00  0.00     0.186 C 
BRANCH  31  32
HETATM   32  O   UNL     1      39.412  -9.419  12.290  1.00  0.00    -0.394 OA
HETATM   33  C   UNL     1      39.644 -10.623  13.010  1.00  0.00     0.201 C 
ENDBRANCH  31  32
ENDBRANCH  30  31
ENDBRANCH  27  30
ENDBRANCH   7  26
TORSDOF 8
ENDMDL
MODEL 3
REMARK VINA RESULT:      -8.1      3.198      5.995
REMARK  8 active torsions:
REMARK  status: ('A' for Active; 'I' for Inactive)
REMARK    1  A    between atoms: C_2  and  C_3 
REMARK    2  A    between atoms: C_4  and  N_5 
REMARK    3  A    between atoms: N_5  and  S_6 
REMARK    4  A    between atoms: S_6  and  C_7 
REMARK    5  A    between atoms: C_13  and  C_14 
REMARK       I    between atoms: C_14  and  N_15 
REMARK    6  A    between atoms: N_15  and  C_16 
REMARK    7  A    between atoms: C_16  and  C_17 
REMARK    8  A    between atoms: C_17  and  O_18 
ROOT
HETATM    1  C   UNL     1      43.190 -14.975   5.910  1.00  0.00     0.081 A 
HETATM    2  C   UNL     1      42.626 -14.480   4.732  1.00  0.00     0.043 A 
HETATM    3  C   UNL     1      42.560 -13.096   4.542  1.00  0.00     0.043 A 
HETATM    4  C   UNL     1      43.096 -12.207   5.492  1.00  0.00     0.046 A 
HETATM    5  N   UNL     1      43.002 -10.828   5.286  1.00  0.00    -0.364 N 
HETATM    6  C   UNL     1      42.459 -10.326   4.131  1.00  0.00     0.109 A 
HETATM    7  C   UNL     1      41.908 -11.057   3.147  1.00  0.00     0.098 A 
HETATM    8  C   UNL     1      41.911 -12.536   3.324  1.00  0.00     0.201 A 
HETATM    9  O   UNL     1      41.392 -13.288   2.502  1.00  0.00    -0.286 OA
HETATM   10  C   UNL     1      43.661 -12.724   6.662  1.00  0.00     0.032 A 
HETATM   11  C   UNL     1      43.714 -14.104   6.871  1.00  0.00     0.027 A 
HETATM   12  H   UNL     1      43.511 -10.196   5.896  1.00  0.00     0.165 HD
ENDROOT
BRANCH   1  13
HETATM   13  S   UNL     1      43.320 -16.731   6.149  1.00  0.00     0.263 S 
HETATM   14  O   UNL     1      42.052 -17.310   5.749  1.00  0.00    -0.200 OA
HETATM   15  O   UNL     1      43.862 -16.975   7.466  1.00  0.00    -0.200 OA
BRANCH  13  16
HETATM   16  N   UNL     1      44.425 -17.195   4.953  1.00  0.00    -0.280 N 
HETATM   17  H   UNL     1      44.732 -16.381   4.424  1.00  0.00     0.179 HD
BRANCH  16  18
HETATM   18  C   UNL     1      44.140 -18.376   4.204  1.00  0.00     0.049 A 
HETATM   19  C   UNL     1      43.589 -18.310   2.913  1.00  0.00    -0.031 A 
HETATM   20  C   UNL     1      43.293 -19.513   2.250  1.00  0.00     0.009 A 
HETATM   21  C   UNL     1      43.525 -20.746   2.862  1.00  0.00     0.001 A 
HETATM   22  C   UNL     1      44.068 -20.795   4.142  1.00  0.00     0.002 A 
HETATM   23  C   UNL     1      44.376 -19.612   4.811  1.00  0.00     0.030 A 
BRANCH  19  24
HETATM   24  C   UNL     1      43.328 -17.007   2.196  1.00  0.00     0.036 C 
HETATM   25  C   UNL     1      41.840 -16.699   2.110  1.00  0.00     0.010 C 
ENDBRANCH  19  24
ENDBRANCH  16  18
ENDBRANCH  13  16
ENDBRANCH   1  13
BRANCH   7  26
HETATM   26  C   UNL     1      41.325 -10.341   1.977  1.00  0.00     0.257 C 
HETATM   27  N   UNL     1      41.289 -11.051   0.807  1.00  0.00    -0.355 N 
HETATM   28  H   UNL     1      41.774 -11.948   0.764  1.00  0.00     0.162 HD
HETATM   29  O   UNL     1      40.902  -9.190   2.071  1.00  0.00    -0.267 OA
BRANCH  27  30
HETATM   30  C   UNL     1      40.804 -10.483  -0.437  1.00  0.00     0.149 C 
BRANCH  30  31
HETATM   31  C   UNL     1      39.765 -11.374  -1.118  1.00  0.00     0.186 C 
BRANCH  31  32
HETATM   32  O   UNL     1      39.469 -12.483  -0.262  1.00  0.00    -0.394 OA
HETATM   33  C   UNL     1      39.652 -13.723  -0.933  1.00  0.00     0.201 C 
ENDBRANCH  31  32
ENDBRANCH  30  31
ENDBRANCH  27  30
ENDBRANCH   7  26
TORSDOF 8
ENDMDL
MODEL 4
REMARK VINA RESULT:      -7.8      4.549      7.806
REMARK  8 active torsions:
REMARK  status: ('A' for Active; 'I' for Inactive)
REMARK    1  A    between atoms: C_2  and  C_3 
REMARK    2  A    between atoms: C_4  and  N_5 
REMARK    3  A    between atoms: N_5  and  S_6 
REMARK    4  A    between atoms: S_6  and  C_7 
REMARK    5  A    between atoms: C_13  and  C_14 
REMARK       I    between atoms: C_14  and  N_15 
REMARK    6  A    between atoms: N_15  and  C_16 
REMARK    7  A    between atoms: C_16  and  C_17 
REMARK    8  A    between atoms: C_17  and  O_18 
ROOT
HETATM    1  C   UNL     1      40.976 -14.669   2.221  1.00  0.00     0.081 A 
HETATM    2  C   UNL     1      41.198 -13.414   1.651  1.00  0.00     0.043 A 
HETATM    3  C   UNL     1      40.710 -13.157   0.365  1.00  0.00     0.043 A 
HETATM    4  C   UNL     1      39.962 -14.123  -0.332  1.00  0.00     0.046 A 
HETATM    5  N   UNL     1      39.500 -13.848  -1.623  1.00  0.00    -0.364 N 
HETATM    6  C   UNL     1      39.702 -12.618  -2.193  1.00  0.00     0.109 A 
HETATM    7  C   UNL     1      40.401 -11.609  -1.644  1.00  0.00     0.098 A 
HETATM    8  C   UNL     1      40.982 -11.849  -0.293  1.00  0.00     0.201 A 
HETATM    9  O   UNL     1      41.674 -11.007   0.274  1.00  0.00    -0.286 OA
HETATM   10  C   UNL     1      39.746 -15.372   0.258  1.00  0.00     0.032 A 
HETATM   11  C   UNL     1      40.246 -15.646   1.535  1.00  0.00     0.027 A 
HETATM   12  H   UNL     1      38.845 -14.485  -2.065  1.00  0.00     0.165 HD
ENDROOT
BRANCH   1  13
HETATM   13  S   UNL     1      41.552 -14.998   3.870  1.00  0.00     0.263 S 
HETATM   14  O   UNL     1      40.834 -16.164   4.346  1.00  0.00    -0.200 OA
HETATM   15  O   UNL     1      41.532 -13.761   4.616  1.00  0.00    -0.200 OA
BRANCH  13  16
HETATM   16  N   UNL     1      43.143 -15.519   3.618  1.00  0.00    -0.280 N 
HETATM   17  H   UNL     1      43.580 -14.970   2.879  1.00  0.00     0.179 HD
BRANCH  16  18
HETATM   18  C   UNL     1      43.390 -16.924   3.605  1.00  0.00     0.049 A 
HETATM   19  C   UNL     1      43.939 -17.582   4.718  1.00  0.00    -0.031 A 
HETATM   20  C   UNL     1      44.198 -18.960   4.621  1.00  0.00     0.009 A 
HETATM   21  C   UNL     1      43.929 -19.659   3.442  1.00  0.00     0.001 A 
HETATM   22  C   UNL     1      43.388 -18.993   2.347  1.00  0.00     0.002 A 
HETATM   23  C   UNL     1      43.117 -17.628   2.429  1.00  0.00     0.030 A 
BRANCH  19  24
HETATM   24  C   UNL     1      44.238 -16.882   6.022  1.00  0.00     0.036 C 
HETATM   25  C   UNL     1      43.087 -17.014   7.009  1.00  0.00     0.010 C 
ENDBRANCH  19  24
ENDBRANCH  16  18
ENDBRANCH  13  16
ENDBRANCH   1  13
BRANCH   7  26
HETATM   26  C   UNL     1      40.557 -10.350  -2.426  1.00  0.00     0.257 C 
HETATM   27  N   UNL     1      40.377  -9.190  -1.720  1.00  0.00    -0.355 N 
HETATM   28  H   UNL     1      40.020  -9.248  -0.765  1.00  0.00     0.162 HD
HETATM   29  O   UNL     1      40.834 -10.364  -3.623  1.00  0.00    -0.267 OA
BRANCH  27  30
HETATM   30  C   UNL     1      40.439  -7.880  -2.342  1.00  0.00     0.149 C 
BRANCH  30  31
HETATM   31  C   UNL     1      41.698  -7.108  -1.948  1.00  0.00     0.186 C 
BRANCH  31  32
HETATM   32  O   UNL     1      42.804  -7.595  -2.717  1.00  0.00    -0.394 OA
HETATM   33  C   UNL     1      42.641  -7.315  -4.101  1.00  0.00     0.201 C 
ENDBRANCH  31  32
ENDBRANCH  30  31
ENDBRANCH  27  30
ENDBRANCH   7  26
TORSDOF 8
ENDMDL
MODEL 5
REMARK VINA RESULT:      -7.6      1.647      2.882
REMARK  8 active torsions:
REMARK  status: ('A' for Active; 'I' for Inactive)
REMARK    1  A    between atoms: C_2  and  C_3 
REMARK    2  A    between atoms: C_4  and  N_5 
REMARK    3  A    between atoms: N_5  and  S_6 
REMARK    4  A    between atoms: S_6  and  C_7 
REMARK    5  A    between atoms: C_13  and  C_14 
REMARK       I    between atoms: C_14  and  N_15 
REMARK    6  A    between atoms: N_15  and  C_16 
REMARK    7  A    between atoms: C_16  and  C_17 
REMARK    8  A    between atoms: C_17  and  O_18 
ROOT
HETATM    1  C   UNL     1      41.069 -13.980   3.536  1.00  0.00     0.081 A 
HETATM    2  C   UNL     1      41.855 -13.409   4.540  1.00  0.00     0.043 A 
HETATM    3  C   UNL     1      41.443 -12.204   5.120  1.00  0.00     0.043 A 
HETATM    4  C   UNL     1      40.232 -11.595   4.742  1.00  0.00     0.046 A 
HETATM    5  N   UNL     1      39.851 -10.383   5.325  1.00  0.00    -0.364 N 
HETATM    6  C   UNL     1      40.606  -9.813   6.317  1.00  0.00     0.109 A 
HETATM    7  C   UNL     1      41.782 -10.282   6.769  1.00  0.00     0.098 A 
HETATM    8  C   UNL     1      42.288 -11.540   6.150  1.00  0.00     0.201 A 
HETATM    9  O   UNL     1      43.373 -12.024   6.462  1.00  0.00    -0.286 OA
HETATM   10  C   UNL     1      39.457 -12.186   3.739  1.00  0.00     0.032 A 
HETATM   11  C   UNL     1      39.870 -13.380   3.139  1.00  0.00     0.027 A 
HETATM   12  H   UNL     1      38.918 -10.020   5.158  1.00  0.00     0.165 HD
ENDROOT
BRANCH   1  13
HETATM   13  S   UNL     1      41.556 -15.532   2.819  1.00  0.00     0.263 S 
HETATM   14  O   UNL     1      41.717 -15.309   1.395  1.00  0.00    -0.200 OA
HETATM   15  O   UNL     1      40.671 -16.561   3.312  1.00  0.00    -0.200 OA
BRANCH  13  16
HETATM   16  N   UNL     1      43.123 -15.752   3.421  1.00  0.00    -0.280 N 
HETATM   17  H   UNL     1      43.803 -15.682   2.666  1.00  0.00     0.179 HD
BRANCH  16  18
HETATM   18  C   UNL     1      43.330 -16.791   4.376  1.00  0.00     0.049 A 
HETATM   19  C   UNL     1      43.682 -18.092   3.978  1.00  0.00    -0.031 A 
HETATM   20  C   UNL     1      43.828 -19.079   4.968  1.00  0.00     0.009 A 
HETATM   21  C   UNL     1      43.614 -18.780   6.315  1.00  0.00     0.001 A 
HETATM   22  C   UNL     1      43.262 -17.489   6.694  1.00  0.00     0.002 A 
HETATM   23  C   UNL     1      43.122 -16.496   5.726  1.00  0.00     0.030 A 
BRANCH  19  24
HETATM   24  C   UNL     1      43.939 -18.471   2.539  1.00  0.00     0.036 C 
HETATM   25  C   UNL     1      43.229 -19.764   2.161  1.00  0.00     0.010 C 
ENDBRANCH  19  24
ENDBRANCH  16  18
ENDBRANCH  13  16
ENDBRANCH   1  13
BRANCH   7  26
HETATM   26  C   UNL     1      42.491  -9.510   7.828  1.00  0.00     0.257 C 
HETATM   27  N   UNL     1      42.989 -10.251   8.867  1.00  0.00    -0.355 N 
HETATM   28  H   UNL     1      42.735 -11.237   8.930  1.00  0.00     0.162 HD
HETATM   29  O   UNL     1      42.619  -8.289   7.759  1.00  0.00    -0.267 OA
BRANCH  27  30
HETATM   30  C   UNL     1      43.657  -9.648  10.005  1.00  0.00     0.149 C 
BRANCH  30  31
HETATM   31  C   UNL     1      45.159  -9.932  10.016  1.00  0.00     0.186 C 
BRANCH  31  32
HETATM   32  O   UNL     1      45.455 -10.915   9.017  1.00  0.00    -0.394 OA
HETATM   33  C   UNL     1      46.191 -10.356   7.936  1.00  0.00     0.201 C 
ENDBRANCH  31  32
ENDBRANCH  30  31
ENDBRANCH  27  30
ENDBRANCH   7  26
TORSDOF 8
ENDMDL
MODEL 6
REMARK VINA RESULT:      -7.6      2.387      9.392
REMARK  8 active torsions:
REMARK  status: ('A' for Active; 'I' for Inactive)
REMARK    1  A    between atoms: C_2  and  C_3 
REMARK    2  A    between atoms: C_4  and  N_5 
REMARK    3  A    between atoms: N_5  and  S_6 
REMARK    4  A    between atoms: S_6  and  C_7 
REMARK    5  A    between atoms: C_13  and  C_14 
REMARK       I    between atoms: C_14  and  N_15 
REMARK    6  A    between atoms: N_15  and  C_16 
REMARK    7  A    between atoms: C_16  and  C_17 
REMARK    8  A    between atoms: C_17  and  O_18 
ROOT
HETATM    1  C   UNL     1      43.561 -11.015   7.399  1.00  0.00     0.081 A 
HETATM    2  C   UNL     1      43.759 -12.377   7.163  1.00  0.00     0.043 A 
HETATM    3  C   UNL     1      43.196 -12.957   6.021  1.00  0.00     0.043 A 
HETATM    4  C   UNL     1      42.483 -12.179   5.091  1.00  0.00     0.046 A 
HETATM    5  N   UNL     1      41.916 -12.786   3.966  1.00  0.00    -0.364 N 
HETATM    6  C   UNL     1      42.107 -14.120   3.716  1.00  0.00     0.109 A 
HETATM    7  C   UNL     1      42.760 -14.978   4.520  1.00  0.00     0.098 A 
HETATM    8  C   UNL     1      43.339 -14.418   5.774  1.00  0.00     0.201 A 
HETATM    9  O   UNL     1      43.914 -15.129   6.595  1.00  0.00    -0.286 OA
HETATM   10  C   UNL     1      42.301 -10.816   5.342  1.00  0.00     0.032 A 
HETATM   11  C   UNL     1      42.843 -10.231   6.490  1.00  0.00     0.027 A 
HETATM   12  H   UNL     1      41.528 -12.206   3.229  1.00  0.00     0.165 HD
ENDROOT
BRANCH   1  13
HETATM   13  S   UNL     1      44.305 -10.254   8.822  1.00  0.00     0.263 S 
HETATM   14  O   UNL     1      44.246  -8.820   8.616  1.00  0.00    -0.200 OA
HETATM   15  O   UNL     1      45.563 -10.913   9.088  1.00  0.00    -0.200 OA
BRANCH  13  16
HETATM   16  N   UNL     1      43.189 -10.580  10.052  1.00  0.00    -0.280 N 
HETATM   17  H   UNL     1      42.461 -11.205   9.710  1.00  0.00     0.179 HD
BRANCH  16  18
HETATM   18  C   UNL     1      42.765  -9.492  10.873  1.00  0.00     0.049 A 
HETATM   19  C   UNL     1      41.600  -8.763  10.580  1.00  0.00    -0.031 A 
HETATM   20  C   UNL     1      41.265  -7.676  11.404  1.00  0.00     0.009 A 
HETATM   21  C   UNL     1      42.077  -7.317  12.482  1.00  0.00     0.001 A 
HETATM   22  C   UNL     1      43.229  -8.046  12.759  1.00  0.00     0.002 A 
HETATM   23  C   UNL     1      43.571  -9.132  11.956  1.00  0.00     0.030 A 
BRANCH  19  24
HETATM   24  C   UNL     1      40.677  -9.112   9.436  1.00  0.00     0.036 C 
HETATM   25  C   UNL     1      39.344  -9.654   9.933  1.00  0.00     0.010 C 
ENDBRANCH  19  24
ENDBRANCH  16  18
ENDBRANCH  13  16
ENDBRANCH   1  13
BRANCH   7  26
HETATM   26  C   UNL     1      42.838 -16.409   4.111  1.00  0.00     0.257 C 
HETATM   27  N   UNL     1      43.959 -17.080   4.519  1.00  0.00    -0.355 N 
HETATM   28  H   UNL     1      44.721 -16.549   4.943  1.00  0.00     0.162 HD
HETATM   29  O   UNL     1      41.944 -16.942   3.457  1.00  0.00    -0.267 OA
BRANCH  27  30
HETATM   30  C   UNL     1      44.216 -18.462   4.159  1.00  0.00     0.149 C 
BRANCH  30  31
HETATM   31  C   UNL     1      43.982 -19.421   5.327  1.00  0.00     0.186 C 
BRANCH  31  32
HETATM   32  O   UNL     1      44.119 -20.767   4.861  1.00  0.00    -0.394 OA
HETATM   33  C   UNL     1      43.819 -20.872   3.474  1.00  0.00     0.201 C 
ENDBRANCH  31  32
ENDBRANCH  30  31
ENDBRANCH  27  30
ENDBRANCH   7  26
TORSDOF 8
ENDMDL
MODEL 7
REMARK VINA RESULT:      -7.3      2.794      4.411
REMARK  8 active torsions:
REMARK  status: ('A' for Active; 'I' for Inactive)
REMARK    1  A    between atoms: C_2  and  C_3 
REMARK    2  A    between atoms: C_4  and  N_5 
REMARK    3  A    between atoms: N_5  and  S_6 
REMARK    4  A    between atoms: S_6  and  C_7 
REMARK    5  A    between atoms: C_13  and  C_14 
REMARK       I    between atoms: C_14  and  N_15 
REMARK    6  A    between atoms: N_15  and  C_16 
REMARK    7  A    between atoms: C_16  and  C_17 
REMARK    8  A    between atoms: C_17  and  O_18 
ROOT
HETATM    1  C   UNL     1      43.705 -11.237   5.687  1.00  0.00     0.081 A 
HETATM    2  C   UNL     1      42.986 -10.553   6.670  1.00  0.00     0.043 A 
HETATM    3  C   UNL     1      43.632 -10.201   7.860  1.00  0.00     0.043 A 
HETATM    4  C   UNL     1      44.997 -10.481   8.054  1.00  0.00     0.046 A 
HETATM    5  N   UNL     1      45.615 -10.134   9.259  1.00  0.00    -0.364 N 
HETATM    6  C   UNL     1      44.926  -9.455  10.231  1.00  0.00     0.109 A 
HETATM    7  C   UNL     1      43.622  -9.130  10.180  1.00  0.00     0.098 A 
HETATM    8  C   UNL     1      42.877  -9.525   8.951  1.00  0.00     0.201 A 
HETATM    9  O   UNL     1      41.674  -9.313   8.828  1.00  0.00    -0.286 OA
HETATM   10  C   UNL     1      45.700 -11.162   7.055  1.00  0.00     0.032 A 
HETATM   11  C   UNL     1      45.059 -11.535   5.870  1.00  0.00     0.027 A 
HETATM   12  H   UNL     1      46.623 -10.207   9.342  1.00  0.00     0.165 HD
ENDROOT
BRANCH   1  13
HETATM   13  S   UNL     1      42.911 -11.654   4.152  1.00  0.00     0.263 S 
HETATM   14  O   UNL     1      43.933 -12.200   3.281  1.00  0.00    -0.200 OA
HETATM   15  O   UNL     1      42.105 -10.530   3.734  1.00  0.00    -0.200 OA
BRANCH  13  16
HETATM   16  N   UNL     1      41.932 -12.967   4.577  1.00  0.00    -0.280 N 
HETATM   17  H   UNL     1      41.388 -12.745   5.409  1.00  0.00     0.179 HD
BRANCH  16  18
HETATM   18  C   UNL     1      42.503 -14.273   4.514  1.00  0.00     0.049 A 
HETATM   19  C   UNL     1      42.302 -15.108   3.402  1.00  0.00    -0.031 A 
HETATM   20  C   UNL     1      42.858 -16.399   3.426  1.00  0.00     0.009 A 
HETATM   21  C   UNL     1      43.580 -16.849   4.532  1.00  0.00     0.001 A 
HETATM   22  C   UNL     1      43.769 -16.012   5.627  1.00  0.00     0.002 A 
HETATM   23  C   UNL     1      43.232 -14.726   5.617  1.00  0.00     0.030 A 
BRANCH  19  24
HETATM   24  C   UNL     1      41.542 -14.672   2.173  1.00  0.00     0.036 C 
HETATM   25  C   UNL     1      40.188 -15.362   2.074  1.00  0.00     0.010 C 
ENDBRANCH  19  24
ENDBRANCH  16  18
ENDBRANCH  13  16
ENDBRANCH   1  13
BRANCH   7  26
HETATM   26  C   UNL     1      43.024  -8.426  11.348  1.00  0.00     0.257 C 
HETATM   27  N   UNL     1      42.948  -9.156  12.504  1.00  0.00    -0.355 N 
HETATM   28  H   UNL     1      43.167 -10.153  12.468  1.00  0.00     0.162 HD
HETATM   29  O   UNL     1      42.633  -7.262  11.270  1.00  0.00    -0.267 OA
BRANCH  27  30
HETATM   30  C   UNL     1      42.344  -8.638  13.717  1.00  0.00     0.149 C 
BRANCH  30  31
HETATM   31  C   UNL     1      40.929  -9.174  13.937  1.00  0.00     0.186 C 
BRANCH  31  32
HETATM   32  O   UNL     1      40.766 -10.383  13.187  1.00  0.00    -0.394 OA
HETATM   33  C   UNL     1      39.410 -10.587  12.812  1.00  0.00     0.201 C 
ENDBRANCH  31  32
ENDBRANCH  30  31
ENDBRANCH  27  30
ENDBRANCH   7  26
TORSDOF 8
ENDMDL
MODEL 8
REMARK VINA RESULT:      -7.2      2.542      3.297
REMARK  8 active torsions:
REMARK  status: ('A' for Active; 'I' for Inactive)
REMARK    1  A    between atoms: C_2  and  C_3 
REMARK    2  A    between atoms: C_4  and  N_5 
REMARK    3  A    between atoms: N_5  and  S_6 
REMARK    4  A    between atoms: S_6  and  C_7 
REMARK    5  A    between atoms: C_13  and  C_14 
REMARK       I    between atoms: C_14  and  N_15 
REMARK    6  A    between atoms: N_15  and  C_16 
REMARK    7  A    between atoms: C_16  and  C_17 
REMARK    8  A    between atoms: C_17  and  O_18 
ROOT
HETATM    1  C   UNL     1      40.588 -13.344   2.536  1.00  0.00     0.081 A 
HETATM    2  C   UNL     1      40.864 -12.902   3.831  1.00  0.00     0.043 A 
HETATM    3  C   UNL     1      40.119 -11.842   4.360  1.00  0.00     0.043 A 
HETATM    4  C   UNL     1      39.072 -11.256   3.625  1.00  0.00     0.046 A 
HETATM    5  N   UNL     1      38.354 -10.187   4.169  1.00  0.00    -0.364 N 
HETATM    6  C   UNL     1      38.607  -9.747   5.443  1.00  0.00     0.109 A 
HETATM    7  C   UNL     1      39.577 -10.210   6.250  1.00  0.00     0.098 A 
HETATM    8  C   UNL     1      40.429 -11.310   5.715  1.00  0.00     0.201 A 
HETATM    9  O   UNL     1      41.369 -11.771   6.357  1.00  0.00    -0.286 OA
HETATM   10  C   UNL     1      38.808 -11.716   2.332  1.00  0.00     0.032 A 
HETATM   11  C   UNL     1      39.559 -12.762   1.787  1.00  0.00     0.027 A 
HETATM   12  H   UNL     1      37.514  -9.861   3.702  1.00  0.00     0.165 HD
ENDROOT
BRANCH   1  13
HETATM   13  S   UNL     1      41.496 -14.717   1.866  1.00  0.00     0.263 S 
HETATM   14  O   UNL     1      42.904 -14.415   2.029  1.00  0.00    -0.200 OA
HETATM   15  O   UNL     1      40.952 -15.033   0.565  1.00  0.00    -0.200 OA
BRANCH  13  16
HETATM   16  N   UNL     1      41.170 -15.960   2.968  1.00  0.00    -0.280 N 
HETATM   17  H   UNL     1      40.612 -15.606   3.743  1.00  0.00     0.179 HD
BRANCH  16  18
HETATM   18  C   UNL     1      42.232 -16.853   3.298  1.00  0.00     0.049 A 
HETATM   19  C   UNL     1      42.968 -16.708   4.487  1.00  0.00    -0.031 A 
HETATM   20  C   UNL     1      44.030 -17.596   4.729  1.00  0.00     0.009 A 
HETATM   21  C   UNL     1      44.358 -18.591   3.805  1.00  0.00     0.001 A 
HETATM   22  C   UNL     1      43.622 -18.720   2.632  1.00  0.00     0.002 A 
HETATM   23  C   UNL     1      42.561 -17.853   2.380  1.00  0.00     0.030 A 
BRANCH  19  24
HETATM   24  C   UNL     1      42.652 -15.660   5.528  1.00  0.00     0.036 C 
HETATM   25  C   UNL     1      42.018 -16.273   6.769  1.00  0.00     0.010 C 
ENDBRANCH  19  24
ENDBRANCH  16  18
ENDBRANCH  13  16
ENDBRANCH   1  13
BRANCH   7  26
HETATM   26  C   UNL     1      39.737  -9.586   7.593  1.00  0.00     0.257 C 
HETATM   27  N   UNL     1      41.001  -9.626   8.117  1.00  0.00    -0.355 N 
HETATM   28  H   UNL     1      41.710 -10.187   7.642  1.00  0.00     0.162 HD
HETATM   29  O   UNL     1      38.790  -9.065   8.179  1.00  0.00    -0.267 OA
BRANCH  27  30
HETATM   30  C   UNL     1      41.316  -9.112   9.437  1.00  0.00     0.149 C 
BRANCH  30  31
HETATM   31  C   UNL     1      42.723  -9.501   9.893  1.00  0.00     0.186 C 
BRANCH  31  32
HETATM   32  O   UNL     1      43.600  -9.489   8.761  1.00  0.00    -0.394 OA
HETATM   33  C   UNL     1      44.371  -8.295   8.710  1.00  0.00     0.201 C 
ENDBRANCH  31  32
ENDBRANCH  30  31
ENDBRANCH  27  30
ENDBRANCH   7  26
TORSDOF 8
ENDMDL
MODEL 9
REMARK VINA RESULT:      -7.1      3.459      5.986
REMARK  8 active torsions:
REMARK  status: ('A' for Active; 'I' for Inactive)
REMARK    1  A    between atoms: C_2  and  C_3 
REMARK    2  A    between atoms: C_4  and  N_5 
REMARK    3  A    between atoms: N_5  and  S_6 
REMARK    4  A    between atoms: S_6  and  C_7 
REMARK    5  A    between atoms: C_13  and  C_14 
REMARK       I    between atoms: C_14  and  N_15 
REMARK    6  A    between atoms: N_15  and  C_16 
REMARK    7  A    between atoms: C_16  and  C_17 
REMARK    8  A    between atoms: C_17  and  O_18 
ROOT
HETATM    1  C   UNL     1      41.115 -14.729   2.537  1.00  0.00     0.081 A 
HETATM    2  C   UNL     1      41.436 -13.606   3.303  1.00  0.00     0.043 A 
HETATM    3  C   UNL     1      42.244 -13.764   4.434  1.00  0.00     0.043 A 
HETATM    4  C   UNL     1      42.774 -15.022   4.775  1.00  0.00     0.046 A 
HETATM    5  N   UNL     1      43.565 -15.157   5.920  1.00  0.00    -0.364 N 
HETATM    6  C   UNL     1      43.896 -14.063   6.678  1.00  0.00     0.109 A 
HETATM    7  C   UNL     1      43.458 -12.809   6.470  1.00  0.00     0.098 A 
HETATM    8  C   UNL     1      42.555 -12.596   5.303  1.00  0.00     0.201 A 
HETATM    9  O   UNL     1      42.066 -11.497   5.056  1.00  0.00    -0.286 OA
HETATM   10  C   UNL     1      42.445 -16.133   3.992  1.00  0.00     0.032 A 
HETATM   11  C   UNL     1      41.622 -15.989   2.872  1.00  0.00     0.027 A 
HETATM   12  H   UNL     1      44.059 -16.028   6.085  1.00  0.00     0.165 HD
ENDROOT
BRANCH   1  13
HETATM   13  S   UNL     1      40.125 -14.538   1.074  1.00  0.00     0.263 S 
HETATM   14  O   UNL     1      39.185 -13.466   1.335  1.00  0.00    -0.200 OA
HETATM   15  O   UNL     1      39.663 -15.844   0.662  1.00  0.00    -0.200 OA
BRANCH  13  16
HETATM   16  N   UNL     1      41.225 -13.911  -0.049  1.00  0.00    -0.280 N 
HETATM   17  H   UNL     1      42.150 -13.834   0.370  1.00  0.00     0.179 HD
BRANCH  16  18
HETATM   18  C   UNL     1      40.798 -12.820  -0.862  1.00  0.00     0.049 A 
HETATM   19  C   UNL     1      40.129 -13.031  -2.080  1.00  0.00    -0.031 A 
HETATM   20  C   UNL     1      39.775 -11.913  -2.853  1.00  0.00     0.009 A 
HETATM   21  C   UNL     1      40.093 -10.620  -2.431  1.00  0.00     0.001 A 
HETATM   22  C   UNL     1      40.759 -10.426  -1.225  1.00  0.00     0.002 A 
HETATM   23  C   UNL     1      41.109 -11.524  -0.442  1.00  0.00     0.030 A 
BRANCH  19  24
HETATM   24  C   UNL     1      39.747 -14.404  -2.581  1.00  0.00     0.036 C 
HETATM   25  C   UNL     1      38.443 -14.375  -3.366  1.00  0.00     0.010 C 
ENDBRANCH  19  24
ENDBRANCH  16  18
ENDBRANCH  13  16
ENDBRANCH   1  13
BRANCH   7  26
HETATM   26  C   UNL     1      43.887 -11.745   7.420  1.00  0.00     0.257 C 
HETATM   27  N   UNL     1      42.903 -10.881   7.824  1.00  0.00    -0.355 N 
HETATM   28  H   UNL     1      41.995 -10.923   7.360  1.00  0.00     0.162 HD
HETATM   29  O   UNL     1      45.048 -11.662   7.814  1.00  0.00    -0.267 OA
BRANCH  27  30
HETATM   30  C   UNL     1      43.165  -9.757   8.703  1.00  0.00     0.149 C 
BRANCH  30  31
HETATM   31  C   UNL     1      43.023  -8.414   7.987  1.00  0.00     0.186 C 
BRANCH  31  32
HETATM   32  O   UNL     1      44.166  -7.604   8.285  1.00  0.00    -0.394 OA
HETATM   33  C   UNL     1      45.295  -8.398   8.624  1.00  0.00     0.201 C 
ENDBRANCH  31  32
ENDBRANCH  30  31
ENDBRANCH  27  30
ENDBRANCH   7  26
TORSDOF 8
ENDMDL
MODEL 10
REMARK VINA RESULT:      -7.1      3.800      9.927
REMARK  8 active torsions:
REMARK  status: ('A' for Active; 'I' for Inactive)
REMARK    1  A    between atoms: C_2  and  C_3 
REMARK    2  A    between atoms: C_4  and  N_5 
REMARK    3  A    between atoms: N_5  and  S_6 
REMARK    4  A    between atoms: S_6  and  C_7 
REMARK    5  A    between atoms: C_13  and  C_14 
REMARK       I    between atoms: C_14  and  N_15 
REMARK    6  A    between atoms: N_15  and  C_16 
REMARK    7  A    between atoms: C_16  and  C_17 
REMARK    8  A    between atoms: C_17  and  O_18 
ROOT
HETATM    1  C   UNL     1      43.014  -7.894   8.515  1.00  0.00     0.081 A 
HETATM    2  C   UNL     1      42.451  -8.979   7.838  1.00  0.00     0.043 A 
HETATM    3  C   UNL     1      43.277 -10.039   7.450  1.00  0.00     0.043 A 
HETATM    4  C   UNL     1      44.646 -10.047   7.775  1.00  0.00     0.046 A 
HETATM    5  N   UNL     1      45.453 -11.111   7.361  1.00  0.00    -0.364 N 
HETATM    6  C   UNL     1      44.914 -12.187   6.704  1.00  0.00     0.109 A 
HETATM    7  C   UNL     1      43.629 -12.307   6.327  1.00  0.00     0.098 A 
HETATM    8  C   UNL     1      42.717 -11.181   6.677  1.00  0.00     0.201 A 
HETATM    9  O   UNL     1      41.537 -11.176   6.337  1.00  0.00    -0.286 OA
HETATM   10  C   UNL     1      45.189  -8.954   8.457  1.00  0.00     0.032 A 
HETATM   11  C   UNL     1      44.376  -7.881   8.833  1.00  0.00     0.027 A 
HETATM   12  H   UNL     1      46.401 -11.185   7.715  1.00  0.00     0.165 HD
ENDROOT
BRANCH   1  13
HETATM   13  S   UNL     1      41.971  -6.559   9.052  1.00  0.00     0.263 S 
HETATM   14  O   UNL     1      40.969  -6.362   8.023  1.00  0.00    -0.200 OA
HETATM   15  O   UNL     1      42.813  -5.468   9.485  1.00  0.00    -0.200 OA
BRANCH  13  16
HETATM   16  N   UNL     1      41.142  -7.232  10.365  1.00  0.00    -0.280 N 
HETATM   17  H   UNL     1      40.174  -6.915  10.370  1.00  0.00     0.179 HD
BRANCH  16  18
HETATM   18  C   UNL     1      41.809  -7.271  11.626  1.00  0.00     0.049 A 
HETATM   19  C   UNL     1      42.311  -8.473  12.152  1.00  0.00    -0.031 A 
HETATM   20  C   UNL     1      42.918  -8.447  13.419  1.00  0.00     0.009 A 
HETATM   21  C   UNL     1      43.009  -7.259  14.147  1.00  0.00     0.001 A 
HETATM   22  C   UNL     1      42.504  -6.077  13.615  1.00  0.00     0.002 A 
HETATM   23  C   UNL     1      41.907  -6.084  12.356  1.00  0.00     0.030 A 
BRANCH  19  24
HETATM   24  C   UNL     1      42.254  -9.785  11.406  1.00  0.00     0.036 C 
HETATM   25  C   UNL     1      43.594 -10.508  11.434  1.00  0.00     0.010 C 
ENDBRANCH  19  24
ENDBRANCH  16  18
ENDBRANCH  13  16
ENDBRANCH   1  13
BRANCH   7  26
HETATM   26  C   UNL     1      43.224 -13.531   5.582  1.00  0.00     0.257 C 
HETATM   27  N   UNL     1      42.492 -13.316   4.444  1.00  0.00    -0.355 N 
HETATM   28  H   UNL     1      42.155 -12.372   4.251  1.00  0.00     0.162 HD
HETATM   29  O   UNL     1      43.537 -14.656   5.969  1.00  0.00    -0.267 OA
BRANCH  27  30
HETATM   30  C   UNL     1      41.972 -14.401   3.633  1.00  0.00     0.149 C 
BRANCH  30  31
HETATM   31  C   UNL     1      40.453 -14.336   3.479  1.00  0.00     0.186 C 
BRANCH  31  32
HETATM   32  O   UNL     1      40.000 -15.519   2.810  1.00  0.00    -0.394 OA
HETATM   33  C   UNL     1      40.338 -15.499   1.429  1.00  0.00     0.201 C 
ENDBRANCH  31  32
ENDBRANCH  30  31
ENDBRANCH  27  30
ENDBRANCH   7  26
TORSDOF 8
ENDMDL
