MODEL 1
REMARK VINA RESULT:      -8.7      0.000      0.000
REMARK  5 active torsions:
REMARK  status: ('A' for Active; 'I' for Inactive)
REMARK    1  A    between atoms: C_6  and  N_7 
REMARK       I    between atoms: N_7  and  C_8 
REMARK    2  A    between atoms: C_8  and  C_9 
REMARK    3  A    between atoms: C_9  and  O_10 
REMARK    4  A    between atoms: O_10  and  C_11 
REMARK    5  A    between atoms: C_20  and  C_21 
ROOT
HETATM    1  C   UNL     1      42.288 -11.817   2.987  1.00  0.00     0.073 C 
HETATM    2  C   UNL     1      42.007 -12.895   3.967  1.00  0.00     0.065 A 
HETATM    3  N   UNL     1      41.212 -13.917   3.628  1.00  0.00    -0.177 NA
HETATM    4  N   UNL     1      41.155 -14.669   4.738  1.00  0.00    -0.262 N 
HETATM    5  H   UNL     1      40.621 -15.533   4.705  1.00  0.00     0.191 HD
HETATM    6  C   UNL     1      41.883 -14.170   5.787  1.00  0.00     0.137 A 
HETATM    7  C   UNL     1      42.462 -13.010   5.309  1.00  0.00     0.046 A 
ENDROOT
BRANCH   6   8
HETATM    8  N   UNL     1      42.032 -14.780   7.016  1.00  0.00    -0.309 N 
HETATM    9  C   UNL     1      43.083 -15.538   7.462  1.00  0.00     0.247 C 
HETATM   10  O   UNL     1      43.173 -15.789   8.667  1.00  0.00    -0.271 OA
HETATM   11  H   UNL     1      41.282 -14.674   7.691  1.00  0.00     0.170 HD
BRANCH   9  12
HETATM   12  C   UNL     1      44.008 -16.205   6.445  1.00  0.00     0.278 C 
BRANCH  12  13
HETATM   13  O   UNL     1      43.832 -17.611   6.361  1.00  0.00    -0.342 OA
BRANCH  13  14
HETATM   14  C   UNL     1      43.744 -18.118   5.089  1.00  0.00     0.072 A 
HETATM   15  C   UNL     1      44.011 -19.485   4.976  1.00  0.00     0.082 A 
HETATM   16  C   UNL     1      43.951 -20.101   3.728  1.00  0.00     0.157 A 
HETATM   17  F   UNL     1      44.195 -21.416   3.635  1.00  0.00    -0.203 F 
HETATM   18  C   UNL     1      43.638 -19.368   2.593  1.00  0.00     0.155 A 
HETATM   19  F   UNL     1      43.579 -19.964   1.395  1.00  0.00    -0.203 F 
HETATM   20  C   UNL     1      43.384 -18.005   2.688  1.00  0.00     0.048 A 
HETATM   21  C   UNL     1      43.438 -17.378   3.937  1.00  0.00     0.040 A 
ENDBRANCH  13  14
ENDBRANCH  12  13
ENDBRANCH   9  12
ENDBRANCH   6   8
BRANCH   7  22
HETATM   22  C   UNL     1      43.180 -12.061   6.138  1.00  0.00    -0.020 A 
HETATM   23  C   UNL     1      42.561 -10.901   6.618  1.00  0.00     0.014 A 
HETATM   24  C   UNL     1      43.298  -9.970   7.354  1.00  0.00     0.020 A 
HETATM   25  C   UNL     1      44.649 -10.203   7.615  1.00  0.00     0.011 A 
HETATM   26 BR   UNL     1      45.651  -8.931   8.590  1.00  0.00    -0.051 Br
HETATM   27  C   UNL     1      45.269 -11.363   7.156  1.00  0.00     0.020 A 
HETATM   28  C   UNL     1      44.533 -12.291   6.418  1.00  0.00     0.014 A 
ENDBRANCH   7  22
TORSDOF 5
ENDMDL
MODEL 2
REMARK VINA RESULT:      -8.5      3.969      6.497
REMARK  5 active torsions:
REMARK  status: ('A' for Active; 'I' for Inactive)
REMARK    1  A    between atoms: C_6  and  N_7 
REMARK       I    between atoms: N_7  and  C_8 
REMARK    2  A    between atoms: C_8  and  C_9 
REMARK    3  A    between atoms: C_9  and  O_10 
REMARK    4  A    between atoms: O_10  and  C_11 
REMARK    5  A    between atoms: C_20  and  C_21 
ROOT
HETATM    1  C   UNL     1      42.743 -20.252   1.682  1.00  0.00     0.073 C 
HETATM    2  C   UNL     1      43.440 -19.723   2.881  1.00  0.00     0.065 A 
HETATM    3  N   UNL     1      44.015 -20.567   3.747  1.00  0.00    -0.177 NA
HETATM    4  N   UNL     1      44.513 -19.766   4.702  1.00  0.00    -0.262 N 
HETATM    5  H   UNL     1      45.030 -20.194   5.465  1.00  0.00     0.191 HD
HETATM    6  C   UNL     1      44.279 -18.432   4.489  1.00  0.00     0.137 A 
HETATM    7  C   UNL     1      43.584 -18.371   3.296  1.00  0.00     0.046 A 
ENDROOT
BRANCH   6   8
HETATM    8  N   UNL     1      44.732 -17.405   5.291  1.00  0.00    -0.309 N 
HETATM    9  C   UNL     1      44.097 -16.818   6.355  1.00  0.00     0.247 C 
HETATM   10  O   UNL     1      44.745 -16.096   7.116  1.00  0.00    -0.271 OA
HETATM   11  H   UNL     1      45.645 -17.012   5.087  1.00  0.00     0.170 HD
BRANCH   9  12
HETATM   12  C   UNL     1      42.577 -16.920   6.465  1.00  0.00     0.278 C 
BRANCH  12  13
HETATM   13  O   UNL     1      41.987 -15.824   7.147  1.00  0.00    -0.342 OA
BRANCH  13  14
HETATM   14  C   UNL     1      41.547 -14.801   6.345  1.00  0.00     0.072 A 
HETATM   15  C   UNL     1      42.526 -14.223   5.533  1.00  0.00     0.082 A 
HETATM   16  C   UNL     1      42.189 -13.175   4.680  1.00  0.00     0.157 A 
HETATM   17  F   UNL     1      43.134 -12.640   3.895  1.00  0.00    -0.203 F 
HETATM   18  C   UNL     1      40.889 -12.691   4.636  1.00  0.00     0.155 A 
HETATM   19  F   UNL     1      40.567 -11.685   3.813  1.00  0.00    -0.203 F 
HETATM   20  C   UNL     1      39.909 -13.246   5.448  1.00  0.00     0.048 A 
HETATM   21  C   UNL     1      40.237 -14.301   6.306  1.00  0.00     0.040 A 
ENDBRANCH  13  14
ENDBRANCH  12  13
ENDBRANCH   9  12
ENDBRANCH   6   8
BRANCH   7  22
HETATM   22  C   UNL     1      42.978 -17.163   2.772  1.00  0.00    -0.020 A 
HETATM   23  C   UNL     1      41.616 -16.896   2.952  1.00  0.00     0.014 A 
HETATM   24  C   UNL     1      41.044 -15.759   2.374  1.00  0.00     0.020 A 
HETATM   25  C   UNL     1      41.836 -14.887   1.625  1.00  0.00     0.011 A 
HETATM   26 BR   UNL     1      41.058 -13.363   0.825  1.00  0.00    -0.051 Br
HETATM   27  C   UNL     1      43.196 -15.136   1.455  1.00  0.00     0.020 A 
HETATM   28  C   UNL     1      43.766 -16.273   2.030  1.00  0.00     0.014 A 
ENDBRANCH   7  22
TORSDOF 5
ENDMDL
MODEL 3
REMARK VINA RESULT:      -8.4      4.501      6.771
REMARK  5 active torsions:
REMARK  status: ('A' for Active; 'I' for Inactive)
REMARK    1  A    between atoms: C_6  and  N_7 
REMARK       I    between atoms: N_7  and  C_8 
REMARK    2  A    between atoms: C_8  and  C_9 
REMARK    3  A    between atoms: C_9  and  O_10 
REMARK    4  A    between atoms: O_10  and  C_11 
REMARK    5  A    between atoms: C_20  and  C_21 
ROOT
HETATM    1  C   UNL     1      39.745 -16.175   6.663  1.00  0.00     0.073 C 
HETATM    2  C   UNL     1      40.507 -15.012   6.145  1.00  0.00     0.065 A 
HETATM    3  N   UNL     1      40.166 -13.771   6.512  1.00  0.00    -0.177 NA
HETATM    4  N   UNL     1      41.028 -12.985   5.847  1.00  0.00    -0.262 N 
HETATM    5  H   UNL     1      40.976 -11.982   5.998  1.00  0.00     0.191 HD
HETATM    6  C   UNL     1      41.915 -13.672   5.060  1.00  0.00     0.137 A 
HETATM    7  C   UNL     1      41.605 -15.007   5.242  1.00  0.00     0.046 A 
ENDROOT
BRANCH   6   8
HETATM    8  N   UNL     1      42.934 -13.103   4.322  1.00  0.00    -0.309 N 
HETATM    9  C   UNL     1      42.833 -12.190   3.306  1.00  0.00     0.247 C 
HETATM   10  O   UNL     1      43.847 -11.595   2.932  1.00  0.00    -0.271 OA
HETATM   11  H   UNL     1      43.885 -13.383   4.535  1.00  0.00     0.170 HD
BRANCH   9  12
HETATM   12  C   UNL     1      41.517 -12.065   2.541  1.00  0.00     0.278 C 
BRANCH  12  13
HETATM   13  O   UNL     1      41.692 -11.812   1.155  1.00  0.00    -0.342 OA
BRANCH  13  14
HETATM   14  C   UNL     1      41.002 -12.648   0.313  1.00  0.00     0.072 A 
HETATM   15  C   UNL     1      40.639 -13.878   0.867  1.00  0.00     0.082 A 
HETATM   16  C   UNL     1      39.936 -14.803   0.099  1.00  0.00     0.157 A 
HETATM   17  F   UNL     1      39.581 -15.974   0.647  1.00  0.00    -0.203 F 
HETATM   18  C   UNL     1      39.601 -14.518  -1.217  1.00  0.00     0.155 A 
HETATM   19  F   UNL     1      38.923 -15.409  -1.952  1.00  0.00    -0.203 F 
HETATM   20  C   UNL     1      39.968 -13.305  -1.785  1.00  0.00     0.048 A 
HETATM   21  C   UNL     1      40.671 -12.368  -1.021  1.00  0.00     0.040 A 
ENDBRANCH  13  14
ENDBRANCH  12  13
ENDBRANCH   9  12
ENDBRANCH   6   8
BRANCH   7  22
HETATM   22  C   UNL     1      42.181 -16.086   4.463  1.00  0.00    -0.020 A 
HETATM   23  C   UNL     1      41.728 -16.371   3.170  1.00  0.00     0.014 A 
HETATM   24  C   UNL     1      42.252 -17.462   2.471  1.00  0.00     0.020 A 
HETATM   25  C   UNL     1      43.232 -18.261   3.063  1.00  0.00     0.011 A 
HETATM   26 BR   UNL     1      43.923 -19.750   2.127  1.00  0.00    -0.051 Br
HETATM   27  C   UNL     1      43.701 -17.974   4.343  1.00  0.00     0.020 A 
HETATM   28  C   UNL     1      43.175 -16.886   5.042  1.00  0.00     0.014 A 
ENDBRANCH   7  22
TORSDOF 5
ENDMDL
MODEL 4
REMARK VINA RESULT:      -7.9      5.213      7.411
REMARK  5 active torsions:
REMARK  status: ('A' for Active; 'I' for Inactive)
REMARK    1  A    between atoms: C_6  and  N_7 
REMARK       I    between atoms: N_7  and  C_8 
REMARK    2  A    between atoms: C_8  and  C_9 
REMARK    3  A    between atoms: C_9  and  O_10 
REMARK    4  A    between atoms: O_10  and  C_11 
REMARK    5  A    between atoms: C_20  and  C_21 
ROOT
HETATM    1  C   UNL     1      44.013 -13.281   6.603  1.00  0.00     0.073 C 
HETATM    2  C   UNL     1      42.765 -13.454   5.820  1.00  0.00     0.065 A 
HETATM    3  N   UNL     1      41.895 -12.442   5.715  1.00  0.00    -0.177 NA
HETATM    4  N   UNL     1      40.892 -12.948   4.980  1.00  0.00    -0.262 N 
HETATM    5  H   UNL     1      40.116 -12.337   4.742  1.00  0.00     0.191 HD
HETATM    6  C   UNL     1      41.079 -14.253   4.606  1.00  0.00     0.137 A 
HETATM    7  C   UNL     1      42.305 -14.611   5.135  1.00  0.00     0.046 A 
ENDROOT
BRANCH   6   8
HETATM    8  N   UNL     1      40.225 -14.984   3.805  1.00  0.00    -0.309 N 
HETATM    9  C   UNL     1      40.345 -15.256   2.467  1.00  0.00     0.247 C 
HETATM   10  O   UNL     1      39.635 -16.132   1.967  1.00  0.00    -0.271 OA
HETATM   11  H   UNL     1      39.393 -15.376   4.234  1.00  0.00     0.170 HD
BRANCH   9  12
HETATM   12  C   UNL     1      41.212 -14.349   1.596  1.00  0.00     0.278 C 
BRANCH  12  13
HETATM   13  O   UNL     1      40.561 -13.147   1.211  1.00  0.00    -0.342 OA
BRANCH  13  14
HETATM   14  C   UNL     1      39.753 -13.246   0.106  1.00  0.00     0.072 A 
HETATM   15  C   UNL     1      38.815 -12.219  -0.035  1.00  0.00     0.082 A 
HETATM   16  C   UNL     1      37.943 -12.221  -1.121  1.00  0.00     0.157 A 
HETATM   17  F   UNL     1      37.058 -11.224  -1.252  1.00  0.00    -0.203 F 
HETATM   18  C   UNL     1      37.991 -13.241  -2.062  1.00  0.00     0.155 A 
HETATM   19  F   UNL     1      37.153 -13.238  -3.106  1.00  0.00    -0.203 F 
HETATM   20  C   UNL     1      38.908 -14.274  -1.927  1.00  0.00     0.048 A 
HETATM   21  C   UNL     1      39.790 -14.280  -0.841  1.00  0.00     0.040 A 
ENDBRANCH  13  14
ENDBRANCH  12  13
ENDBRANCH   9  12
ENDBRANCH   6   8
BRANCH   7  22
HETATM   22  C   UNL     1      42.824 -15.965   5.132  1.00  0.00    -0.020 A 
HETATM   23  C   UNL     1      43.363 -16.534   3.973  1.00  0.00     0.014 A 
HETATM   24  C   UNL     1      43.790 -17.865   3.981  1.00  0.00     0.020 A 
HETATM   25  C   UNL     1      43.685 -18.621   5.150  1.00  0.00     0.011 A 
HETATM   26 BR   UNL     1      44.240 -20.427   5.154  1.00  0.00    -0.051 Br
HETATM   27  C   UNL     1      43.166 -18.057   6.313  1.00  0.00     0.020 A 
HETATM   28  C   UNL     1      42.737 -16.729   6.303  1.00  0.00     0.014 A 
ENDBRANCH   7  22
TORSDOF 5
ENDMDL
MODEL 5
REMARK VINA RESULT:      -7.9      3.812      5.726
REMARK  5 active torsions:
REMARK  status: ('A' for Active; 'I' for Inactive)
REMARK    1  A    between atoms: C_6  and  N_7 
REMARK       I    between atoms: N_7  and  C_8 
REMARK    2  A    between atoms: C_8  and  C_9 
REMARK    3  A    between atoms: C_9  and  O_10 
REMARK    4  A    between atoms: O_10  and  C_11 
REMARK    5  A    between atoms: C_20  and  C_21 
ROOT
HETATM    1  C   UNL     1      40.616 -12.780  -0.986  1.00  0.00     0.073 C 
HETATM    2  C   UNL     1      40.003 -12.562   0.348  1.00  0.00     0.065 A 
HETATM    3  N   UNL     1      39.284 -11.457   0.581  1.00  0.00    -0.177 NA
HETATM    4  N   UNL     1      38.917 -11.572   1.867  1.00  0.00    -0.262 N 
HETATM    5  H   UNL     1      38.326 -10.846   2.263  1.00  0.00     0.191 HD
HETATM    6  C   UNL     1      39.373 -12.711   2.478  1.00  0.00     0.137 A 
HETATM    7  C   UNL     1      40.082 -13.387   1.503  1.00  0.00     0.046 A 
ENDROOT
BRANCH   6   8
HETATM    8  N   UNL     1      39.089 -13.090   3.774  1.00  0.00    -0.309 N 
HETATM    9  C   UNL     1      39.857 -12.913   4.895  1.00  0.00     0.247 C 
HETATM   10  O   UNL     1      39.344 -13.076   6.005  1.00  0.00    -0.271 OA
HETATM   11  H   UNL     1      38.209 -13.565   3.946  1.00  0.00     0.170 HD
BRANCH   9  12
HETATM   12  C   UNL     1      41.362 -12.703   4.742  1.00  0.00     0.278 C 
BRANCH  12  13
HETATM   13  O   UNL     1      42.101 -13.059   5.901  1.00  0.00    -0.342 OA
BRANCH  13  14
HETATM   14  C   UNL     1      42.425 -14.389   6.005  1.00  0.00     0.072 A 
HETATM   15  C   UNL     1      43.775 -14.653   6.249  1.00  0.00     0.082 A 
HETATM   16  C   UNL     1      44.213 -15.970   6.371  1.00  0.00     0.157 A 
HETATM   17  F   UNL     1      45.508 -16.209   6.620  1.00  0.00    -0.203 F 
HETATM   18  C   UNL     1      43.320 -17.025   6.243  1.00  0.00     0.155 A 
HETATM   19  F   UNL     1      43.744 -18.289   6.364  1.00  0.00    -0.203 F 
HETATM   20  C   UNL     1      41.978 -16.778   5.987  1.00  0.00     0.048 A 
HETATM   21  C   UNL     1      41.528 -15.459   5.865  1.00  0.00     0.040 A 
ENDBRANCH  13  14
ENDBRANCH  12  13
ENDBRANCH   9  12
ENDBRANCH   6   8
BRANCH   7  22
HETATM   22  C   UNL     1      40.889 -14.565   1.758  1.00  0.00    -0.020 A 
HETATM   23  C   UNL     1      40.299 -15.799   2.051  1.00  0.00     0.014 A 
HETATM   24  C   UNL     1      41.102 -16.900   2.364  1.00  0.00     0.020 A 
HETATM   25  C   UNL     1      42.491 -16.767   2.374  1.00  0.00     0.011 A 
HETATM   26 BR   UNL     1      43.575 -18.249   2.819  1.00  0.00    -0.051 Br
HETATM   27  C   UNL     1      43.087 -15.546   2.065  1.00  0.00     0.020 A 
HETATM   28  C   UNL     1      42.285 -14.446   1.757  1.00  0.00     0.014 A 
ENDBRANCH   7  22
TORSDOF 5
ENDMDL
MODEL 6
REMARK VINA RESULT:      -7.8      5.027      7.937
REMARK  5 active torsions:
REMARK  status: ('A' for Active; 'I' for Inactive)
REMARK    1  A    between atoms: C_6  and  N_7 
REMARK       I    between atoms: N_7  and  C_8 
REMARK    2  A    between atoms: C_8  and  C_9 
REMARK    3  A    between atoms: C_9  and  O_10 
REMARK    4  A    between atoms: O_10  and  C_11 
REMARK    5  A    between atoms: C_20  and  C_21 
ROOT
HETATM    1  C   UNL     1      39.843 -15.838   6.814  1.00  0.00     0.073 C 
HETATM    2  C   UNL     1      40.392 -14.668   6.082  1.00  0.00     0.065 A 
HETATM    3  N   UNL     1      39.937 -13.438   6.351  1.00  0.00    -0.177 NA
HETATM    4  N   UNL     1      40.615 -12.647   5.504  1.00  0.00    -0.262 N 
HETATM    5  H   UNL     1      40.453 -11.645   5.550  1.00  0.00     0.191 HD
HETATM    6  C   UNL     1      41.492 -13.321   4.694  1.00  0.00     0.137 A 
HETATM    7  C   UNL     1      41.375 -14.649   5.057  1.00  0.00     0.046 A 
ENDROOT
BRANCH   6   8
HETATM    8  N   UNL     1      42.344 -12.735   3.780  1.00  0.00    -0.309 N 
HETATM    9  C   UNL     1      43.443 -11.955   4.026  1.00  0.00     0.247 C 
HETATM   10  O   UNL     1      44.236 -11.729   3.109  1.00  0.00    -0.271 OA
HETATM   11  H   UNL     1      42.152 -12.880   2.794  1.00  0.00     0.170 HD
BRANCH   9  12
HETATM   12  C   UNL     1      43.563 -11.236   5.369  1.00  0.00     0.278 C 
BRANCH  12  13
HETATM   13  O   UNL     1      44.653 -11.693   6.156  1.00  0.00    -0.342 OA
BRANCH  13  14
HETATM   14  C   UNL     1      44.874 -10.991   7.315  1.00  0.00     0.072 A 
HETATM   15  C   UNL     1      43.926 -11.194   8.321  1.00  0.00     0.082 A 
HETATM   16  C   UNL     1      44.054 -10.530   9.539  1.00  0.00     0.157 A 
HETATM   17  F   UNL     1      43.146 -10.744  10.500  1.00  0.00    -0.203 F 
HETATM   18  C   UNL     1      45.113  -9.660   9.759  1.00  0.00     0.155 A 
HETATM   19  F   UNL     1      45.235  -9.025  10.932  1.00  0.00    -0.203 F 
HETATM   20  C   UNL     1      46.055  -9.438   8.764  1.00  0.00     0.048 A 
HETATM   21  C   UNL     1      45.937 -10.103   7.539  1.00  0.00     0.040 A 
ENDBRANCH  13  14
ENDBRANCH  12  13
ENDBRANCH   9  12
ENDBRANCH   6   8
BRANCH   7  22
HETATM   22  C   UNL     1      41.996 -15.743   4.335  1.00  0.00    -0.020 A 
HETATM   23  C   UNL     1      41.488 -16.186   3.109  1.00  0.00     0.014 A 
HETATM   24  C   UNL     1      42.063 -17.289   2.472  1.00  0.00     0.020 A 
HETATM   25  C   UNL     1      43.148 -17.942   3.058  1.00  0.00     0.011 A 
HETATM   26 BR   UNL     1      43.910 -19.448   2.207  1.00  0.00    -0.051 Br
HETATM   27  C   UNL     1      43.671 -17.498   4.270  1.00  0.00     0.020 A 
HETATM   28  C   UNL     1      43.095 -16.398   4.907  1.00  0.00     0.014 A 
ENDBRANCH   7  22
TORSDOF 5
ENDMDL
MODEL 7
REMARK VINA RESULT:      -7.8     15.570     17.123
REMARK  5 active torsions:
REMARK  status: ('A' for Active; 'I' for Inactive)
REMARK    1  A    between atoms: C_6  and  N_7 
REMARK       I    between atoms: N_7  and  C_8 
REMARK    2  A    between atoms: C_8  and  C_9 
REMARK    3  A    between atoms: C_9  and  O_10 
REMARK    4  A    between atoms: O_10  and  C_11 
REMARK    5  A    between atoms: C_20  and  C_21 
ROOT
HETATM    1  C   UNL     1      43.768 -29.466  -3.481  1.00  0.00     0.073 C 
HETATM    2  C   UNL     1      44.710 -28.869  -2.501  1.00  0.00     0.065 A 
HETATM    3  N   UNL     1      45.798 -28.218  -2.931  1.00  0.00    -0.177 NA
HETATM    4  N   UNL     1      46.422 -27.845  -1.802  1.00  0.00    -0.262 N 
HETATM    5  H   UNL     1      47.275 -27.300  -1.884  1.00  0.00     0.191 HD
HETATM    6  C   UNL     1      45.779 -28.233  -0.656  1.00  0.00     0.137 A 
HETATM    7  C   UNL     1      44.645 -28.899  -1.082  1.00  0.00     0.046 A 
ENDROOT
BRANCH   6   8
HETATM    8  N   UNL     1      46.183 -27.928   0.628  1.00  0.00    -0.309 N 
HETATM    9  C   UNL     1      47.193 -28.502   1.356  1.00  0.00     0.247 C 
HETATM   10  O   UNL     1      47.588 -27.940   2.381  1.00  0.00    -0.271 OA
HETATM   11  H   UNL     1      45.685 -27.194   1.120  1.00  0.00     0.170 HD
BRANCH   9  12
HETATM   12  C   UNL     1      47.675 -29.904   0.988  1.00  0.00     0.278 C 
BRANCH  12  13
HETATM   13  O   UNL     1      49.049 -30.120   1.275  1.00  0.00    -0.342 OA
BRANCH  13  14
HETATM   14  C   UNL     1      49.838 -30.402   0.188  1.00  0.00     0.072 A 
HETATM   15  C   UNL     1      50.931 -31.233   0.449  1.00  0.00     0.082 A 
HETATM   16  C   UNL     1      51.799 -31.581  -0.583  1.00  0.00     0.157 A 
HETATM   17  F   UNL     1      52.835 -32.391  -0.322  1.00  0.00    -0.203 F 
HETATM   18  C   UNL     1      51.593 -31.103  -1.869  1.00  0.00     0.155 A 
HETATM   19  F   UNL     1      52.428 -31.442  -2.860  1.00  0.00    -0.203 F 
HETATM   20  C   UNL     1      50.519 -30.265  -2.141  1.00  0.00     0.048 A 
HETATM   21  C   UNL     1      49.640 -29.912  -1.112  1.00  0.00     0.040 A 
ENDBRANCH  13  14
ENDBRANCH  12  13
ENDBRANCH   9  12
ENDBRANCH   6   8
BRANCH   7  22
HETATM   22  C   UNL     1      43.758 -29.634  -0.201  1.00  0.00    -0.020 A 
HETATM   23  C   UNL     1      42.837 -28.972   0.619  1.00  0.00     0.014 A 
HETATM   24  C   UNL     1      42.045 -29.702   1.510  1.00  0.00     0.020 A 
HETATM   25  C   UNL     1      42.169 -31.091   1.573  1.00  0.00     0.011 A 
HETATM   26 BR   UNL     1      41.115 -32.074   2.795  1.00  0.00    -0.051 Br
HETATM   27  C   UNL     1      43.070 -31.759   0.748  1.00  0.00     0.020 A 
HETATM   28  C   UNL     1      43.863 -31.030  -0.140  1.00  0.00     0.014 A 
ENDBRANCH   7  22
TORSDOF 5
ENDMDL
MODEL 8
REMARK VINA RESULT:      -7.6      2.773      3.804
REMARK  5 active torsions:
REMARK  status: ('A' for Active; 'I' for Inactive)
REMARK    1  A    between atoms: C_6  and  N_7 
REMARK       I    between atoms: N_7  and  C_8 
REMARK    2  A    between atoms: C_8  and  C_9 
REMARK    3  A    between atoms: C_9  and  O_10 
REMARK    4  A    between atoms: O_10  and  C_11 
REMARK    5  A    between atoms: C_20  and  C_21 
ROOT
HETATM    1  C   UNL     1      40.807 -11.952  -0.630  1.00  0.00     0.073 C 
HETATM    2  C   UNL     1      40.499 -13.102   0.256  1.00  0.00     0.065 A 
HETATM    3  N   UNL     1      40.067 -14.256  -0.270  1.00  0.00    -0.177 NA
HETATM    4  N   UNL     1      39.865 -15.045   0.797  1.00  0.00    -0.262 N 
HETATM    5  H   UNL     1      39.557 -16.000   0.635  1.00  0.00     0.191 HD
HETATM    6  C   UNL     1      40.149 -14.445   1.996  1.00  0.00     0.137 A 
HETATM    7  C   UNL     1      40.577 -13.171   1.673  1.00  0.00     0.046 A 
ENDROOT
BRANCH   6   8
HETATM    8  N   UNL     1      40.077 -15.057   3.231  1.00  0.00    -0.309 N 
HETATM    9  C   UNL     1      41.087 -15.261   4.135  1.00  0.00     0.247 C 
HETATM   10  O   UNL     1      40.801 -15.588   5.289  1.00  0.00    -0.271 OA
HETATM   11  H   UNL     1      39.175 -15.414   3.531  1.00  0.00     0.170 HD
BRANCH   9  12
HETATM   12  C   UNL     1      42.535 -15.261   3.648  1.00  0.00     0.278 C 
BRANCH  12  13
HETATM   13  O   UNL     1      42.781 -16.203   2.614  1.00  0.00    -0.342 OA
BRANCH  13  14
HETATM   14  C   UNL     1      43.196 -17.442   3.035  1.00  0.00     0.072 A 
HETATM   15  C   UNL     1      42.991 -18.477   2.119  1.00  0.00     0.082 A 
HETATM   16  C   UNL     1      43.375 -19.776   2.445  1.00  0.00     0.157 A 
HETATM   17  F   UNL     1      43.187 -20.758   1.552  1.00  0.00    -0.203 F 
HETATM   18  C   UNL     1      43.951 -20.053   3.676  1.00  0.00     0.155 A 
HETATM   19  F   UNL     1      44.322 -21.303   3.985  1.00  0.00    -0.203 F 
HETATM   20  C   UNL     1      44.148 -19.036   4.601  1.00  0.00     0.048 A 
HETATM   21  C   UNL     1      43.769 -17.728   4.283  1.00  0.00     0.040 A 
ENDBRANCH  13  14
ENDBRANCH  12  13
ENDBRANCH   9  12
ENDBRANCH   6   8
BRANCH   7  22
HETATM   22  C   UNL     1      40.817 -12.125   2.649  1.00  0.00    -0.020 A 
HETATM   23  C   UNL     1      42.100 -11.609   2.860  1.00  0.00     0.014 A 
HETATM   24  C   UNL     1      42.314 -10.653   3.857  1.00  0.00     0.020 A 
HETATM   25  C   UNL     1      41.243 -10.210   4.635  1.00  0.00     0.011 A 
HETATM   26 BR   UNL     1      41.537  -8.935   5.999  1.00  0.00    -0.051 Br
HETATM   27  C   UNL     1      39.959 -10.705   4.420  1.00  0.00     0.020 A 
HETATM   28  C   UNL     1      39.747 -11.662   3.427  1.00  0.00     0.014 A 
ENDBRANCH   7  22
TORSDOF 5
ENDMDL
MODEL 9
REMARK VINA RESULT:      -7.5      4.558      6.118
REMARK  5 active torsions:
REMARK  status: ('A' for Active; 'I' for Inactive)
REMARK    1  A    between atoms: C_6  and  N_7 
REMARK       I    between atoms: N_7  and  C_8 
REMARK    2  A    between atoms: C_8  and  C_9 
REMARK    3  A    between atoms: C_9  and  O_10 
REMARK    4  A    between atoms: O_10  and  C_11 
REMARK    5  A    between atoms: C_20  and  C_21 
ROOT
HETATM    1  C   UNL     1      39.685  -9.867   2.673  1.00  0.00     0.073 C 
HETATM    2  C   UNL     1      39.496 -11.336   2.764  1.00  0.00     0.065 A 
HETATM    3  N   UNL     1      38.368 -11.895   2.307  1.00  0.00    -0.177 NA
HETATM    4  N   UNL     1      38.522 -13.202   2.572  1.00  0.00    -0.262 N 
HETATM    5  H   UNL     1      37.787 -13.840   2.279  1.00  0.00     0.191 HD
HETATM    6  C   UNL     1      39.707 -13.511   3.186  1.00  0.00     0.137 A 
HETATM    7  C   UNL     1      40.373 -12.307   3.317  1.00  0.00     0.046 A 
ENDROOT
BRANCH   6   8
HETATM    8  N   UNL     1      40.129 -14.785   3.512  1.00  0.00    -0.309 N 
HETATM    9  C   UNL     1      41.005 -15.587   2.829  1.00  0.00     0.247 C 
HETATM   10  O   UNL     1      41.467 -16.584   3.390  1.00  0.00    -0.271 OA
HETATM   11  H   UNL     1      39.754 -15.205   4.356  1.00  0.00     0.170 HD
BRANCH   9  12
HETATM   12  C   UNL     1      41.242 -15.336   1.341  1.00  0.00     0.278 C 
BRANCH  12  13
HETATM   13  O   UNL     1      40.048 -15.327   0.574  1.00  0.00    -0.342 OA
BRANCH  13  14
HETATM   14  C   UNL     1      39.989 -14.373  -0.411  1.00  0.00     0.072 A 
HETATM   15  C   UNL     1      39.270 -14.742  -1.551  1.00  0.00     0.082 A 
HETATM   16  C   UNL     1      39.149 -13.848  -2.613  1.00  0.00     0.157 A 
HETATM   17  F   UNL     1      38.444 -14.209  -3.694  1.00  0.00    -0.203 F 
HETATM   18  C   UNL     1      39.744 -12.597  -2.553  1.00  0.00     0.155 A 
HETATM   19  F   UNL     1      39.624 -11.739  -3.575  1.00  0.00    -0.203 F 
HETATM   20  C   UNL     1      40.474 -12.222  -1.432  1.00  0.00     0.048 A 
HETATM   21  C   UNL     1      40.599 -13.111  -0.360  1.00  0.00     0.040 A 
ENDBRANCH  13  14
ENDBRANCH  12  13
ENDBRANCH   9  12
ENDBRANCH   6   8
BRANCH   7  22
HETATM   22  C   UNL     1      41.599 -12.138   4.073  1.00  0.00    -0.020 A 
HETATM   23  C   UNL     1      41.597 -12.147   5.473  1.00  0.00     0.014 A 
HETATM   24  C   UNL     1      42.782 -11.909   6.175  1.00  0.00     0.020 A 
HETATM   25  C   UNL     1      43.967 -11.671   5.477  1.00  0.00     0.011 A 
HETATM   26 BR   UNL     1      45.564 -11.326   6.427  1.00  0.00    -0.051 Br
HETATM   27  C   UNL     1      43.982 -11.676   4.084  1.00  0.00     0.020 A 
HETATM   28  C   UNL     1      42.798 -11.911   3.384  1.00  0.00     0.014 A 
ENDBRANCH   7  22
TORSDOF 5
ENDMDL
MODEL 10
REMARK VINA RESULT:      -7.4      4.439      6.128
REMARK  5 active torsions:
REMARK  status: ('A' for Active; 'I' for Inactive)
REMARK    1  A    between atoms: C_6  and  N_7 
REMARK       I    between atoms: N_7  and  C_8 
REMARK    2  A    between atoms: C_8  and  C_9 
REMARK    3  A    between atoms: C_9  and  O_10 
REMARK    4  A    between atoms: O_10  and  C_11 
REMARK    5  A    between atoms: C_20  and  C_21 
ROOT
HETATM    1  C   UNL     1      39.452 -10.121   4.570  1.00  0.00     0.073 C 
HETATM    2  C   UNL     1      39.495 -11.558   4.204  1.00  0.00     0.065 A 
HETATM    3  N   UNL     1      39.955 -12.459   5.081  1.00  0.00    -0.177 NA
HETATM    4  N   UNL     1      39.881 -13.625   4.421  1.00  0.00    -0.262 N 
HETATM    5  H   UNL     1      40.156 -14.471   4.911  1.00  0.00     0.191 HD
HETATM    6  C   UNL     1      39.392 -13.514   3.146  1.00  0.00     0.137 A 
HETATM    7  C   UNL     1      39.120 -12.169   2.977  1.00  0.00     0.046 A 
ENDROOT
BRANCH   6   8
HETATM    8  N   UNL     1      39.167 -14.567   2.283  1.00  0.00    -0.309 N 
HETATM    9  C   UNL     1      40.091 -15.387   1.689  1.00  0.00     0.247 C 
HETATM   10  O   UNL     1      39.711 -16.433   1.156  1.00  0.00    -0.271 OA
HETATM   11  H   UNL     1      38.206 -14.780   2.036  1.00  0.00     0.170 HD
BRANCH   9  12
HETATM   12  C   UNL     1      41.532 -14.902   1.540  1.00  0.00     0.278 C 
BRANCH  12  13
HETATM   13  O   UNL     1      42.250 -14.885   2.764  1.00  0.00    -0.342 OA
BRANCH  13  14
HETATM   14  C   UNL     1      42.856 -16.068   3.107  1.00  0.00     0.072 A 
HETATM   15  C   UNL     1      43.309 -16.141   4.426  1.00  0.00     0.082 A 
HETATM   16  C   UNL     1      43.941 -17.297   4.879  1.00  0.00     0.157 A 
HETATM   17  F   UNL     1      44.358 -17.360   6.151  1.00  0.00    -0.203 F 
HETATM   18  C   UNL     1      44.132 -18.376   4.028  1.00  0.00     0.155 A 
HETATM   19  F   UNL     1      44.737 -19.487   4.467  1.00  0.00    -0.203 F 
HETATM   20  C   UNL     1      43.699 -18.312   2.710  1.00  0.00     0.048 A 
HETATM   21  C   UNL     1      43.061 -17.157   2.246  1.00  0.00     0.040 A 
ENDBRANCH  13  14
ENDBRANCH  12  13
ENDBRANCH   9  12
ENDBRANCH   6   8
BRANCH   7  22
HETATM   22  C   UNL     1      38.747 -11.571   1.709  1.00  0.00    -0.020 A 
HETATM   23  C   UNL     1      39.703 -11.305   0.722  1.00  0.00     0.014 A 
HETATM   24  C   UNL     1      39.326 -10.662  -0.460  1.00  0.00     0.020 A 
HETATM   25  C   UNL     1      37.994 -10.294  -0.656  1.00  0.00     0.011 A 
HETATM   26 BR   UNL     1      37.489  -9.403  -2.245  1.00  0.00    -0.051 Br
HETATM   27  C   UNL     1      37.033 -10.570   0.314  1.00  0.00     0.020 A 
HETATM   28  C   UNL     1      37.411 -11.209   1.495  1.00  0.00     0.014 A 
ENDBRANCH   7  22
TORSDOF 5
ENDMDL
