MODEL 1
REMARK VINA RESULT:      -6.5      0.000      0.000
REMARK  8 active torsions:
REMARK  status: ('A' for Active; 'I' for Inactive)
REMARK    1  A    between atoms: C_2  and  N_3 
REMARK    2  A    between atoms: C_2  and  C_17 
REMARK    3  A    between atoms: N_3  and  C_6 
REMARK    4  A    between atoms: C_6  and  C_7 
REMARK    5  A    between atoms: C_7  and  O_8 
REMARK    6  A    between atoms: C_7  and  C_9 
REMARK    7  A    between atoms: C_11  and  O_12 
REMARK    8  A    between atoms: C_17  and  C_18 
ROOT
HETATM    1  N   UNL     1      41.571 -12.403   6.250  1.00  0.00    -0.068 N 
HETATM    2  H   UNL     1      41.651 -12.372   7.276  1.00  0.00     0.277 HD
HETATM    3  H   UNL     1      40.832 -13.110   6.083  1.00  0.00     0.277 HD
ENDROOT
BRANCH   1   4
HETATM    4  C   UNL     1      41.182 -11.035   5.742  1.00  0.00     0.188 C 
HETATM    5  C   UNL     1      41.149 -10.112   6.964  1.00  0.00     0.040 C 
BRANCH   4   6
HETATM    6  C   UNL     1      39.824 -11.084   5.017  1.00  0.00     0.099 C 
BRANCH   6   7
HETATM    7  C   UNL     1      39.864 -12.023   3.852  1.00  0.00     0.078 A 
HETATM    8  S   UNL     1      40.132 -11.432   2.267  1.00  0.00    -0.073 SA
HETATM    9  C   UNL     1      40.046 -13.039   1.652  1.00  0.00     0.035 A 
HETATM   10  C   UNL     1      39.804 -13.917   2.712  1.00  0.00     0.074 A 
HETATM   11  C   UNL     1      40.181 -13.491   0.329  1.00  0.00     0.021 A 
HETATM   12  N   UNL     1      39.695 -13.321   3.961  1.00  0.00    -0.245 NA
HETATM   13  C   UNL     1      39.697 -15.295   2.439  1.00  0.00     0.033 A 
HETATM   14  C   UNL     1      39.835 -15.757   1.125  1.00  0.00     0.002 A 
HETATM   15  C   UNL     1      40.073 -14.863   0.086  1.00  0.00     0.002 A 
ENDBRANCH   6   7
ENDBRANCH   4   6
ENDBRANCH   1   4
BRANCH   1  16
HETATM   16  C   UNL     1      42.849 -13.005   5.714  1.00  0.00     0.269 C 
BRANCH  16  17
HETATM   17  C   UNL     1      42.644 -14.533   5.623  1.00  0.00     0.177 C 
BRANCH  17  18
HETATM   18  O   UNL     1      41.295 -14.809   6.039  1.00  0.00    -0.389 OA
HETATM   19  H   UNL     1      40.863 -13.940   6.176  1.00  0.00     0.210 HD
ENDBRANCH  17  18
BRANCH  17  20
HETATM   20  C   UNL     1      42.922 -15.069   4.242  1.00  0.00    -0.025 A 
HETATM   21  C   UNL     1      42.862 -16.449   3.964  1.00  0.00     0.046 A 
HETATM   22  C   UNL     1      43.104 -16.927   2.674  1.00  0.00     0.068 A 
HETATM   23  C   UNL     1      43.384 -16.021   1.650  1.00  0.00     0.037 A 
HETATM   24  C   UNL     1      43.442 -14.653   1.909  1.00  0.00     0.003 A 
HETATM   25  C   UNL     1      43.213 -14.178   3.198  1.00  0.00     0.010 A 
BRANCH  22  26
HETATM   26  O   UNL     1      43.080 -18.236   2.286  1.00  0.00    -0.356 OA
HETATM   27  C   UNL     1      44.057 -19.103   2.845  1.00  0.00     0.210 C 
ENDBRANCH  22  26
ENDBRANCH  17  20
ENDBRANCH  16  17
ENDBRANCH   1  16
TORSDOF 8
ENDMDL
MODEL 2
REMARK VINA RESULT:      -6.4      2.940      5.740
REMARK  8 active torsions:
REMARK  status: ('A' for Active; 'I' for Inactive)
REMARK    1  A    between atoms: C_2  and  N_3 
REMARK    2  A    between atoms: C_2  and  C_17 
REMARK    3  A    between atoms: N_3  and  C_6 
REMARK    4  A    between atoms: C_6  and  C_7 
REMARK    5  A    between atoms: C_7  and  O_8 
REMARK    6  A    between atoms: C_7  and  C_9 
REMARK    7  A    between atoms: C_11  and  O_12 
REMARK    8  A    between atoms: C_17  and  C_18 
ROOT
HETATM    1  N   UNL     1      40.581 -14.748   4.468  1.00  0.00    -0.068 N 
HETATM    2  H   UNL     1      40.653 -15.723   4.146  1.00  0.00     0.277 HD
HETATM    3  H   UNL     1      39.639 -14.701   4.898  1.00  0.00     0.277 HD
ENDROOT
BRANCH   1   4
HETATM    4  C   UNL     1      41.681 -14.474   5.466  1.00  0.00     0.188 C 
HETATM    5  C   UNL     1      41.487 -13.030   5.939  1.00  0.00     0.040 C 
BRANCH   4   6
HETATM    6  C   UNL     1      43.067 -14.694   4.831  1.00  0.00     0.099 C 
BRANCH   6   7
HETATM    7  C   UNL     1      43.283 -16.134   4.483  1.00  0.00     0.078 A 
HETATM    8  S   UNL     1      43.918 -17.222   5.643  1.00  0.00    -0.073 SA
HETATM    9  C   UNL     1      43.812 -18.505   4.498  1.00  0.00     0.035 A 
HETATM   10  C   UNL     1      43.305 -18.000   3.297  1.00  0.00     0.074 A 
HETATM   11  C   UNL     1      44.153 -19.859   4.648  1.00  0.00     0.021 A 
HETATM   12  N   UNL     1      43.014 -16.642   3.302  1.00  0.00    -0.245 NA
HETATM   13  C   UNL     1      43.129 -18.881   2.211  1.00  0.00     0.033 A 
HETATM   14  C   UNL     1      43.461 -20.233   2.352  1.00  0.00     0.002 A 
HETATM   15  C   UNL     1      43.967 -20.712   3.557  1.00  0.00     0.002 A 
ENDBRANCH   6   7
ENDBRANCH   4   6
ENDBRANCH   1   4
BRANCH   1  16
HETATM   16  C   UNL     1      40.522 -13.867   3.242  1.00  0.00     0.269 C 
BRANCH  16  17
HETATM   17  C   UNL     1      40.384 -14.789   2.010  1.00  0.00     0.177 C 
BRANCH  17  18
HETATM   18  O   UNL     1      39.149 -15.513   2.153  1.00  0.00    -0.389 OA
HETATM   19  H   UNL     1      39.276 -16.134   2.900  1.00  0.00     0.210 HD
ENDBRANCH  17  18
BRANCH  17  20
HETATM   20  C   UNL     1      40.435 -14.025   0.712  1.00  0.00    -0.025 A 
HETATM   21  C   UNL     1      40.056 -14.622  -0.506  1.00  0.00     0.046 A 
HETATM   22  C   UNL     1      40.091 -13.894  -1.698  1.00  0.00     0.068 A 
HETATM   23  C   UNL     1      40.484 -12.555  -1.670  1.00  0.00     0.037 A 
HETATM   24  C   UNL     1      40.857 -11.950  -0.472  1.00  0.00     0.003 A 
HETATM   25  C   UNL     1      40.833 -12.680   0.715  1.00  0.00     0.010 A 
BRANCH  22  26
HETATM   26  O   UNL     1      39.755 -14.363  -2.936  1.00  0.00    -0.356 OA
HETATM   27  C   UNL     1      38.372 -14.507  -3.228  1.00  0.00     0.210 C 
ENDBRANCH  22  26
ENDBRANCH  17  20
ENDBRANCH  16  17
ENDBRANCH   1  16
TORSDOF 8
ENDMDL
MODEL 3
REMARK VINA RESULT:      -6.4      4.272      7.751
REMARK  8 active torsions:
REMARK  status: ('A' for Active; 'I' for Inactive)
REMARK    1  A    between atoms: C_2  and  N_3 
REMARK    2  A    between atoms: C_2  and  C_17 
REMARK    3  A    between atoms: N_3  and  C_6 
REMARK    4  A    between atoms: C_6  and  C_7 
REMARK    5  A    between atoms: C_7  and  O_8 
REMARK    6  A    between atoms: C_7  and  C_9 
REMARK    7  A    between atoms: C_11  and  O_12 
REMARK    8  A    between atoms: C_17  and  C_18 
ROOT
HETATM    1  N   UNL     1      44.965 -12.029   7.122  1.00  0.00    -0.068 N 
HETATM    2  H   UNL     1      44.738 -12.031   8.126  1.00  0.00     0.277 HD
HETATM    3  H   UNL     1      45.824 -12.606   7.063  1.00  0.00     0.277 HD
ENDROOT
BRANCH   1   4
HETATM    4  C   UNL     1      43.815 -12.633   6.352  1.00  0.00     0.188 C 
HETATM    5  C   UNL     1      42.695 -11.587   6.354  1.00  0.00     0.040 C 
BRANCH   4   6
HETATM    6  C   UNL     1      43.365 -13.962   6.988  1.00  0.00     0.099 C 
BRANCH   6   7
HETATM    7  C   UNL     1      43.494 -15.097   6.020  1.00  0.00     0.078 A 
HETATM    8  S   UNL     1      44.375 -16.504   6.444  1.00  0.00    -0.073 SA
HETATM    9  C   UNL     1      44.009 -17.195   4.909  1.00  0.00     0.035 A 
HETATM   10  C   UNL     1      43.243 -16.287   4.173  1.00  0.00     0.074 A 
HETATM   11  C   UNL     1      44.372 -18.449   4.391  1.00  0.00     0.021 A 
HETATM   12  N   UNL     1      42.963 -15.090   4.819  1.00  0.00    -0.245 NA
HETATM   13  C   UNL     1      42.824 -16.646   2.877  1.00  0.00     0.033 A 
HETATM   14  C   UNL     1      43.177 -17.895   2.354  1.00  0.00     0.002 A 
HETATM   15  C   UNL     1      43.942 -18.782   3.104  1.00  0.00     0.002 A 
ENDBRANCH   6   7
ENDBRANCH   4   6
ENDBRANCH   1   4
BRANCH   1  16
HETATM   16  C   UNL     1      45.384 -10.624   6.755  1.00  0.00     0.269 C 
BRANCH  16  17
HETATM   17  C   UNL     1      46.109 -10.017   7.976  1.00  0.00     0.177 C 
BRANCH  17  18
HETATM   18  O   UNL     1      47.067  -9.068   7.476  1.00  0.00    -0.389 OA
HETATM   19  H   UNL     1      47.210  -9.288   6.532  1.00  0.00     0.210 HD
ENDBRANCH  17  18
BRANCH  17  20
HETATM   20  C   UNL     1      45.154  -9.384   8.955  1.00  0.00    -0.025 A 
HETATM   21  C   UNL     1      44.288  -8.343   8.566  1.00  0.00     0.046 A 
HETATM   22  C   UNL     1      43.396  -7.780   9.482  1.00  0.00     0.068 A 
HETATM   23  C   UNL     1      43.352  -8.273  10.787  1.00  0.00     0.037 A 
HETATM   24  C   UNL     1      44.200  -9.305  11.184  1.00  0.00     0.003 A 
HETATM   25  C   UNL     1      45.098  -9.859  10.274  1.00  0.00     0.010 A 
BRANCH  22  26
HETATM   26  O   UNL     1      42.515  -6.768   9.226  1.00  0.00    -0.356 OA
HETATM   27  C   UNL     1      42.205  -6.498   7.866  1.00  0.00     0.210 C 
ENDBRANCH  22  26
ENDBRANCH  17  20
ENDBRANCH  16  17
ENDBRANCH   1  16
TORSDOF 8
ENDMDL
MODEL 4
REMARK VINA RESULT:      -6.3      1.930      2.447
REMARK  8 active torsions:
REMARK  status: ('A' for Active; 'I' for Inactive)
REMARK    1  A    between atoms: C_2  and  N_3 
REMARK    2  A    between atoms: C_2  and  C_17 
REMARK    3  A    between atoms: N_3  and  C_6 
REMARK    4  A    between atoms: C_6  and  C_7 
REMARK    5  A    between atoms: C_7  and  O_8 
REMARK    6  A    between atoms: C_7  and  C_9 
REMARK    7  A    between atoms: C_11  and  O_12 
REMARK    8  A    between atoms: C_17  and  C_18 
ROOT
HETATM    1  N   UNL     1      43.017 -13.846   7.415  1.00  0.00    -0.068 N 
HETATM    2  H   UNL     1      43.741 -13.891   8.143  1.00  0.00     0.277 HD
HETATM    3  H   UNL     1      42.227 -13.363   7.883  1.00  0.00     0.277 HD
ENDROOT
BRANCH   1   4
HETATM    4  C   UNL     1      43.547 -13.064   6.237  1.00  0.00     0.188 C 
HETATM    5  C   UNL     1      44.698 -12.205   6.769  1.00  0.00     0.040 C 
BRANCH   4   6
HETATM    6  C   UNL     1      42.436 -12.210   5.597  1.00  0.00     0.099 C 
BRANCH   6   7
HETATM    7  C   UNL     1      41.913 -12.847   4.347  1.00  0.00     0.078 A 
HETATM    8  S   UNL     1      42.286 -12.184   2.812  1.00  0.00    -0.073 SA
HETATM    9  C   UNL     1      41.383 -13.438   2.051  1.00  0.00     0.035 A 
HETATM   10  C   UNL     1      40.848 -14.273   3.035  1.00  0.00     0.074 A 
HETATM   11  C   UNL     1      41.163 -13.667   0.683  1.00  0.00     0.021 A 
HETATM   12  N   UNL     1      41.153 -13.918   4.342  1.00  0.00    -0.245 NA
HETATM   13  C   UNL     1      40.068 -15.377   2.637  1.00  0.00     0.033 A 
HETATM   14  C   UNL     1      39.847 -15.617   1.277  1.00  0.00     0.002 A 
HETATM   15  C   UNL     1      40.388 -14.770   0.315  1.00  0.00     0.002 A 
ENDBRANCH   6   7
ENDBRANCH   4   6
ENDBRANCH   1   4
BRANCH   1  16
HETATM   16  C   UNL     1      42.543 -15.257   7.155  1.00  0.00     0.269 C 
BRANCH  16  17
HETATM   17  C   UNL     1      43.795 -16.143   6.968  1.00  0.00     0.177 C 
BRANCH  17  18
HETATM   18  O   UNL     1      43.873 -17.017   8.108  1.00  0.00    -0.389 OA
HETATM   19  H   UNL     1      43.945 -16.441   8.896  1.00  0.00     0.210 HD
ENDBRANCH  17  18
BRANCH  17  20
HETATM   20  C   UNL     1      43.765 -16.915   5.674  1.00  0.00    -0.025 A 
HETATM   21  C   UNL     1      43.982 -18.307   5.645  1.00  0.00     0.046 A 
HETATM   22  C   UNL     1      43.931 -19.009   4.439  1.00  0.00     0.068 A 
HETATM   23  C   UNL     1      43.640 -18.324   3.259  1.00  0.00     0.037 A 
HETATM   24  C   UNL     1      43.419 -16.949   3.273  1.00  0.00     0.003 A 
HETATM   25  C   UNL     1      43.481 -16.246   4.474  1.00  0.00     0.010 A 
BRANCH  22  26
HETATM   26  O   UNL     1      44.129 -20.352   4.283  1.00  0.00    -0.356 OA
HETATM   27  C   UNL     1      43.863 -20.910   3.004  1.00  0.00     0.210 C 
ENDBRANCH  22  26
ENDBRANCH  17  20
ENDBRANCH  16  17
ENDBRANCH   1  16
TORSDOF 8
ENDMDL
MODEL 5
REMARK VINA RESULT:      -6.3      4.247      7.356
REMARK  8 active torsions:
REMARK  status: ('A' for Active; 'I' for Inactive)
REMARK    1  A    between atoms: C_2  and  N_3 
REMARK    2  A    between atoms: C_2  and  C_17 
REMARK    3  A    between atoms: N_3  and  C_6 
REMARK    4  A    between atoms: C_6  and  C_7 
REMARK    5  A    between atoms: C_7  and  O_8 
REMARK    6  A    between atoms: C_7  and  C_9 
REMARK    7  A    between atoms: C_11  and  O_12 
REMARK    8  A    between atoms: C_17  and  C_18 
ROOT
HETATM    1  N   UNL     1      43.193 -13.334   7.025  1.00  0.00    -0.068 N 
HETATM    2  H   UNL     1      42.346 -13.030   7.525  1.00  0.00     0.277 HD
HETATM    3  H   UNL     1      43.883 -13.491   7.782  1.00  0.00     0.277 HD
ENDROOT
BRANCH   1   4
HETATM    4  C   UNL     1      42.886 -14.598   6.257  1.00  0.00     0.188 C 
HETATM    5  C   UNL     1      41.627 -15.196   6.891  1.00  0.00     0.040 C 
BRANCH   4   6
HETATM    6  C   UNL     1      44.078 -15.573   6.305  1.00  0.00     0.099 C 
BRANCH   6   7
HETATM    7  C   UNL     1      43.898 -16.698   5.333  1.00  0.00     0.078 A 
HETATM    8  S   UNL     1      43.296 -16.397   3.758  1.00  0.00    -0.073 SA
HETATM    9  C   UNL     1      43.431 -18.073   3.385  1.00  0.00     0.035 A 
HETATM   10  C   UNL     1      43.921 -18.749   4.507  1.00  0.00     0.074 A 
HETATM   11  C   UNL     1      43.127 -18.744   2.190  1.00  0.00     0.021 A 
HETATM   12  N   UNL     1      44.176 -17.950   5.614  1.00  0.00    -0.245 NA
HETATM   13  C   UNL     1      44.115 -20.142   4.428  1.00  0.00     0.033 A 
HETATM   14  C   UNL     1      43.819 -20.819   3.240  1.00  0.00     0.002 A 
HETATM   15  C   UNL     1      43.331 -20.125   2.137  1.00  0.00     0.002 A 
ENDBRANCH   6   7
ENDBRANCH   4   6
ENDBRANCH   1   4
BRANCH   1  16
HETATM   16  C   UNL     1      43.705 -12.151   6.237  1.00  0.00     0.269 C 
BRANCH  16  17
HETATM   17  C   UNL     1      44.979 -11.635   6.943  1.00  0.00     0.177 C 
BRANCH  17  18
HETATM   18  O   UNL     1      45.794 -10.999   5.943  1.00  0.00    -0.389 OA
HETATM   19  H   UNL     1      45.230 -10.898   5.148  1.00  0.00     0.210 HD
ENDBRANCH  17  18
BRANCH  17  20
HETATM   20  C   UNL     1      44.666 -10.701   8.084  1.00  0.00    -0.025 A 
HETATM   21  C   UNL     1      43.384 -10.141   8.243  1.00  0.00     0.046 A 
HETATM   22  C   UNL     1      43.106  -9.292   9.317  1.00  0.00     0.068 A 
HETATM   23  C   UNL     1      44.106  -9.019  10.250  1.00  0.00     0.037 A 
HETATM   24  C   UNL     1      45.378  -9.570  10.109  1.00  0.00     0.003 A 
HETATM   25  C   UNL     1      45.659 -10.408   9.031  1.00  0.00     0.010 A 
BRANCH  22  26
HETATM   26  O   UNL     1      41.908  -8.686   9.572  1.00  0.00    -0.356 OA
HETATM   27  C   UNL     1      41.028  -9.333  10.481  1.00  0.00     0.210 C 
ENDBRANCH  22  26
ENDBRANCH  17  20
ENDBRANCH  16  17
ENDBRANCH   1  16
TORSDOF 8
ENDMDL
MODEL 6
REMARK VINA RESULT:      -6.2      2.159      4.675
REMARK  8 active torsions:
REMARK  status: ('A' for Active; 'I' for Inactive)
REMARK    1  A    between atoms: C_2  and  N_3 
REMARK    2  A    between atoms: C_2  and  C_17 
REMARK    3  A    between atoms: N_3  and  C_6 
REMARK    4  A    between atoms: C_6  and  C_7 
REMARK    5  A    between atoms: C_7  and  O_8 
REMARK    6  A    between atoms: C_7  and  C_9 
REMARK    7  A    between atoms: C_11  and  O_12 
REMARK    8  A    between atoms: C_17  and  C_18 
ROOT
HETATM    1  N   UNL     1      41.365 -14.366   0.518  1.00  0.00    -0.068 N 
HETATM    2  H   UNL     1      41.803 -14.521  -0.400  1.00  0.00     0.277 HD
HETATM    3  H   UNL     1      41.987 -13.672   0.973  1.00  0.00     0.277 HD
ENDROOT
BRANCH   1   4
HETATM    4  C   UNL     1      39.966 -13.835   0.317  1.00  0.00     0.188 C 
HETATM    5  C   UNL     1      39.786 -13.647  -1.193  1.00  0.00     0.040 C 
BRANCH   4   6
HETATM    6  C   UNL     1      39.759 -12.520   1.092  1.00  0.00     0.099 C 
BRANCH   6   7
HETATM    7  C   UNL     1      40.665 -12.443   2.281  1.00  0.00     0.078 A 
HETATM    8  S   UNL     1      40.137 -12.995   3.814  1.00  0.00    -0.073 SA
HETATM    9  C   UNL     1      41.666 -12.582   4.491  1.00  0.00     0.035 A 
HETATM   10  C   UNL     1      42.473 -12.036   3.488  1.00  0.00     0.074 A 
HETATM   11  C   UNL     1      42.121 -12.730   5.811  1.00  0.00     0.021 A 
HETATM   12  N   UNL     1      41.884 -11.956   2.233  1.00  0.00    -0.245 NA
HETATM   13  C   UNL     1      43.780 -11.626   3.818  1.00  0.00     0.033 A 
HETATM   14  C   UNL     1      44.244 -11.773   5.130  1.00  0.00     0.002 A 
HETATM   15  C   UNL     1      43.422 -12.317   6.111  1.00  0.00     0.002 A 
ENDBRANCH   6   7
ENDBRANCH   4   6
ENDBRANCH   1   4
BRANCH   1  16
HETATM   16  C   UNL     1      41.515 -15.641   1.314  1.00  0.00     0.269 C 
BRANCH  16  17
HETATM   17  C   UNL     1      43.025 -15.879   1.537  1.00  0.00     0.177 C 
BRANCH  17  18
HETATM   18  O   UNL     1      43.661 -14.588   1.567  1.00  0.00    -0.389 OA
HETATM   19  H   UNL     1      43.139 -14.036   2.185  1.00  0.00     0.210 HD
ENDBRANCH  17  18
BRANCH  17  20
HETATM   20  C   UNL     1      43.304 -16.667   2.791  1.00  0.00    -0.025 A 
HETATM   21  C   UNL     1      43.570 -18.049   2.745  1.00  0.00     0.046 A 
HETATM   22  C   UNL     1      43.845 -18.760   3.915  1.00  0.00     0.068 A 
HETATM   23  C   UNL     1      43.879 -18.084   5.135  1.00  0.00     0.037 A 
HETATM   24  C   UNL     1      43.623 -16.716   5.196  1.00  0.00     0.003 A 
HETATM   25  C   UNL     1      43.337 -16.009   4.030  1.00  0.00     0.010 A 
BRANCH  22  26
HETATM   26  O   UNL     1      44.111 -20.097   3.998  1.00  0.00    -0.356 OA
HETATM   27  C   UNL     1      44.222 -20.664   5.296  1.00  0.00     0.210 C 
ENDBRANCH  22  26
ENDBRANCH  17  20
ENDBRANCH  16  17
ENDBRANCH   1  16
TORSDOF 8
ENDMDL
MODEL 7
REMARK VINA RESULT:      -6.2      3.734      6.967
REMARK  8 active torsions:
REMARK  status: ('A' for Active; 'I' for Inactive)
REMARK    1  A    between atoms: C_2  and  N_3 
REMARK    2  A    between atoms: C_2  and  C_17 
REMARK    3  A    between atoms: N_3  and  C_6 
REMARK    4  A    between atoms: C_6  and  C_7 
REMARK    5  A    between atoms: C_7  and  O_8 
REMARK    6  A    between atoms: C_7  and  C_9 
REMARK    7  A    between atoms: C_11  and  O_12 
REMARK    8  A    between atoms: C_17  and  C_18 
ROOT
HETATM    1  N   UNL     1      43.426 -13.201   7.326  1.00  0.00    -0.068 N 
HETATM    2  H   UNL     1      44.351 -13.559   7.601  1.00  0.00     0.277 HD
HETATM    3  H   UNL     1      42.911 -13.138   8.223  1.00  0.00     0.277 HD
ENDROOT
BRANCH   1   4
HETATM    4  C   UNL     1      43.593 -11.854   6.664  1.00  0.00     0.188 C 
HETATM    5  C   UNL     1      43.858 -12.129   5.181  1.00  0.00     0.040 C 
BRANCH   4   6
HETATM    6  C   UNL     1      44.739 -11.058   7.318  1.00  0.00     0.099 C 
BRANCH   6   7
HETATM    7  C   UNL     1      44.297 -10.426   8.601  1.00  0.00     0.078 A 
HETATM    8  S   UNL     1      44.156  -8.724   8.727  1.00  0.00    -0.073 SA
HETATM    9  C   UNL     1      43.631  -8.888  10.360  1.00  0.00     0.035 A 
HETATM   10  C   UNL     1      43.613 -10.244  10.696  1.00  0.00     0.074 A 
HETATM   11  C   UNL     1      43.262  -7.891  11.278  1.00  0.00     0.021 A 
HETATM   12  N   UNL     1      44.003 -11.110   9.683  1.00  0.00    -0.245 NA
HETATM   13  C   UNL     1      43.210 -10.616  11.994  1.00  0.00     0.033 A 
HETATM   14  C   UNL     1      42.836  -9.630  12.915  1.00  0.00     0.002 A 
HETATM   15  C   UNL     1      42.864  -8.286  12.558  1.00  0.00     0.002 A 
ENDBRANCH   6   7
ENDBRANCH   4   6
ENDBRANCH   1   4
BRANCH   1  16
HETATM   16  C   UNL     1      42.738 -14.285   6.529  1.00  0.00     0.269 C 
BRANCH  16  17
HETATM   17  C   UNL     1      43.494 -15.607   6.787  1.00  0.00     0.177 C 
BRANCH  17  18
HETATM   18  O   UNL     1      42.820 -16.281   7.865  1.00  0.00    -0.389 OA
HETATM   19  H   UNL     1      43.251 -17.156   7.958  1.00  0.00     0.210 HD
ENDBRANCH  17  18
BRANCH  17  20
HETATM   20  C   UNL     1      43.577 -16.471   5.555  1.00  0.00    -0.025 A 
HETATM   21  C   UNL     1      44.052 -17.796   5.619  1.00  0.00     0.046 A 
HETATM   22  C   UNL     1      44.105 -18.589   4.470  1.00  0.00     0.068 A 
HETATM   23  C   UNL     1      43.660 -18.066   3.256  1.00  0.00     0.037 A 
HETATM   24  C   UNL     1      43.183 -16.759   3.179  1.00  0.00     0.003 A 
HETATM   25  C   UNL     1      43.141 -15.964   4.322  1.00  0.00     0.010 A 
BRANCH  22  26
HETATM   26  O   UNL     1      44.549 -19.879   4.406  1.00  0.00    -0.356 OA
HETATM   27  C   UNL     1      43.917 -20.833   5.247  1.00  0.00     0.210 C 
ENDBRANCH  22  26
ENDBRANCH  17  20
ENDBRANCH  16  17
ENDBRANCH   1  16
TORSDOF 8
ENDMDL
MODEL 8
REMARK VINA RESULT:      -6.1      3.224      6.419
REMARK  8 active torsions:
REMARK  status: ('A' for Active; 'I' for Inactive)
REMARK    1  A    between atoms: C_2  and  N_3 
REMARK    2  A    between atoms: C_2  and  C_17 
REMARK    3  A    between atoms: N_3  and  C_6 
REMARK    4  A    between atoms: C_6  and  C_7 
REMARK    5  A    between atoms: C_7  and  O_8 
REMARK    6  A    between atoms: C_7  and  C_9 
REMARK    7  A    between atoms: C_11  and  O_12 
REMARK    8  A    between atoms: C_17  and  C_18 
ROOT
HETATM    1  N   UNL     1      40.323 -14.867   3.481  1.00  0.00    -0.068 N 
HETATM    2  H   UNL     1      40.789 -15.666   3.031  1.00  0.00     0.277 HD
HETATM    3  H   UNL     1      39.483 -15.289   3.920  1.00  0.00     0.277 HD
ENDROOT
BRANCH   1   4
HETATM    4  C   UNL     1      41.257 -14.258   4.498  1.00  0.00     0.188 C 
HETATM    5  C   UNL     1      40.899 -12.771   4.580  1.00  0.00     0.040 C 
BRANCH   4   6
HETATM    6  C   UNL     1      42.728 -14.478   4.096  1.00  0.00     0.099 C 
BRANCH   6   7
HETATM    7  C   UNL     1      43.048 -15.936   3.985  1.00  0.00     0.078 A 
HETATM    8  S   UNL     1      43.733 -16.779   5.309  1.00  0.00    -0.073 SA
HETATM    9  C   UNL     1      43.737 -18.231   4.383  1.00  0.00     0.035 A 
HETATM   10  C   UNL     1      43.221 -17.960   3.112  1.00  0.00     0.074 A 
HETATM   11  C   UNL     1      44.166 -19.517   4.751  1.00  0.00     0.021 A 
HETATM   12  N   UNL     1      42.839 -16.643   2.898  1.00  0.00    -0.245 NA
HETATM   13  C   UNL     1      43.128 -19.013   2.180  1.00  0.00     0.033 A 
HETATM   14  C   UNL     1      43.548 -20.298   2.538  1.00  0.00     0.002 A 
HETATM   15  C   UNL     1      44.061 -20.543   3.808  1.00  0.00     0.002 A 
ENDBRANCH   6   7
ENDBRANCH   4   6
ENDBRANCH   1   4
BRANCH   1  16
HETATM   16  C   UNL     1      39.807 -13.965   2.384  1.00  0.00     0.269 C 
BRANCH  16  17
HETATM   17  C   UNL     1      40.561 -14.328   1.086  1.00  0.00     0.177 C 
BRANCH  17  18
HETATM   18  O   UNL     1      40.851 -15.737   1.140  1.00  0.00    -0.389 OA
HETATM   19  H   UNL     1      40.948 -15.964   2.088  1.00  0.00     0.210 HD
ENDBRANCH  17  18
BRANCH  17  20
HETATM   20  C   UNL     1      39.780 -13.968  -0.152  1.00  0.00    -0.025 A 
HETATM   21  C   UNL     1      39.355 -12.647  -0.393  1.00  0.00     0.046 A 
HETATM   22  C   UNL     1      38.648 -12.327  -1.554  1.00  0.00     0.068 A 
HETATM   23  C   UNL     1      38.386 -13.326  -2.493  1.00  0.00     0.037 A 
HETATM   24  C   UNL     1      38.805 -14.636  -2.271  1.00  0.00     0.003 A 
HETATM   25  C   UNL     1      39.499 -14.957  -1.106  1.00  0.00     0.010 A 
BRANCH  22  26
HETATM   26  O   UNL     1      38.180 -11.090  -1.894  1.00  0.00    -0.356 OA
HETATM   27  C   UNL     1      38.752 -10.463  -3.034  1.00  0.00     0.210 C 
ENDBRANCH  22  26
ENDBRANCH  17  20
ENDBRANCH  16  17
ENDBRANCH   1  16
TORSDOF 8
ENDMDL
MODEL 9
REMARK VINA RESULT:      -6.0      3.687      6.560
REMARK  8 active torsions:
REMARK  status: ('A' for Active; 'I' for Inactive)
REMARK    1  A    between atoms: C_2  and  N_3 
REMARK    2  A    between atoms: C_2  and  C_17 
REMARK    3  A    between atoms: N_3  and  C_6 
REMARK    4  A    between atoms: C_6  and  C_7 
REMARK    5  A    between atoms: C_7  and  O_8 
REMARK    6  A    between atoms: C_7  and  C_9 
REMARK    7  A    between atoms: C_11  and  O_12 
REMARK    8  A    between atoms: C_17  and  C_18 
ROOT
HETATM    1  N   UNL     1      42.107 -13.466   3.842  1.00  0.00    -0.068 N 
HETATM    2  H   UNL     1      43.124 -13.379   3.712  1.00  0.00     0.277 HD
HETATM    3  H   UNL     1      41.768 -13.790   2.917  1.00  0.00     0.277 HD
ENDROOT
BRANCH   1   4
HETATM    4  C   UNL     1      41.830 -14.468   4.937  1.00  0.00     0.188 C 
HETATM    5  C   UNL     1      41.086 -13.711   6.040  1.00  0.00     0.040 C 
BRANCH   4   6
HETATM    6  C   UNL     1      43.139 -15.098   5.449  1.00  0.00     0.099 C 
BRANCH   6   7
HETATM    7  C   UNL     1      43.334 -16.474   4.891  1.00  0.00     0.078 A 
HETATM    8  S   UNL     1      43.893 -17.747   5.892  1.00  0.00    -0.073 SA
HETATM    9  C   UNL     1      43.805 -18.834   4.559  1.00  0.00     0.035 A 
HETATM   10  C   UNL     1      43.362 -18.136   3.432  1.00  0.00     0.074 A 
HETATM   11  C   UNL     1      44.106 -20.205   4.511  1.00  0.00     0.021 A 
HETATM   12  N   UNL     1      43.104 -16.787   3.636  1.00  0.00    -0.245 NA
HETATM   13  C   UNL     1      43.211 -18.834   2.217  1.00  0.00     0.033 A 
HETATM   14  C   UNL     1      43.504 -20.201   2.160  1.00  0.00     0.002 A 
HETATM   15  C   UNL     1      43.946 -20.874   3.295  1.00  0.00     0.002 A 
ENDBRANCH   6   7
ENDBRANCH   4   6
ENDBRANCH   1   4
BRANCH   1  16
HETATM   16  C   UNL     1      41.551 -12.072   4.021  1.00  0.00     0.269 C 
BRANCH  16  17
HETATM   17  C   UNL     1      42.741 -11.087   3.996  1.00  0.00     0.177 C 
BRANCH  17  18
HETATM   18  O   UNL     1      42.228  -9.808   3.582  1.00  0.00    -0.389 OA
HETATM   19  H   UNL     1      43.004  -9.221   3.471  1.00  0.00     0.210 HD
ENDBRANCH  17  18
BRANCH  17  20
HETATM   20  C   UNL     1      43.443 -11.001   5.327  1.00  0.00    -0.025 A 
HETATM   21  C   UNL     1      42.811 -10.445   6.456  1.00  0.00     0.046 A 
HETATM   22  C   UNL     1      43.470 -10.391   7.687  1.00  0.00     0.068 A 
HETATM   23  C   UNL     1      44.758 -10.915   7.797  1.00  0.00     0.037 A 
HETATM   24  C   UNL     1      45.395 -11.473   6.689  1.00  0.00     0.003 A 
HETATM   25  C   UNL     1      44.742 -11.516   5.460  1.00  0.00     0.010 A 
BRANCH  22  26
HETATM   26  O   UNL     1      42.965  -9.873   8.845  1.00  0.00    -0.356 OA
HETATM   27  C   UNL     1      42.833  -8.461   8.929  1.00  0.00     0.210 C 
ENDBRANCH  22  26
ENDBRANCH  17  20
ENDBRANCH  16  17
ENDBRANCH   1  16
TORSDOF 8
ENDMDL
MODEL 10
REMARK VINA RESULT:      -5.9      2.820      5.159
REMARK  8 active torsions:
REMARK  status: ('A' for Active; 'I' for Inactive)
REMARK    1  A    between atoms: C_2  and  N_3 
REMARK    2  A    between atoms: C_2  and  C_17 
REMARK    3  A    between atoms: N_3  and  C_6 
REMARK    4  A    between atoms: C_6  and  C_7 
REMARK    5  A    between atoms: C_7  and  O_8 
REMARK    6  A    between atoms: C_7  and  C_9 
REMARK    7  A    between atoms: C_11  and  O_12 
REMARK    8  A    between atoms: C_17  and  C_18 
ROOT
HETATM    1  N   UNL     1      41.407 -12.770   4.525  1.00  0.00    -0.068 N 
HETATM    2  H   UNL     1      41.907 -12.183   5.206  1.00  0.00     0.277 HD
HETATM    3  H   UNL     1      42.097 -13.504   4.281  1.00  0.00     0.277 HD
ENDROOT
BRANCH   1   4
HETATM    4  C   UNL     1      40.170 -13.340   5.177  1.00  0.00     0.188 C 
HETATM    5  C   UNL     1      39.446 -12.163   5.837  1.00  0.00     0.040 C 
BRANCH   4   6
HETATM    6  C   UNL     1      40.540 -14.435   6.196  1.00  0.00     0.099 C 
BRANCH   6   7
HETATM    7  C   UNL     1      41.439 -15.465   5.584  1.00  0.00     0.078 A 
HETATM    8  S   UNL     1      42.542 -16.343   6.556  1.00  0.00    -0.073 SA
HETATM    9  C   UNL     1      43.075 -17.211   5.166  1.00  0.00     0.035 A 
HETATM   10  C   UNL     1      42.372 -16.753   4.048  1.00  0.00     0.074 A 
HETATM   11  C   UNL     1      44.044 -18.224   5.071  1.00  0.00     0.021 A 
HETATM   12  N   UNL     1      41.446 -15.750   4.302  1.00  0.00    -0.245 NA
HETATM   13  C   UNL     1      42.646 -17.330   2.792  1.00  0.00     0.033 A 
HETATM   14  C   UNL     1      43.607 -18.342   2.686  1.00  0.00     0.002 A 
HETATM   15  C   UNL     1      44.295 -18.780   3.813  1.00  0.00     0.002 A 
ENDBRANCH   6   7
ENDBRANCH   4   6
ENDBRANCH   1   4
BRANCH   1  16
HETATM   16  C   UNL     1      41.214 -11.949   3.272  1.00  0.00     0.269 C 
BRANCH  16  17
HETATM   17  C   UNL     1      42.065 -12.593   2.155  1.00  0.00     0.177 C 
BRANCH  17  18
HETATM   18  O   UNL     1      42.940 -13.548   2.781  1.00  0.00    -0.389 OA
HETATM   19  H   UNL     1      42.408 -14.358   2.929  1.00  0.00     0.210 HD
ENDBRANCH  17  18
BRANCH  17  20
HETATM   20  C   UNL     1      41.219 -13.232   1.083  1.00  0.00    -0.025 A 
HETATM   21  C   UNL     1      40.992 -12.593  -0.151  1.00  0.00     0.046 A 
HETATM   22  C   UNL     1      40.221 -13.208  -1.140  1.00  0.00     0.068 A 
HETATM   23  C   UNL     1      39.693 -14.478  -0.905  1.00  0.00     0.037 A 
HETATM   24  C   UNL     1      39.913 -15.124   0.309  1.00  0.00     0.003 A 
HETATM   25  C   UNL     1      40.672 -14.506   1.300  1.00  0.00     0.010 A 
BRANCH  22  26
HETATM   26  O   UNL     1      39.927 -12.687  -2.368  1.00  0.00    -0.356 OA
HETATM   27  C   UNL     1      40.961 -11.987  -3.047  1.00  0.00     0.210 C 
ENDBRANCH  22  26
ENDBRANCH  17  20
ENDBRANCH  16  17
ENDBRANCH   1  16
TORSDOF 8
ENDMDL
