MODEL 1
REMARK VINA RESULT:      -8.7      0.000      0.000
REMARK  7 active torsions:
REMARK  status: ('A' for Active; 'I' for Inactive)
REMARK    1  A    between atoms: C_2  and  O_3 
REMARK    2  A    between atoms: O_3  and  C_4 
REMARK    3  A    between atoms: C_7  and  N_8 
REMARK    4  A    between atoms: C_9  and  O_10 
REMARK    5  A    between atoms: C_9  and  C_11 
REMARK       I    between atoms: C_11  and  N_12 
REMARK    6  A    between atoms: N_12  and  C_13 
REMARK    7  A    between atoms: C_13  and  C_14 
ROOT
HETATM    1  N   UNL     1      43.943 -11.386   5.261  1.00  0.00    -0.254 N 
HETATM    2  C   UNL     1      43.336 -11.677   6.572  1.00  0.00     0.256 C 
HETATM    3  C   UNL     1      44.017 -10.936   7.701  1.00  0.00     0.034 A 
HETATM    4  C   UNL     1      45.364 -10.625   7.547  1.00  0.00     0.048 A 
HETATM    5  N   UNL     1      45.982 -10.936   6.340  1.00  0.00    -0.308 N 
HETATM    6  C   UNL     1      45.326 -11.264   5.182  1.00  0.00     0.330 C 
HETATM    7  O   UNL     1      46.003 -11.363   4.159  1.00  0.00    -0.246 OA
HETATM    8  C   UNL     1      43.385 -10.630   8.915  1.00  0.00     0.015 A 
HETATM    9  C   UNL     1      44.098 -10.015   9.946  1.00  0.00     0.001 A 
HETATM   10  C   UNL     1      45.450  -9.718   9.778  1.00  0.00     0.002 A 
HETATM   11  C   UNL     1      46.090 -10.032   8.579  1.00  0.00     0.030 A 
HETATM   12  H   UNL     1      46.965 -10.724   6.208  1.00  0.00     0.170 HD
ENDROOT
BRANCH   2  13
HETATM   13  O   UNL     1      41.959 -11.289   6.598  1.00  0.00    -0.359 OA
HETATM   14  H   UNL     1      41.721 -11.171   5.657  1.00  0.00     0.213 HD
ENDBRANCH   2  13
BRANCH   2  15
HETATM   15  C   UNL     1      43.407 -13.244   6.822  1.00  0.00     0.279 C 
HETATM   16  N   UNL     1      42.221 -13.948   6.790  1.00  0.00    -0.352 N 
HETATM   17  H   UNL     1      41.358 -13.473   6.556  1.00  0.00     0.162 HD
HETATM   18  O   UNL     1      44.486 -13.801   7.046  1.00  0.00    -0.268 OA
BRANCH  16  19
HETATM   19  C   UNL     1      42.190 -15.380   6.957  1.00  0.00     0.161 C 
BRANCH  19  20
HETATM   20  C   UNL     1      42.328 -16.072   5.627  1.00  0.00    -0.040 A 
HETATM   21  C   UNL     1      43.500 -16.778   5.312  1.00  0.00     0.012 A 
HETATM   22  C   UNL     1      43.642 -17.393   4.067  1.00  0.00     0.043 A 
HETATM   23  C   UNL     1      42.616 -17.297   3.135  1.00  0.00     0.116 A 
HETATM   24  F   UNL     1      42.753 -17.887   1.940  1.00  0.00    -0.206 F 
HETATM   25  C   UNL     1      41.453 -16.593   3.422  1.00  0.00     0.043 A 
HETATM   26  C   UNL     1      41.309 -15.975   4.665  1.00  0.00     0.012 A 
ENDBRANCH  19  20
ENDBRANCH  16  19
ENDBRANCH   2  15
BRANCH   1  27
HETATM   27  C   UNL     1      43.179 -11.635   4.075  1.00  0.00     0.043 A 
HETATM   28  C   UNL     1      42.395 -10.641   3.479  1.00  0.00     0.032 A 
HETATM   29  C   UNL     1      41.652 -10.909   2.319  1.00  0.00     0.039 A 
HETATM   30  C   UNL     1      41.675 -12.180   1.749  1.00  0.00     0.068 A 
HETATM   31  C   UNL     1      42.423 -13.184   2.361  1.00  0.00     0.039 A 
HETATM   32  C   UNL     1      43.167 -12.916   3.512  1.00  0.00     0.032 A 
BRANCH  30  33
HETATM   33  O   UNL     1      41.004 -12.575   0.627  1.00  0.00    -0.352 OA
BRANCH  33  34
HETATM   34  C   UNL     1      39.850 -13.390   0.818  1.00  0.00     0.171 C 
HETATM   35  C   UNL     1      40.066 -14.684   0.051  1.00  0.00     0.034 C 
ENDBRANCH  33  34
ENDBRANCH  30  33
ENDBRANCH   1  27
TORSDOF 7
ENDMDL
MODEL 2
REMARK VINA RESULT:      -8.4      2.748      4.200
REMARK  7 active torsions:
REMARK  status: ('A' for Active; 'I' for Inactive)
REMARK    1  A    between atoms: C_2  and  O_3 
REMARK    2  A    between atoms: O_3  and  C_4 
REMARK    3  A    between atoms: C_7  and  N_8 
REMARK    4  A    between atoms: C_9  and  O_10 
REMARK    5  A    between atoms: C_9  and  C_11 
REMARK       I    between atoms: C_11  and  N_12 
REMARK    6  A    between atoms: N_12  and  C_13 
REMARK    7  A    between atoms: C_13  and  C_14 
ROOT
HETATM    1  N   UNL     1      41.472 -12.598   2.629  1.00  0.00    -0.254 N 
HETATM    2  C   UNL     1      41.679 -13.810   3.441  1.00  0.00     0.256 C 
HETATM    3  C   UNL     1      42.316 -13.507   4.779  1.00  0.00     0.034 A 
HETATM    4  C   UNL     1      43.149 -12.396   4.859  1.00  0.00     0.048 A 
HETATM    5  N   UNL     1      43.282 -11.585   3.736  1.00  0.00    -0.308 N 
HETATM    6  C   UNL     1      42.453 -11.613   2.643  1.00  0.00     0.330 C 
HETATM    7  O   UNL     1      42.606 -10.732   1.797  1.00  0.00    -0.246 OA
HETATM    8  C   UNL     1      42.179 -14.333   5.905  1.00  0.00     0.015 A 
HETATM    9  C   UNL     1      42.861 -14.035   7.085  1.00  0.00     0.001 A 
HETATM   10  C   UNL     1      43.699 -12.922   7.145  1.00  0.00     0.002 A 
HETATM   11  C   UNL     1      43.852 -12.103   6.026  1.00  0.00     0.030 A 
HETATM   12  H   UNL     1      43.889 -10.774   3.769  1.00  0.00     0.170 HD
ENDROOT
BRANCH   2  13
HETATM   13  O   UNL     1      40.436 -14.463   3.717  1.00  0.00    -0.359 OA
HETATM   14  H   UNL     1      39.910 -14.340   2.902  1.00  0.00     0.213 HD
ENDBRANCH   2  13
BRANCH   2  15
HETATM   15  C   UNL     1      42.588 -14.819   2.616  1.00  0.00     0.279 C 
HETATM   16  N   UNL     1      42.216 -16.147   2.606  1.00  0.00    -0.352 N 
HETATM   17  H   UNL     1      41.362 -16.437   3.066  1.00  0.00     0.162 HD
HETATM   18  O   UNL     1      43.593 -14.422   2.018  1.00  0.00    -0.268 OA
BRANCH  16  19
HETATM   19  C   UNL     1      42.950 -17.129   1.846  1.00  0.00     0.161 C 
BRANCH  19  20
HETATM   20  C   UNL     1      43.376 -18.272   2.729  1.00  0.00    -0.040 A 
HETATM   21  C   UNL     1      43.339 -19.592   2.250  1.00  0.00     0.012 A 
HETATM   22  C   UNL     1      43.703 -20.654   3.079  1.00  0.00     0.043 A 
HETATM   23  C   UNL     1      44.099 -20.399   4.387  1.00  0.00     0.116 A 
HETATM   24  F   UNL     1      44.448 -21.420   5.181  1.00  0.00    -0.206 F 
HETATM   25  C   UNL     1      44.131 -19.102   4.884  1.00  0.00     0.043 A 
HETATM   26  C   UNL     1      43.765 -18.037   4.058  1.00  0.00     0.012 A 
ENDBRANCH  19  20
ENDBRANCH  16  19
ENDBRANCH   2  15
BRANCH   1  27
HETATM   27  C   UNL     1      40.511 -12.634   1.567  1.00  0.00     0.043 A 
HETATM   28  C   UNL     1      39.251 -12.039   1.691  1.00  0.00     0.032 A 
HETATM   29  C   UNL     1      38.325 -12.089   0.638  1.00  0.00     0.039 A 
HETATM   30  C   UNL     1      38.645 -12.748  -0.548  1.00  0.00     0.068 A 
HETATM   31  C   UNL     1      39.883 -13.376  -0.661  1.00  0.00     0.039 A 
HETATM   32  C   UNL     1      40.807 -13.320   0.385  1.00  0.00     0.032 A 
BRANCH  30  33
HETATM   33  O   UNL     1      37.842 -12.871  -1.645  1.00  0.00    -0.352 OA
BRANCH  33  34
HETATM   34  C   UNL     1      38.487 -13.110  -2.894  1.00  0.00     0.171 C 
HETATM   35  C   UNL     1      38.017 -14.461  -3.407  1.00  0.00     0.034 C 
ENDBRANCH  33  34
ENDBRANCH  30  33
ENDBRANCH   1  27
TORSDOF 7
ENDMDL
MODEL 3
REMARK VINA RESULT:      -8.2      3.013      4.539
REMARK  7 active torsions:
REMARK  status: ('A' for Active; 'I' for Inactive)
REMARK    1  A    between atoms: C_2  and  O_3 
REMARK    2  A    between atoms: O_3  and  C_4 
REMARK    3  A    between atoms: C_7  and  N_8 
REMARK    4  A    between atoms: C_9  and  O_10 
REMARK    5  A    between atoms: C_9  and  C_11 
REMARK       I    between atoms: C_11  and  N_12 
REMARK    6  A    between atoms: N_12  and  C_13 
REMARK    7  A    between atoms: C_13  and  C_14 
ROOT
HETATM    1  N   UNL     1      41.207 -12.997   2.925  1.00  0.00    -0.254 N 
HETATM    2  C   UNL     1      41.016 -14.305   3.577  1.00  0.00     0.256 C 
HETATM    3  C   UNL     1      41.682 -14.377   4.933  1.00  0.00     0.034 A 
HETATM    4  C   UNL     1      42.810 -13.591   5.139  1.00  0.00     0.048 A 
HETATM    5  N   UNL     1      43.211 -12.728   4.124  1.00  0.00    -0.308 N 
HETATM    6  C   UNL     1      42.440 -12.367   3.048  1.00  0.00     0.330 C 
HETATM    7  O   UNL     1      42.874 -11.477   2.317  1.00  0.00    -0.246 OA
HETATM    8  C   UNL     1      41.272 -15.254   5.949  1.00  0.00     0.015 A 
HETATM    9  C   UNL     1      41.983 -15.326   7.147  1.00  0.00     0.001 A 
HETATM   10  C   UNL     1      43.118 -14.537   7.333  1.00  0.00     0.002 A 
HETATM   11  C   UNL     1      43.541 -13.673   6.324  1.00  0.00     0.030 A 
HETATM   12  H   UNL     1      44.035 -12.150   4.249  1.00  0.00     0.170 HD
ENDROOT
BRANCH   2  13
HETATM   13  O   UNL     1      39.626 -14.576   3.787  1.00  0.00    -0.359 OA
HETATM   14  H   UNL     1      39.406 -15.253   3.117  1.00  0.00     0.213 HD
ENDBRANCH   2  13
BRANCH   2  15
HETATM   15  C   UNL     1      41.594 -15.432   2.619  1.00  0.00     0.279 C 
HETATM   16  N   UNL     1      42.911 -15.804   2.797  1.00  0.00    -0.352 N 
HETATM   17  H   UNL     1      43.452 -15.402   3.553  1.00  0.00     0.162 HD
HETATM   18  O   UNL     1      40.888 -15.943   1.744  1.00  0.00    -0.268 OA
BRANCH  16  19
HETATM   19  C   UNL     1      43.511 -16.852   2.009  1.00  0.00     0.161 C 
BRANCH  19  20
HETATM   20  C   UNL     1      43.639 -18.116   2.817  1.00  0.00    -0.040 A 
HETATM   21  C   UNL     1      43.943 -18.055   4.187  1.00  0.00     0.012 A 
HETATM   22  C   UNL     1      44.093 -19.228   4.929  1.00  0.00     0.043 A 
HETATM   23  C   UNL     1      43.946 -20.459   4.303  1.00  0.00     0.116 A 
HETATM   24  F   UNL     1      44.091 -21.584   5.016  1.00  0.00    -0.206 F 
HETATM   25  C   UNL     1      43.656 -20.541   2.946  1.00  0.00     0.043 A 
HETATM   26  C   UNL     1      43.508 -19.370   2.200  1.00  0.00     0.012 A 
ENDBRANCH  19  20
ENDBRANCH  16  19
ENDBRANCH   2  15
BRANCH   1  27
HETATM   27  C   UNL     1      40.307 -12.607   1.882  1.00  0.00     0.043 A 
HETATM   28  C   UNL     1      40.560 -12.903   0.537  1.00  0.00     0.032 A 
HETATM   29  C   UNL     1      39.665 -12.509  -0.468  1.00  0.00     0.039 A 
HETATM   30  C   UNL     1      38.510 -11.801  -0.141  1.00  0.00     0.068 A 
HETATM   31  C   UNL     1      38.272 -11.469   1.191  1.00  0.00     0.039 A 
HETATM   32  C   UNL     1      39.160 -11.867   2.192  1.00  0.00     0.032 A 
BRANCH  30  33
HETATM   33  O   UNL     1      37.558 -11.359  -1.016  1.00  0.00    -0.352 OA
BRANCH  33  34
HETATM   34  C   UNL     1      37.747 -11.679  -2.392  1.00  0.00     0.171 C 
HETATM   35  C   UNL     1      37.046 -13.001  -2.659  1.00  0.00     0.034 C 
ENDBRANCH  33  34
ENDBRANCH  30  33
ENDBRANCH   1  27
TORSDOF 7
ENDMDL
MODEL 4
REMARK VINA RESULT:      -7.9      3.470      7.209
REMARK  7 active torsions:
REMARK  status: ('A' for Active; 'I' for Inactive)
REMARK    1  A    between atoms: C_2  and  O_3 
REMARK    2  A    between atoms: O_3  and  C_4 
REMARK    3  A    between atoms: C_7  and  N_8 
REMARK    4  A    between atoms: C_9  and  O_10 
REMARK    5  A    between atoms: C_9  and  C_11 
REMARK       I    between atoms: C_11  and  N_12 
REMARK    6  A    between atoms: N_12  and  C_13 
REMARK    7  A    between atoms: C_13  and  C_14 
ROOT
HETATM    1  N   UNL     1      43.413 -12.685   4.907  1.00  0.00    -0.254 N 
HETATM    2  C   UNL     1      42.503 -13.826   5.113  1.00  0.00     0.256 C 
HETATM    3  C   UNL     1      42.699 -14.914   4.082  1.00  0.00     0.034 A 
HETATM    4  C   UNL     1      43.158 -14.536   2.825  1.00  0.00     0.048 A 
HETATM    5  N   UNL     1      43.489 -13.201   2.615  1.00  0.00    -0.308 N 
HETATM    6  C   UNL     1      43.675 -12.271   3.606  1.00  0.00     0.330 C 
HETATM    7  O   UNL     1      44.114 -11.171   3.272  1.00  0.00    -0.246 OA
HETATM    8  C   UNL     1      42.359 -16.257   4.302  1.00  0.00     0.015 A 
HETATM    9  C   UNL     1      42.490 -17.196   3.278  1.00  0.00     0.001 A 
HETATM   10  C   UNL     1      42.944 -16.797   2.021  1.00  0.00     0.002 A 
HETATM   11  C   UNL     1      43.271 -15.461   1.788  1.00  0.00     0.030 A 
HETATM   12  H   UNL     1      43.820 -12.900   1.705  1.00  0.00     0.170 HD
ENDROOT
BRANCH   2  13
HETATM   13  O   UNL     1      42.717 -14.429   6.393  1.00  0.00    -0.359 OA
HETATM   14  H   UNL     1      43.632 -14.181   6.631  1.00  0.00     0.213 HD
ENDBRANCH   2  13
BRANCH   2  15
HETATM   15  C   UNL     1      41.008 -13.290   5.070  1.00  0.00     0.279 C 
HETATM   16  N   UNL     1      40.392 -13.027   6.276  1.00  0.00    -0.352 N 
HETATM   17  H   UNL     1      40.910 -13.123   7.140  1.00  0.00     0.162 HD
HETATM   18  O   UNL     1      40.424 -13.128   3.994  1.00  0.00    -0.268 OA
BRANCH  16  19
HETATM   19  C   UNL     1      39.054 -12.492   6.337  1.00  0.00     0.161 C 
BRANCH  19  20
HETATM   20  C   UNL     1      39.089 -10.995   6.493  1.00  0.00    -0.040 A 
HETATM   21  C   UNL     1      38.938 -10.160   5.374  1.00  0.00     0.012 A 
HETATM   22  C   UNL     1      39.002  -8.773   5.514  1.00  0.00     0.043 A 
HETATM   23  C   UNL     1      39.223  -8.220   6.769  1.00  0.00     0.116 A 
HETATM   24  F   UNL     1      39.284  -6.888   6.901  1.00  0.00    -0.206 F 
HETATM   25  C   UNL     1      39.386  -9.028   7.887  1.00  0.00     0.043 A 
HETATM   26  C   UNL     1      39.325 -10.416   7.751  1.00  0.00     0.012 A 
ENDBRANCH  19  20
ENDBRANCH  16  19
ENDBRANCH   2  15
BRANCH   1  27
HETATM   27  C   UNL     1      43.672 -11.801   6.004  1.00  0.00     0.043 A 
HETATM   28  C   UNL     1      42.787 -10.774   6.351  1.00  0.00     0.032 A 
HETATM   29  C   UNL     1      43.063  -9.919   7.429  1.00  0.00     0.039 A 
HETATM   30  C   UNL     1      44.237 -10.073   8.164  1.00  0.00     0.068 A 
HETATM   31  C   UNL     1      45.140 -11.068   7.798  1.00  0.00     0.039 A 
HETATM   32  C   UNL     1      44.862 -11.924   6.729  1.00  0.00     0.032 A 
BRANCH  30  33
HETATM   33  O   UNL     1      44.628  -9.315   9.231  1.00  0.00    -0.352 OA
BRANCH  33  34
HETATM   34  C   UNL     1      45.048 -10.014  10.400  1.00  0.00     0.171 C 
HETATM   35  C   UNL     1      43.802 -10.410  11.174  1.00  0.00     0.034 C 
ENDBRANCH  33  34
ENDBRANCH  30  33
ENDBRANCH   1  27
TORSDOF 7
ENDMDL
MODEL 5
REMARK VINA RESULT:      -7.9      2.583      6.814
REMARK  7 active torsions:
REMARK  status: ('A' for Active; 'I' for Inactive)
REMARK    1  A    between atoms: C_2  and  O_3 
REMARK    2  A    between atoms: O_3  and  C_4 
REMARK    3  A    between atoms: C_7  and  N_8 
REMARK    4  A    between atoms: C_9  and  O_10 
REMARK    5  A    between atoms: C_9  and  C_11 
REMARK       I    between atoms: C_11  and  N_12 
REMARK    6  A    between atoms: N_12  and  C_13 
REMARK    7  A    between atoms: C_13  and  C_14 
ROOT
HETATM    1  N   UNL     1      43.344 -12.757   4.909  1.00  0.00    -0.254 N 
HETATM    2  C   UNL     1      42.465 -13.929   5.072  1.00  0.00     0.256 C 
HETATM    3  C   UNL     1      42.722 -14.992   4.028  1.00  0.00     0.034 A 
HETATM    4  C   UNL     1      43.202 -14.578   2.790  1.00  0.00     0.048 A 
HETATM    5  N   UNL     1      43.497 -13.229   2.611  1.00  0.00    -0.308 N 
HETATM    6  C   UNL     1      43.627 -12.312   3.623  1.00  0.00     0.330 C 
HETATM    7  O   UNL     1      44.039 -11.193   3.319  1.00  0.00    -0.246 OA
HETATM    8  C   UNL     1      42.419 -16.349   4.216  1.00  0.00     0.015 A 
HETATM    9  C   UNL     1      42.607 -17.265   3.180  1.00  0.00     0.001 A 
HETATM   10  C   UNL     1      43.081 -16.829   1.943  1.00  0.00     0.002 A 
HETATM   11  C   UNL     1      43.372 -15.480   1.742  1.00  0.00     0.030 A 
HETATM   12  H   UNL     1      43.842 -12.903   1.715  1.00  0.00     0.170 HD
ENDROOT
BRANCH   2  13
HETATM   13  O   UNL     1      42.664 -14.548   6.346  1.00  0.00    -0.359 OA
HETATM   14  H   UNL     1      41.828 -15.022   6.521  1.00  0.00     0.213 HD
ENDBRANCH   2  13
BRANCH   2  15
HETATM   15  C   UNL     1      40.955 -13.439   4.997  1.00  0.00     0.279 C 
HETATM   16  N   UNL     1      40.527 -12.876   3.814  1.00  0.00    -0.352 N 
HETATM   17  H   UNL     1      41.150 -12.839   3.016  1.00  0.00     0.162 HD
HETATM   18  O   UNL     1      40.205 -13.552   5.972  1.00  0.00    -0.268 OA
BRANCH  16  19
HETATM   19  C   UNL     1      39.163 -12.445   3.634  1.00  0.00     0.161 C 
BRANCH  19  20
HETATM   20  C   UNL     1      38.863 -12.228   2.175  1.00  0.00    -0.040 A 
HETATM   21  C   UNL     1      37.768 -11.441   1.784  1.00  0.00     0.012 A 
HETATM   22  C   UNL     1      37.471 -11.265   0.432  1.00  0.00     0.043 A 
HETATM   23  C   UNL     1      38.264 -11.881  -0.530  1.00  0.00     0.116 A 
HETATM   24  F   UNL     1      37.977 -11.712  -1.827  1.00  0.00    -0.206 F 
HETATM   25  C   UNL     1      39.345 -12.674  -0.164  1.00  0.00     0.043 A 
HETATM   26  C   UNL     1      39.642 -12.853   1.188  1.00  0.00     0.012 A 
ENDBRANCH  19  20
ENDBRANCH  16  19
ENDBRANCH   2  15
BRANCH   1  27
HETATM   27  C   UNL     1      43.546 -11.885   6.027  1.00  0.00     0.043 A 
HETATM   28  C   UNL     1      42.592 -10.933   6.405  1.00  0.00     0.032 A 
HETATM   29  C   UNL     1      42.813 -10.088   7.503  1.00  0.00     0.039 A 
HETATM   30  C   UNL     1      43.999 -10.176   8.228  1.00  0.00     0.068 A 
HETATM   31  C   UNL     1      44.969 -11.094   7.832  1.00  0.00     0.039 A 
HETATM   32  C   UNL     1      44.746 -11.939   6.744  1.00  0.00     0.032 A 
BRANCH  30  33
HETATM   33  O   UNL     1      44.341  -9.419   9.312  1.00  0.00    -0.352 OA
BRANCH  33  34
HETATM   34  C   UNL     1      44.925 -10.102  10.419  1.00  0.00     0.171 C 
HETATM   35  C   UNL     1      43.794 -10.619  11.292  1.00  0.00     0.034 C 
ENDBRANCH  33  34
ENDBRANCH  30  33
ENDBRANCH   1  27
TORSDOF 7
ENDMDL
MODEL 6
REMARK VINA RESULT:      -7.9      3.524      6.438
REMARK  7 active torsions:
REMARK  status: ('A' for Active; 'I' for Inactive)
REMARK    1  A    between atoms: C_2  and  O_3 
REMARK    2  A    between atoms: O_3  and  C_4 
REMARK    3  A    between atoms: C_7  and  N_8 
REMARK    4  A    between atoms: C_9  and  O_10 
REMARK    5  A    between atoms: C_9  and  C_11 
REMARK       I    between atoms: C_11  and  N_12 
REMARK    6  A    between atoms: N_12  and  C_13 
REMARK    7  A    between atoms: C_13  and  C_14 
ROOT
HETATM    1  N   UNL     1      41.776 -14.414   4.979  1.00  0.00    -0.254 N 
HETATM    2  C   UNL     1      41.763 -13.295   4.020  1.00  0.00     0.256 C 
HETATM    3  C   UNL     1      41.470 -11.968   4.684  1.00  0.00     0.034 A 
HETATM    4  C   UNL     1      40.689 -11.983   5.834  1.00  0.00     0.048 A 
HETATM    5  N   UNL     1      40.294 -13.212   6.353  1.00  0.00    -0.308 N 
HETATM    6  C   UNL     1      40.834 -14.423   6.002  1.00  0.00     0.330 C 
HETATM    7  O   UNL     1      40.487 -15.406   6.657  1.00  0.00    -0.246 OA
HETATM    8  C   UNL     1      41.870 -10.734   4.152  1.00  0.00     0.015 A 
HETATM    9  C   UNL     1      41.496  -9.542   4.775  1.00  0.00     0.001 A 
HETATM   10  C   UNL     1      40.705  -9.575   5.923  1.00  0.00     0.002 A 
HETATM   11  C   UNL     1      40.291 -10.797   6.451  1.00  0.00     0.030 A 
HETATM   12  H   UNL     1      39.719 -13.247   7.187  1.00  0.00     0.170 HD
ENDROOT
BRANCH   2  13
HETATM   13  O   UNL     1      43.032 -13.160   3.372  1.00  0.00    -0.359 OA
HETATM   14  H   UNL     1      42.820 -13.162   2.418  1.00  0.00     0.213 HD
ENDBRANCH   2  13
BRANCH   2  15
HETATM   15  C   UNL     1      40.675 -13.604   2.904  1.00  0.00     0.279 C 
HETATM   16  N   UNL     1      41.131 -13.934   1.645  1.00  0.00    -0.352 N 
HETATM   17  H   UNL     1      42.125 -14.028   1.476  1.00  0.00     0.162 HD
HETATM   18  O   UNL     1      39.468 -13.536   3.160  1.00  0.00    -0.268 OA
BRANCH  16  19
HETATM   19  C   UNL     1      40.222 -14.277   0.580  1.00  0.00     0.161 C 
BRANCH  19  20
HETATM   20  C   UNL     1      40.446 -13.389  -0.615  1.00  0.00    -0.040 A 
HETATM   21  C   UNL     1      40.179 -13.860  -1.911  1.00  0.00     0.012 A 
HETATM   22  C   UNL     1      40.417 -13.048  -3.020  1.00  0.00     0.043 A 
HETATM   23  C   UNL     1      40.927 -11.768  -2.837  1.00  0.00     0.116 A 
HETATM   24  F   UNL     1      41.156 -10.990  -3.903  1.00  0.00    -0.206 F 
HETATM   25  C   UNL     1      41.210 -11.287  -1.565  1.00  0.00     0.043 A 
HETATM   26  C   UNL     1      40.975 -12.098  -0.453  1.00  0.00     0.012 A 
ENDBRANCH  19  20
ENDBRANCH  16  19
ENDBRANCH   2  15
BRANCH   1  27
HETATM   27  C   UNL     1      42.451 -15.625   4.619  1.00  0.00     0.043 A 
HETATM   28  C   UNL     1      41.969 -16.470   3.614  1.00  0.00     0.032 A 
HETATM   29  C   UNL     1      42.647 -17.652   3.280  1.00  0.00     0.039 A 
HETATM   30  C   UNL     1      43.810 -18.010   3.960  1.00  0.00     0.068 A 
HETATM   31  C   UNL     1      44.272 -17.193   4.988  1.00  0.00     0.039 A 
HETATM   32  C   UNL     1      43.601 -16.013   5.316  1.00  0.00     0.032 A 
BRANCH  30  33
HETATM   33  O   UNL     1      44.565 -19.126   3.738  1.00  0.00    -0.352 OA
BRANCH  33  34
HETATM   34  C   UNL     1      43.892 -20.382   3.792  1.00  0.00     0.171 C 
HETATM   35  C   UNL     1      43.940 -20.870   5.230  1.00  0.00     0.034 C 
ENDBRANCH  33  34
ENDBRANCH  30  33
ENDBRANCH   1  27
TORSDOF 7
ENDMDL
MODEL 7
REMARK VINA RESULT:      -7.9      3.336      5.769
REMARK  7 active torsions:
REMARK  status: ('A' for Active; 'I' for Inactive)
REMARK    1  A    between atoms: C_2  and  O_3 
REMARK    2  A    between atoms: O_3  and  C_4 
REMARK    3  A    between atoms: C_7  and  N_8 
REMARK    4  A    between atoms: C_9  and  O_10 
REMARK    5  A    between atoms: C_9  and  C_11 
REMARK       I    between atoms: C_11  and  N_12 
REMARK    6  A    between atoms: N_12  and  C_13 
REMARK    7  A    between atoms: C_13  and  C_14 
ROOT
HETATM    1  N   UNL     1      41.096 -13.320   4.739  1.00  0.00    -0.254 N 
HETATM    2  C   UNL     1      41.141 -12.026   4.033  1.00  0.00     0.256 C 
HETATM    3  C   UNL     1      41.234 -10.853   4.983  1.00  0.00     0.034 A 
HETATM    4  C   UNL     1      40.672 -11.002   6.247  1.00  0.00     0.048 A 
HETATM    5  N   UNL     1      40.136 -12.239   6.593  1.00  0.00    -0.308 N 
HETATM    6  C   UNL     1      40.358 -13.410   5.914  1.00  0.00     0.330 C 
HETATM    7  O   UNL     1      39.941 -14.447   6.428  1.00  0.00    -0.246 OA
HETATM    8  C   UNL     1      41.773  -9.609   4.624  1.00  0.00     0.015 A 
HETATM    9  C   UNL     1      41.753  -8.544   5.526  1.00  0.00     0.001 A 
HETATM   10  C   UNL     1      41.178  -8.709   6.786  1.00  0.00     0.002 A 
HETATM   11  C   UNL     1      40.627  -9.938   7.147  1.00  0.00     0.030 A 
HETATM   12  H   UNL     1      39.716 -12.369   7.506  1.00  0.00     0.170 HD
ENDROOT
BRANCH   2  13
HETATM   13  O   UNL     1      42.283 -11.950   3.174  1.00  0.00    -0.359 OA
HETATM   14  H   UNL     1      42.237 -11.055   2.785  1.00  0.00     0.213 HD
ENDBRANCH   2  13
BRANCH   2  15
HETATM   15  C   UNL     1      39.841 -11.901   3.130  1.00  0.00     0.279 C 
HETATM   16  N   UNL     1      40.000 -11.412   1.850  1.00  0.00    -0.352 N 
HETATM   17  H   UNL     1      40.927 -11.202   1.501  1.00  0.00     0.162 HD
HETATM   18  O   UNL     1      38.731 -12.221   3.569  1.00  0.00    -0.268 OA
BRANCH  16  19
HETATM   19  C   UNL     1      38.886 -11.307   0.940  1.00  0.00     0.161 C 
BRANCH  19  20
HETATM   20  C   UNL     1      38.922 -12.423  -0.071  1.00  0.00    -0.040 A 
HETATM   21  C   UNL     1      39.851 -13.468   0.057  1.00  0.00     0.012 A 
HETATM   22  C   UNL     1      39.905 -14.485  -0.897  1.00  0.00     0.043 A 
HETATM   23  C   UNL     1      39.036 -14.456  -1.981  1.00  0.00     0.116 A 
HETATM   24  F   UNL     1      39.089 -15.433  -2.896  1.00  0.00    -0.206 F 
HETATM   25  C   UNL     1      38.117 -13.425  -2.132  1.00  0.00     0.043 A 
HETATM   26  C   UNL     1      38.062 -12.404  -1.181  1.00  0.00     0.012 A 
ENDBRANCH  19  20
ENDBRANCH  16  19
ENDBRANCH   2  15
BRANCH   1  27
HETATM   27  C   UNL     1      41.448 -14.509   4.023  1.00  0.00     0.043 A 
HETATM   28  C   UNL     1      40.557 -15.134   3.143  1.00  0.00     0.032 A 
HETATM   29  C   UNL     1      40.924 -16.300   2.455  1.00  0.00     0.039 A 
HETATM   30  C   UNL     1      42.183 -16.864   2.650  1.00  0.00     0.068 A 
HETATM   31  C   UNL     1      43.059 -16.269   3.555  1.00  0.00     0.039 A 
HETATM   32  C   UNL     1      42.697 -15.104   4.235  1.00  0.00     0.032 A 
BRANCH  30  33
HETATM   33  O   UNL     1      42.666 -17.990   2.048  1.00  0.00    -0.352 OA
BRANCH  33  34
HETATM   34  C   UNL     1      43.617 -18.758   2.783  1.00  0.00     0.171 C 
HETATM   35  C   UNL     1      43.613 -20.166   2.211  1.00  0.00     0.034 C 
ENDBRANCH  33  34
ENDBRANCH  30  33
ENDBRANCH   1  27
TORSDOF 7
ENDMDL
MODEL 8
REMARK VINA RESULT:      -7.7      2.292      6.459
REMARK  7 active torsions:
REMARK  status: ('A' for Active; 'I' for Inactive)
REMARK    1  A    between atoms: C_2  and  O_3 
REMARK    2  A    between atoms: O_3  and  C_4 
REMARK    3  A    between atoms: C_7  and  N_8 
REMARK    4  A    between atoms: C_9  and  O_10 
REMARK    5  A    between atoms: C_9  and  C_11 
REMARK       I    between atoms: C_11  and  N_12 
REMARK    6  A    between atoms: N_12  and  C_13 
REMARK    7  A    between atoms: C_13  and  C_14 
ROOT
HETATM    1  N   UNL     1      41.367 -12.052   4.179  1.00  0.00    -0.254 N 
HETATM    2  C   UNL     1      41.867 -12.112   2.793  1.00  0.00     0.256 C 
HETATM    3  C   UNL     1      40.795 -11.785   1.778  1.00  0.00     0.034 A 
HETATM    4  C   UNL     1      39.477 -12.074   2.116  1.00  0.00     0.048 A 
HETATM    5  N   UNL     1      39.213 -12.567   3.391  1.00  0.00    -0.308 N 
HETATM    6  C   UNL     1      40.089 -12.530   4.445  1.00  0.00     0.330 C 
HETATM    7  O   UNL     1      39.657 -12.864   5.548  1.00  0.00    -0.246 OA
HETATM    8  C   UNL     1      41.072 -11.292   0.494  1.00  0.00     0.015 A 
HETATM    9  C   UNL     1      40.038 -11.089  -0.422  1.00  0.00     0.001 A 
HETATM   10  C   UNL     1      38.724 -11.393  -0.068  1.00  0.00     0.002 A 
HETATM   11  C   UNL     1      38.441 -11.896   1.201  1.00  0.00     0.030 A 
HETATM   12  H   UNL     1      38.260 -12.791   3.657  1.00  0.00     0.170 HD
ENDROOT
BRANCH   2  13
HETATM   13  O   UNL     1      42.927 -11.174   2.588  1.00  0.00    -0.359 OA
HETATM   14  H   UNL     1      43.713 -11.603   2.980  1.00  0.00     0.213 HD
ENDBRANCH   2  13
BRANCH   2  15
HETATM   15  C   UNL     1      42.446 -13.569   2.532  1.00  0.00     0.279 C 
HETATM   16  N   UNL     1      41.572 -14.630   2.643  1.00  0.00    -0.352 N 
HETATM   17  H   UNL     1      40.591 -14.460   2.828  1.00  0.00     0.162 HD
HETATM   18  O   UNL     1      43.637 -13.735   2.251  1.00  0.00    -0.268 OA
BRANCH  16  19
HETATM   19  C   UNL     1      41.993 -15.983   2.377  1.00  0.00     0.161 C 
BRANCH  19  20
HETATM   20  C   UNL     1      42.397 -16.673   3.653  1.00  0.00    -0.040 A 
HETATM   21  C   UNL     1      41.812 -16.305   4.876  1.00  0.00     0.012 A 
HETATM   22  C   UNL     1      42.210 -16.922   6.063  1.00  0.00     0.043 A 
HETATM   23  C   UNL     1      43.196 -17.900   6.030  1.00  0.00     0.116 A 
HETATM   24  F   UNL     1      43.577 -18.491   7.170  1.00  0.00    -0.206 F 
HETATM   25  C   UNL     1      43.796 -18.270   4.833  1.00  0.00     0.043 A 
HETATM   26  C   UNL     1      43.402 -17.653   3.644  1.00  0.00     0.012 A 
ENDBRANCH  19  20
ENDBRANCH  16  19
ENDBRANCH   2  15
BRANCH   1  27
HETATM   27  C   UNL     1      42.308 -11.896   5.246  1.00  0.00     0.043 A 
HETATM   28  C   UNL     1      43.123 -12.951   5.674  1.00  0.00     0.032 A 
HETATM   29  C   UNL     1      44.037 -12.776   6.724  1.00  0.00     0.039 A 
HETATM   30  C   UNL     1      44.137 -11.544   7.369  1.00  0.00     0.068 A 
HETATM   31  C   UNL     1      43.301 -10.503   6.974  1.00  0.00     0.039 A 
HETATM   32  C   UNL     1      42.396 -10.675   5.924  1.00  0.00     0.032 A 
BRANCH  30  33
HETATM   33  O   UNL     1      44.979 -11.238   8.399  1.00  0.00    -0.352 OA
BRANCH  33  34
HETATM   34  C   UNL     1      45.101  -9.860   8.746  1.00  0.00     0.171 C 
HETATM   35  C   UNL     1      46.362  -9.328   8.086  1.00  0.00     0.034 C 
ENDBRANCH  33  34
ENDBRANCH  30  33
ENDBRANCH   1  27
TORSDOF 7
ENDMDL
MODEL 9
REMARK VINA RESULT:      -7.7      2.808      7.257
REMARK  7 active torsions:
REMARK  status: ('A' for Active; 'I' for Inactive)
REMARK    1  A    between atoms: C_2  and  O_3 
REMARK    2  A    between atoms: O_3  and  C_4 
REMARK    3  A    between atoms: C_7  and  N_8 
REMARK    4  A    between atoms: C_9  and  O_10 
REMARK    5  A    between atoms: C_9  and  C_11 
REMARK       I    between atoms: C_11  and  N_12 
REMARK    6  A    between atoms: N_12  and  C_13 
REMARK    7  A    between atoms: C_13  and  C_14 
ROOT
HETATM    1  N   UNL     1      40.124 -12.211   1.740  1.00  0.00    -0.254 N 
HETATM    2  C   UNL     1      40.661 -13.277   0.875  1.00  0.00     0.256 C 
HETATM    3  C   UNL     1      39.995 -13.309  -0.482  1.00  0.00     0.034 A 
HETATM    4  C   UNL     1      38.680 -12.862  -0.566  1.00  0.00     0.048 A 
HETATM    5  N   UNL     1      38.085 -12.337   0.577  1.00  0.00    -0.308 N 
HETATM    6  C   UNL     1      38.758 -11.956   1.710  1.00  0.00     0.330 C 
HETATM    7  O   UNL     1      38.113 -11.367   2.577  1.00  0.00    -0.246 OA
HETATM    8  C   UNL     1      40.602 -13.844  -1.628  1.00  0.00     0.015 A 
HETATM    9  C   UNL     1      39.899 -13.916  -2.831  1.00  0.00     0.001 A 
HETATM   10  C   UNL     1      38.578 -13.471  -2.894  1.00  0.00     0.002 A 
HETATM   11  C   UNL     1      37.962 -12.951  -1.757  1.00  0.00     0.030 A 
HETATM   12  H   UNL     1      37.125 -12.011   0.542  1.00  0.00     0.170 HD
ENDROOT
BRANCH   2  13
HETATM   13  O   UNL     1      42.061 -13.093   0.642  1.00  0.00    -0.359 OA
HETATM   14  H   UNL     1      42.492 -13.773   1.195  1.00  0.00     0.213 HD
ENDBRANCH   2  13
BRANCH   2  15
HETATM   15  C   UNL     1      40.468 -14.669   1.616  1.00  0.00     0.279 C 
HETATM   16  N   UNL     1      41.602 -15.398   1.906  1.00  0.00    -0.352 N 
HETATM   17  H   UNL     1      42.516 -15.015   1.698  1.00  0.00     0.162 HD
HETATM   18  O   UNL     1      39.340 -15.080   1.907  1.00  0.00    -0.268 OA
BRANCH  16  19
HETATM   19  C   UNL     1      41.532 -16.649   2.618  1.00  0.00     0.161 C 
BRANCH  19  20
HETATM   20  C   UNL     1      41.812 -16.442   4.083  1.00  0.00    -0.040 A 
HETATM   21  C   UNL     1      43.125 -16.527   4.574  1.00  0.00     0.012 A 
HETATM   22  C   UNL     1      43.381 -16.366   5.936  1.00  0.00     0.043 A 
HETATM   23  C   UNL     1      42.327 -16.126   6.809  1.00  0.00     0.116 A 
HETATM   24  F   UNL     1      42.574 -15.973   8.116  1.00  0.00    -0.206 F 
HETATM   25  C   UNL     1      41.019 -16.049   6.345  1.00  0.00     0.043 A 
HETATM   26  C   UNL     1      40.759 -16.213   4.983  1.00  0.00     0.012 A 
ENDBRANCH  19  20
ENDBRANCH  16  19
ENDBRANCH   2  15
BRANCH   1  27
HETATM   27  C   UNL     1      40.911 -11.759   2.848  1.00  0.00     0.043 A 
HETATM   28  C   UNL     1      41.522 -10.499   2.857  1.00  0.00     0.032 A 
HETATM   29  C   UNL     1      42.290 -10.079   3.953  1.00  0.00     0.039 A 
HETATM   30  C   UNL     1      42.468 -10.921   5.049  1.00  0.00     0.068 A 
HETATM   31  C   UNL     1      41.896 -12.191   5.028  1.00  0.00     0.039 A 
HETATM   32  C   UNL     1      41.126 -12.606   3.940  1.00  0.00     0.032 A 
BRANCH  30  33
HETATM   33  O   UNL     1      43.187 -10.639   6.175  1.00  0.00    -0.352 OA
BRANCH  33  34
HETATM   34  C   UNL     1      43.868 -11.728   6.796  1.00  0.00     0.171 C 
HETATM   35  C   UNL     1      45.356 -11.537   6.559  1.00  0.00     0.034 C 
ENDBRANCH  33  34
ENDBRANCH  30  33
ENDBRANCH   1  27
TORSDOF 7
ENDMDL
MODEL 10
REMARK VINA RESULT:      -7.7      2.147      6.359
REMARK  7 active torsions:
REMARK  status: ('A' for Active; 'I' for Inactive)
REMARK    1  A    between atoms: C_2  and  O_3 
REMARK    2  A    between atoms: O_3  and  C_4 
REMARK    3  A    between atoms: C_7  and  N_8 
REMARK    4  A    between atoms: C_9  and  O_10 
REMARK    5  A    between atoms: C_9  and  C_11 
REMARK       I    between atoms: C_11  and  N_12 
REMARK    6  A    between atoms: N_12  and  C_13 
REMARK    7  A    between atoms: C_13  and  C_14 
ROOT
HETATM    1  N   UNL     1      41.605 -12.381   5.225  1.00  0.00    -0.254 N 
HETATM    2  C   UNL     1      42.199 -13.309   4.246  1.00  0.00     0.256 C 
HETATM    3  C   UNL     1      41.330 -13.492   3.022  1.00  0.00     0.034 A 
HETATM    4  C   UNL     1      39.956 -13.342   3.179  1.00  0.00     0.048 A 
HETATM    5  N   UNL     1      39.470 -12.954   4.424  1.00  0.00    -0.308 N 
HETATM    6  C   UNL     1      40.232 -12.430   5.437  1.00  0.00     0.330 C 
HETATM    7  O   UNL     1      39.636 -11.992   6.421  1.00  0.00    -0.246 OA
HETATM    8  C   UNL     1      41.829 -13.887   1.772  1.00  0.00     0.015 A 
HETATM    9  C   UNL     1      40.959 -14.116   0.705  1.00  0.00     0.001 A 
HETATM   10  C   UNL     1      39.584 -13.970   0.883  1.00  0.00     0.002 A 
HETATM   11  C   UNL     1      39.077 -13.591   2.126  1.00  0.00     0.030 A 
HETATM   12  H   UNL     1      38.472 -12.845   4.564  1.00  0.00     0.170 HD
ENDROOT
BRANCH   2  13
HETATM   13  O   UNL     1      43.464 -12.826   3.783  1.00  0.00    -0.359 OA
HETATM   14  H   UNL     1      43.753 -13.488   3.125  1.00  0.00     0.213 HD
ENDBRANCH   2  13
BRANCH   2  15
HETATM   15  C   UNL     1      42.442 -14.706   4.961  1.00  0.00     0.279 C 
HETATM   16  N   UNL     1      43.615 -15.373   4.674  1.00  0.00    -0.352 N 
HETATM   17  H   UNL     1      44.306 -14.943   4.072  1.00  0.00     0.162 HD
HETATM   18  O   UNL     1      41.603 -15.175   5.736  1.00  0.00    -0.268 OA
BRANCH  16  19
HETATM   19  C   UNL     1      43.946 -16.623   5.310  1.00  0.00     0.161 C 
BRANCH  19  20
HETATM   20  C   UNL     1      43.785 -17.768   4.345  1.00  0.00    -0.040 A 
HETATM   21  C   UNL     1      44.167 -19.068   4.715  1.00  0.00     0.012 A 
HETATM   22  C   UNL     1      44.047 -20.124   3.810  1.00  0.00     0.043 A 
HETATM   23  C   UNL     1      43.552 -19.880   2.535  1.00  0.00     0.116 A 
HETATM   24  F   UNL     1      43.438 -20.894   1.667  1.00  0.00    -0.206 F 
HETATM   25  C   UNL     1      43.179 -18.600   2.145  1.00  0.00     0.043 A 
HETATM   26  C   UNL     1      43.301 -17.541   3.047  1.00  0.00     0.012 A 
ENDBRANCH  19  20
ENDBRANCH  16  19
ENDBRANCH   2  15
BRANCH   1  27
HETATM   27  C   UNL     1      42.456 -11.764   6.196  1.00  0.00     0.043 A 
HETATM   28  C   UNL     1      43.379 -12.501   6.947  1.00  0.00     0.032 A 
HETATM   29  C   UNL     1      44.201 -11.874   7.895  1.00  0.00     0.039 A 
HETATM   30  C   UNL     1      44.101 -10.502   8.114  1.00  0.00     0.068 A 
HETATM   31  C   UNL     1      43.157  -9.769   7.398  1.00  0.00     0.039 A 
HETATM   32  C   UNL     1      42.342 -10.392   6.450  1.00  0.00     0.032 A 
BRANCH  30  33
HETATM   33  O   UNL     1      44.836  -9.769   9.001  1.00  0.00    -0.352 OA
BRANCH  33  34
HETATM   34  C   UNL     1      44.782 -10.167  10.369  1.00  0.00     0.171 C 
HETATM   35  C   UNL     1      43.965  -9.129  11.120  1.00  0.00     0.034 C 
ENDBRANCH  33  34
ENDBRANCH  30  33
ENDBRANCH   1  27
TORSDOF 7
ENDMDL
