MODEL 1
REMARK VINA RESULT:      -7.7      0.000      0.000
REMARK  3 active torsions:
REMARK  status: ('A' for Active; 'I' for Inactive)
REMARK    1  A    between atoms: C_2  and  C_3 
REMARK    2  A    between atoms: C_9  and  C_10 
REMARK    3  A    between atoms: C_21  and  N_22 
ROOT
HETATM    1  C   UNL     1      44.005 -18.793   4.366  1.00  0.00     0.066 A 
HETATM    2  N   UNL     1      43.810 -19.970   4.988  1.00  0.00    -0.177 NA
HETATM    3  N   UNL     1      43.489 -19.631   6.254  1.00  0.00    -0.256 N 
HETATM    4  H   UNL     1      43.309 -20.368   6.927  1.00  0.00     0.191 HD
HETATM    5  C   UNL     1      43.486 -18.289   6.451  1.00  0.00     0.175 A 
HETATM    6  C   UNL     1      43.789 -17.707   5.247  1.00  0.00     0.035 A 
HETATM    7  C   UNL     1      43.882 -16.226   5.139  1.00  0.00     0.104 A 
HETATM    8  C   UNL     1      43.764 -15.594   6.523  1.00  0.00     0.067 A 
HETATM    9  C   UNL     1      44.114 -14.117   6.618  1.00  0.00     0.020 C 
HETATM   10  N   UNL     1      44.405 -12.893   6.696  1.00  0.00    -0.096 N 
HETATM   11  C   UNL     1      43.473 -16.299   7.649  1.00  0.00     0.139 A 
HETATM   12  O   UNL     1      43.258 -17.691   7.615  1.00  0.00    -0.279 OA
ENDROOT
BRANCH   7  13
HETATM   13  C   UNL     1      42.759 -15.802   4.200  1.00  0.00    -0.043 A 
HETATM   14  C   UNL     1      42.928 -14.783   3.241  1.00  0.00     0.033 A 
HETATM   15  C   UNL     1      41.882 -14.409   2.390  1.00  0.00     0.056 A 
HETATM   16 CL   UNL     1      42.184 -13.139   1.257  1.00  0.00    -0.083 Cl
HETATM   17  C   UNL     1      40.649 -15.059   2.477  1.00  0.00     0.055 A 
HETATM   18 CL   UNL     1      39.310 -14.652   1.465  1.00  0.00    -0.083 Cl
HETATM   19  C   UNL     1      40.470 -16.080   3.415  1.00  0.00     0.026 A 
HETATM   20  C   UNL     1      41.516 -16.451   4.265  1.00  0.00     0.010 A 
ENDBRANCH   7  13
BRANCH  11  21
HETATM   21  N   UNL     1      43.372 -15.774   8.917  1.00  0.00    -0.282 NA
HETATM   22  H   UNL     1      44.032 -15.035   9.146  1.00  0.00     0.126 HD
HETATM   23  H   UNL     1      42.412 -15.540   9.163  1.00  0.00     0.126 HD
ENDBRANCH  11  21
BRANCH   1  24
HETATM   24  C   UNL     1      44.415 -18.768   2.932  1.00  0.00     0.057 C 
HETATM   25  C   UNL     1      43.665 -19.787   2.089  1.00  0.00     0.011 C 
ENDBRANCH   1  24
TORSDOF 3
ENDMDL
MODEL 2
REMARK VINA RESULT:      -7.3      5.924      7.920
REMARK  3 active torsions:
REMARK  status: ('A' for Active; 'I' for Inactive)
REMARK    1  A    between atoms: C_2  and  C_3 
REMARK    2  A    between atoms: C_9  and  C_10 
REMARK    3  A    between atoms: C_21  and  N_22 
ROOT
HETATM    1  C   UNL     1      40.010 -13.532  -2.167  1.00  0.00     0.066 A 
HETATM    2  N   UNL     1      40.704 -13.456  -3.317  1.00  0.00    -0.177 NA
HETATM    3  N   UNL     1      41.517 -12.393  -3.149  1.00  0.00    -0.256 N 
HETATM    4  H   UNL     1      42.137 -12.126  -3.906  1.00  0.00     0.191 HD
HETATM    5  C   UNL     1      41.351 -11.794  -1.943  1.00  0.00     0.175 A 
HETATM    6  C   UNL     1      40.403 -12.515  -1.265  1.00  0.00     0.035 A 
HETATM    7  C   UNL     1      39.982 -12.094   0.099  1.00  0.00     0.104 A 
HETATM    8  C   UNL     1      40.621 -10.753   0.451  1.00  0.00     0.067 A 
HETATM    9  C   UNL     1      40.077 -10.056   1.687  1.00  0.00     0.020 C 
HETATM   10  N   UNL     1      39.626  -9.477   2.713  1.00  0.00    -0.096 N 
HETATM   11  C   UNL     1      41.545 -10.133  -0.330  1.00  0.00     0.139 A 
HETATM   12  O   UNL     1      41.985 -10.696  -1.544  1.00  0.00    -0.279 OA
ENDROOT
BRANCH   7  13
HETATM   13  C   UNL     1      40.413 -13.216   1.036  1.00  0.00    -0.043 A 
HETATM   14  C   UNL     1      41.674 -13.836   0.933  1.00  0.00     0.033 A 
HETATM   15  C   UNL     1      42.048 -14.866   1.805  1.00  0.00     0.056 A 
HETATM   16 CL   UNL     1      43.610 -15.573   1.589  1.00  0.00    -0.083 Cl
HETATM   17  C   UNL     1      41.166 -15.285   2.803  1.00  0.00     0.055 A 
HETATM   18 CL   UNL     1      41.554 -16.551   3.913  1.00  0.00    -0.083 Cl
HETATM   19  C   UNL     1      39.917 -14.670   2.927  1.00  0.00     0.026 A 
HETATM   20  C   UNL     1      39.545 -13.643   2.054  1.00  0.00     0.010 A 
ENDBRANCH   7  13
BRANCH  11  21
HETATM   21  N   UNL     1      42.134  -8.919  -0.060  1.00  0.00    -0.282 NA
HETATM   22  H   UNL     1      41.590  -8.278   0.512  1.00  0.00     0.126 HD
HETATM   23  H   UNL     1      43.096  -9.019   0.258  1.00  0.00     0.126 HD
ENDBRANCH  11  21
BRANCH   1  24
HETATM   24  C   UNL     1      38.969 -14.586  -1.993  1.00  0.00     0.057 C 
HETATM   25  C   UNL     1      38.288 -14.959  -3.301  1.00  0.00     0.011 C 
ENDBRANCH   1  24
TORSDOF 3
ENDMDL
MODEL 3
REMARK VINA RESULT:      -7.1      3.823      6.219
REMARK  3 active torsions:
REMARK  status: ('A' for Active; 'I' for Inactive)
REMARK    1  A    between atoms: C_2  and  C_3 
REMARK    2  A    between atoms: C_9  and  C_10 
REMARK    3  A    between atoms: C_21  and  N_22 
ROOT
HETATM    1  C   UNL     1      43.150 -12.329   6.178  1.00  0.00     0.066 A 
HETATM    2  N   UNL     1      42.535 -11.406   6.938  1.00  0.00    -0.177 NA
HETATM    3  N   UNL     1      41.265 -11.390   6.484  1.00  0.00    -0.256 N 
HETATM    4  H   UNL     1      40.603 -10.747   6.904  1.00  0.00     0.191 HD
HETATM    5  C   UNL     1      41.065 -12.259   5.462  1.00  0.00     0.175 A 
HETATM    6  C   UNL     1      42.254 -12.907   5.249  1.00  0.00     0.035 A 
HETATM    7  C   UNL     1      42.364 -13.922   4.167  1.00  0.00     0.104 A 
HETATM    8  C   UNL     1      41.082 -13.943   3.338  1.00  0.00     0.067 A 
HETATM    9  C   UNL     1      41.139 -14.724   2.035  1.00  0.00     0.020 C 
HETATM   10  N   UNL     1      41.187 -15.370   0.953  1.00  0.00    -0.096 N 
HETATM   11  C   UNL     1      39.969 -13.230   3.658  1.00  0.00     0.139 A 
HETATM   12  O   UNL     1      39.923 -12.403   4.797  1.00  0.00    -0.279 OA
ENDROOT
BRANCH   7  13
HETATM   13  C   UNL     1      42.637 -15.250   4.863  1.00  0.00    -0.043 A 
HETATM   14  C   UNL     1      43.449 -16.247   4.285  1.00  0.00     0.033 A 
HETATM   15  C   UNL     1      43.684 -17.460   4.943  1.00  0.00     0.056 A 
HETATM   16 CL   UNL     1      44.682 -18.624   4.145  1.00  0.00    -0.083 Cl
HETATM   17  C   UNL     1      43.119 -17.691   6.199  1.00  0.00     0.055 A 
HETATM   18 CL   UNL     1      43.361 -19.162   7.070  1.00  0.00    -0.083 Cl
HETATM   19  C   UNL     1      42.323 -16.706   6.791  1.00  0.00     0.026 A 
HETATM   20  C   UNL     1      42.087 -15.496   6.131  1.00  0.00     0.010 A 
ENDBRANCH   7  13
BRANCH  11  21
HETATM   21  N   UNL     1      38.800 -13.206   2.933  1.00  0.00    -0.282 NA
HETATM   22  H   UNL     1      38.489 -14.101   2.562  1.00  0.00     0.126 HD
HETATM   23  H   UNL     1      38.061 -12.693   3.409  1.00  0.00     0.126 HD
ENDBRANCH  11  21
BRANCH   1  24
HETATM   24  C   UNL     1      44.604 -12.604   6.371  1.00  0.00     0.057 C 
HETATM   25  C   UNL     1      45.389 -11.362   6.762  1.00  0.00     0.011 C 
ENDBRANCH   1  24
TORSDOF 3
ENDMDL
MODEL 4
REMARK VINA RESULT:      -6.9      2.138      2.645
REMARK  3 active torsions:
REMARK  status: ('A' for Active; 'I' for Inactive)
REMARK    1  A    between atoms: C_2  and  C_3 
REMARK    2  A    between atoms: C_9  and  C_10 
REMARK    3  A    between atoms: C_21  and  N_22 
ROOT
HETATM    1  C   UNL     1      43.179 -16.290   3.300  1.00  0.00     0.066 A 
HETATM    2  N   UNL     1      42.954 -17.608   3.440  1.00  0.00    -0.177 NA
HETATM    3  N   UNL     1      42.770 -17.778   4.766  1.00  0.00    -0.256 N 
HETATM    4  H   UNL     1      42.596 -18.712   5.121  1.00  0.00     0.191 HD
HETATM    5  C   UNL     1      42.882 -16.618   5.462  1.00  0.00     0.175 A 
HETATM    6  C   UNL     1      43.121 -15.625   4.547  1.00  0.00     0.035 A 
HETATM    7  C   UNL     1      43.312 -14.223   5.007  1.00  0.00     0.104 A 
HETATM    8  C   UNL     1      43.361 -14.174   6.531  1.00  0.00     0.067 A 
HETATM    9  C   UNL     1      43.825 -12.864   7.146  1.00  0.00     0.020 C 
HETATM   10  N   UNL     1      44.210 -11.777   7.656  1.00  0.00    -0.096 N 
HETATM   11  C   UNL     1      43.118 -15.252   7.325  1.00  0.00     0.139 A 
HETATM   12  O   UNL     1      42.801 -16.513   6.784  1.00  0.00    -0.279 OA
ENDROOT
BRANCH   7  13
HETATM   13  C   UNL     1      42.145 -13.430   4.429  1.00  0.00    -0.043 A 
HETATM   14  C   UNL     1      42.333 -12.393   3.493  1.00  0.00     0.033 A 
HETATM   15  C   UNL     1      41.246 -11.677   2.978  1.00  0.00     0.056 A 
HETATM   16 CL   UNL     1      41.581 -10.416   1.844  1.00  0.00    -0.083 Cl
HETATM   17  C   UNL     1      39.949 -11.995   3.384  1.00  0.00     0.055 A 
HETATM   18 CL   UNL     1      38.559 -11.155   2.796  1.00  0.00    -0.083 Cl
HETATM   19  C   UNL     1      39.745 -13.029   4.303  1.00  0.00     0.026 A 
HETATM   20  C   UNL     1      40.832 -13.742   4.818  1.00  0.00     0.010 A 
ENDBRANCH   7  13
BRANCH  11  21
HETATM   21  N   UNL     1      43.167 -15.258   8.700  1.00  0.00    -0.282 NA
HETATM   22  H   UNL     1      44.075 -15.058   9.113  1.00  0.00     0.126 HD
HETATM   23  H   UNL     1      42.412 -14.716   9.115  1.00  0.00     0.126 HD
ENDBRANCH  11  21
BRANCH   1  24
HETATM   24  C   UNL     1      43.463 -15.722   1.950  1.00  0.00     0.057 C 
HETATM   25  C   UNL     1      42.204 -15.278   1.223  1.00  0.00     0.011 C 
ENDBRANCH   1  24
TORSDOF 3
ENDMDL
MODEL 5
REMARK VINA RESULT:      -6.9      3.687      5.560
REMARK  3 active torsions:
REMARK  status: ('A' for Active; 'I' for Inactive)
REMARK    1  A    between atoms: C_2  and  C_3 
REMARK    2  A    between atoms: C_9  and  C_10 
REMARK    3  A    between atoms: C_21  and  N_22 
ROOT
HETATM    1  C   UNL     1      40.525 -13.767   1.934  1.00  0.00     0.066 A 
HETATM    2  N   UNL     1      40.508 -12.943   0.871  1.00  0.00    -0.177 NA
HETATM    3  N   UNL     1      41.531 -12.091   1.090  1.00  0.00    -0.256 N 
HETATM    4  H   UNL     1      41.707 -11.355   0.416  1.00  0.00     0.191 HD
HETATM    5  C   UNL     1      42.180 -12.343   2.254  1.00  0.00     0.175 A 
HETATM    6  C   UNL     1      41.577 -13.437   2.820  1.00  0.00     0.035 A 
HETATM    7  C   UNL     1      42.057 -13.955   4.130  1.00  0.00     0.104 A 
HETATM    8  C   UNL     1      43.105 -13.011   4.713  1.00  0.00     0.067 A 
HETATM    9  C   UNL     1      43.488 -13.250   6.164  1.00  0.00     0.020 C 
HETATM   10  N   UNL     1      43.806 -13.448   7.369  1.00  0.00    -0.096 N 
HETATM   11  C   UNL     1      43.608 -11.940   4.042  1.00  0.00     0.139 A 
HETATM   12  O   UNL     1      43.186 -11.621   2.736  1.00  0.00    -0.279 OA
ENDROOT
BRANCH   7  13
HETATM   13  C   UNL     1      42.608 -15.349   3.854  1.00  0.00    -0.043 A 
HETATM   14  C   UNL     1      42.752 -16.313   4.871  1.00  0.00     0.033 A 
HETATM   15  C   UNL     1      43.262 -17.587   4.594  1.00  0.00     0.056 A 
HETATM   16 CL   UNL     1      43.414 -18.694   5.912  1.00  0.00    -0.083 Cl
HETATM   17  C   UNL     1      43.627 -17.921   3.288  1.00  0.00     0.055 A 
HETATM   18 CL   UNL     1      44.267 -19.469   2.869  1.00  0.00    -0.083 Cl
HETATM   19  C   UNL     1      43.478 -16.979   2.266  1.00  0.00     0.026 A 
HETATM   20  C   UNL     1      42.969 -15.707   2.545  1.00  0.00     0.010 A 
ENDBRANCH   7  13
BRANCH  11  21
HETATM   21  N   UNL     1      44.539 -11.056   4.534  1.00  0.00    -0.282 NA
HETATM   22  H   UNL     1      44.587 -10.154   4.066  1.00  0.00     0.126 HD
HETATM   23  H   UNL     1      44.499 -10.977   5.548  1.00  0.00     0.126 HD
ENDBRANCH  11  21
BRANCH   1  24
HETATM   24  C   UNL     1      39.498 -14.842   2.060  1.00  0.00     0.057 C 
HETATM   25  C   UNL     1      39.791 -16.040   1.171  1.00  0.00     0.011 C 
ENDBRANCH   1  24
TORSDOF 3
ENDMDL
MODEL 6
REMARK VINA RESULT:      -6.8     13.208     14.822
REMARK  3 active torsions:
REMARK  status: ('A' for Active; 'I' for Inactive)
REMARK    1  A    between atoms: C_2  and  C_3 
REMARK    2  A    between atoms: C_9  and  C_10 
REMARK    3  A    between atoms: C_21  and  N_22 
ROOT
HETATM    1  C   UNL     1      43.548 -30.781   1.755  1.00  0.00     0.066 A 
HETATM    2  N   UNL     1      42.867 -30.063   2.665  1.00  0.00    -0.177 NA
HETATM    3  N   UNL     1      43.681 -29.025   2.951  1.00  0.00    -0.256 N 
HETATM    4  H   UNL     1      43.381 -28.343   3.638  1.00  0.00     0.191 HD
HETATM    5  C   UNL     1      44.849 -29.073   2.262  1.00  0.00     0.175 A 
HETATM    6  C   UNL     1      44.793 -30.180   1.455  1.00  0.00     0.035 A 
HETATM    7  C   UNL     1      45.947 -30.520   0.579  1.00  0.00     0.104 A 
HETATM    8  C   UNL     1      47.120 -29.591   0.877  1.00  0.00     0.067 A 
HETATM    9  C   UNL     1      48.457 -29.983   0.267  1.00  0.00     0.020 C 
HETATM   10  N   UNL     1      49.565 -30.308  -0.238  1.00  0.00    -0.096 N 
HETATM   11  C   UNL     1      47.042 -28.528   1.722  1.00  0.00     0.139 A 
HETATM   12  O   UNL     1      45.847 -28.206   2.396  1.00  0.00    -0.279 OA
ENDROOT
BRANCH   7  13
HETATM   13  C   UNL     1      45.439 -30.389  -0.852  1.00  0.00    -0.043 A 
HETATM   14  C   UNL     1      45.471 -29.165  -1.549  1.00  0.00     0.033 A 
HETATM   15  C   UNL     1      44.998 -29.067  -2.863  1.00  0.00     0.056 A 
HETATM   16 CL   UNL     1      45.067 -27.519  -3.628  1.00  0.00    -0.083 Cl
HETATM   17  C   UNL     1      44.494 -30.200  -3.506  1.00  0.00     0.055 A 
HETATM   18 CL   UNL     1      43.890 -30.159  -5.123  1.00  0.00    -0.083 Cl
HETATM   19  C   UNL     1      44.468 -31.424  -2.832  1.00  0.00     0.026 A 
HETATM   20  C   UNL     1      44.940 -31.519  -1.518  1.00  0.00     0.010 A 
ENDBRANCH   7  13
BRANCH  11  21
HETATM   21  N   UNL     1      48.076 -27.676   2.031  1.00  0.00    -0.282 NA
HETATM   22  H   UNL     1      47.936 -27.084   2.846  1.00  0.00     0.126 HD
HETATM   23  H   UNL     1      48.978 -28.148   2.032  1.00  0.00     0.126 HD
ENDBRANCH  11  21
BRANCH   1  24
HETATM   24  C   UNL     1      42.966 -32.046   1.218  1.00  0.00     0.057 C 
HETATM   25  C   UNL     1      41.446 -32.059   1.265  1.00  0.00     0.011 C 
ENDBRANCH   1  24
TORSDOF 3
ENDMDL
MODEL 7
REMARK VINA RESULT:      -6.7      8.731     10.574
REMARK  3 active torsions:
REMARK  status: ('A' for Active; 'I' for Inactive)
REMARK    1  A    between atoms: C_2  and  C_3 
REMARK    2  A    between atoms: C_9  and  C_10 
REMARK    3  A    between atoms: C_21  and  N_22 
ROOT
HETATM    1  C   UNL     1      44.336  -9.994  10.957  1.00  0.00     0.066 A 
HETATM    2  N   UNL     1      44.279 -11.304  11.256  1.00  0.00    -0.177 NA
HETATM    3  N   UNL     1      43.376 -11.382  12.255  1.00  0.00    -0.256 N 
HETATM    4  H   UNL     1      43.174 -12.288  12.662  1.00  0.00     0.191 HD
HETATM    5  C   UNL     1      42.874 -10.170  12.601  1.00  0.00     0.175 A 
HETATM    6  C   UNL     1      43.450  -9.246  11.767  1.00  0.00     0.035 A 
HETATM    7  C   UNL     1      43.112  -7.804  11.910  1.00  0.00     0.104 A 
HETATM    8  C   UNL     1      42.242  -7.591  13.146  1.00  0.00     0.067 A 
HETATM    9  C   UNL     1      42.043  -6.150  13.586  1.00  0.00     0.020 C 
HETATM   10  N   UNL     1      41.878  -4.954  13.951  1.00  0.00    -0.096 N 
HETATM   11  C   UNL     1      41.748  -8.609  13.902  1.00  0.00     0.139 A 
HETATM   12  O   UNL     1      42.012  -9.957  13.589  1.00  0.00    -0.279 OA
ENDROOT
BRANCH   7  13
HETATM   13  C   UNL     1      42.406  -7.408  10.618  1.00  0.00    -0.043 A 
HETATM   14  C   UNL     1      41.212  -8.026  10.196  1.00  0.00     0.033 A 
HETATM   15  C   UNL     1      40.583  -7.647   9.005  1.00  0.00     0.056 A 
HETATM   16 CL   UNL     1      39.130  -8.475   8.567  1.00  0.00    -0.083 Cl
HETATM   17  C   UNL     1      41.134  -6.633   8.220  1.00  0.00     0.055 A 
HETATM   18 CL   UNL     1      40.418  -6.112   6.737  1.00  0.00    -0.083 Cl
HETATM   19  C   UNL     1      42.311  -6.001   8.632  1.00  0.00     0.026 A 
HETATM   20  C   UNL     1      42.939  -6.382   9.822  1.00  0.00     0.010 A 
ENDBRANCH   7  13
BRANCH  11  21
HETATM   21  N   UNL     1      40.975  -8.463  15.030  1.00  0.00    -0.282 NA
HETATM   22  H   UNL     1      40.815  -7.508  15.339  1.00  0.00     0.126 HD
HETATM   23  H   UNL     1      40.122  -9.016  14.987  1.00  0.00     0.126 HD
ENDBRANCH  11  21
BRANCH   1  24
HETATM   24  C   UNL     1      45.271  -9.511   9.900  1.00  0.00     0.057 C 
HETATM   25  C   UNL     1      44.623  -9.453   8.525  1.00  0.00     0.011 C 
ENDBRANCH   1  24
TORSDOF 3
ENDMDL
MODEL 8
REMARK VINA RESULT:      -6.6      7.929     10.092
REMARK  3 active torsions:
REMARK  status: ('A' for Active; 'I' for Inactive)
REMARK    1  A    between atoms: C_2  and  C_3 
REMARK    2  A    between atoms: C_9  and  C_10 
REMARK    3  A    between atoms: C_21  and  N_22 
ROOT
HETATM    1  C   UNL     1      41.467  -9.477  11.692  1.00  0.00     0.066 A 
HETATM    2  N   UNL     1      40.513 -10.292  12.175  1.00  0.00    -0.177 NA
HETATM    3  N   UNL     1      39.557 -10.290  11.223  1.00  0.00    -0.256 N 
HETATM    4  H   UNL     1      38.714 -10.833  11.375  1.00  0.00     0.191 HD
HETATM    5  C   UNL     1      39.871  -9.496  10.169  1.00  0.00     0.175 A 
HETATM    6  C   UNL     1      41.113  -8.971  10.420  1.00  0.00     0.035 A 
HETATM    7  C   UNL     1      41.734  -8.033   9.446  1.00  0.00     0.104 A 
HETATM    8  C   UNL     1      40.736  -7.689   8.343  1.00  0.00     0.067 A 
HETATM    9  C   UNL     1      41.118  -6.536   7.429  1.00  0.00     0.020 C 
HETATM   10  N   UNL     1      41.436  -5.579   6.672  1.00  0.00    -0.096 N 
HETATM   11  C   UNL     1      39.517  -8.280   8.221  1.00  0.00     0.139 A 
HETATM   12  O   UNL     1      39.083  -9.271   9.124  1.00  0.00    -0.279 OA
ENDROOT
BRANCH   7  13
HETATM   13  C   UNL     1      42.976  -8.741   8.916  1.00  0.00    -0.043 A 
HETATM   14  C   UNL     1      42.913 -10.012   8.309  1.00  0.00     0.033 A 
HETATM   15  C   UNL     1      44.067 -10.643   7.831  1.00  0.00     0.056 A 
HETATM   16 CL   UNL     1      43.889 -12.206   7.116  1.00  0.00    -0.083 Cl
HETATM   17  C   UNL     1      45.305 -10.006   7.944  1.00  0.00     0.055 A 
HETATM   18 CL   UNL     1      46.773 -10.723   7.381  1.00  0.00    -0.083 Cl
HETATM   19  C   UNL     1      45.381  -8.741   8.532  1.00  0.00     0.026 A 
HETATM   20  C   UNL     1      44.227  -8.112   9.010  1.00  0.00     0.010 A 
ENDBRANCH   7  13
BRANCH  11  21
HETATM   21  N   UNL     1      38.582  -7.990   7.255  1.00  0.00    -0.282 NA
HETATM   22  H   UNL     1      37.661  -8.398   7.392  1.00  0.00     0.126 HD
HETATM   23  H   UNL     1      38.550  -6.997   7.036  1.00  0.00     0.126 HD
ENDBRANCH  11  21
BRANCH   1  24
HETATM   24  C   UNL     1      42.692  -9.203  12.501  1.00  0.00     0.057 C 
HETATM   25  C   UNL     1      42.770  -7.760  12.975  1.00  0.00     0.011 C 
ENDBRANCH   1  24
TORSDOF 3
ENDMDL
MODEL 9
REMARK VINA RESULT:      -6.4     14.005     16.180
REMARK  3 active torsions:
REMARK  status: ('A' for Active; 'I' for Inactive)
REMARK    1  A    between atoms: C_2  and  C_3 
REMARK    2  A    between atoms: C_9  and  C_10 
REMARK    3  A    between atoms: C_21  and  N_22 
ROOT
HETATM    1  C   UNL     1      48.883 -29.965  -0.170  1.00  0.00     0.066 A 
HETATM    2  N   UNL     1      48.906 -28.822  -0.879  1.00  0.00    -0.177 NA
HETATM    3  N   UNL     1      47.970 -28.046  -0.293  1.00  0.00    -0.256 N 
HETATM    4  H   UNL     1      47.794 -27.122  -0.672  1.00  0.00     0.191 HD
HETATM    5  C   UNL     1      47.355 -28.663   0.747  1.00  0.00     0.175 A 
HETATM    6  C   UNL     1      47.935 -29.899   0.877  1.00  0.00     0.035 A 
HETATM    7  C   UNL     1      47.459 -30.835   1.931  1.00  0.00     0.104 A 
HETATM    8  C   UNL     1      46.223 -30.262   2.620  1.00  0.00     0.067 A 
HETATM    9  C   UNL     1      45.457 -31.213   3.525  1.00  0.00     0.020 C 
HETATM   10  N   UNL     1      44.822 -32.004   4.274  1.00  0.00    -0.096 N 
HETATM   11  C   UNL     1      45.741 -29.013   2.381  1.00  0.00     0.139 A 
HETATM   12  O   UNL     1      46.361 -28.145   1.459  1.00  0.00    -0.279 OA
ENDROOT
BRANCH   7  13
HETATM   13  C   UNL     1      48.632 -31.024   2.886  1.00  0.00    -0.043 A 
HETATM   14  C   UNL     1      49.250 -32.276   3.077  1.00  0.00     0.033 A 
HETATM   15  C   UNL     1      50.325 -32.426   3.961  1.00  0.00     0.056 A 
HETATM   16 CL   UNL     1      51.006 -34.004   4.136  1.00  0.00    -0.083 Cl
HETATM   17  C   UNL     1      50.808 -31.318   4.661  1.00  0.00     0.055 A 
HETATM   18 CL   UNL     1      52.128 -31.424   5.770  1.00  0.00    -0.083 Cl
HETATM   19  C   UNL     1      50.214 -30.067   4.473  1.00  0.00     0.026 A 
HETATM   20  C   UNL     1      49.138 -29.920   3.591  1.00  0.00     0.010 A 
ENDBRANCH   7  13
BRANCH  11  21
HETATM   21  N   UNL     1      44.625 -28.462   2.966  1.00  0.00    -0.282 NA
HETATM   22  H   UNL     1      43.731 -28.743   2.570  1.00  0.00     0.126 HD
HETATM   23  H   UNL     1      44.650 -28.527   3.981  1.00  0.00     0.126 HD
ENDBRANCH  11  21
BRANCH   1  24
HETATM   24  C   UNL     1      49.778 -31.096  -0.553  1.00  0.00     0.057 C 
HETATM   25  C   UNL     1      51.133 -31.030   0.133  1.00  0.00     0.011 C 
ENDBRANCH   1  24
TORSDOF 3
ENDMDL
MODEL 10
REMARK VINA RESULT:      -6.4      3.710      4.726
REMARK  3 active torsions:
REMARK  status: ('A' for Active; 'I' for Inactive)
REMARK    1  A    between atoms: C_2  and  C_3 
REMARK    2  A    between atoms: C_9  and  C_10 
REMARK    3  A    between atoms: C_21  and  N_22 
ROOT
HETATM    1  C   UNL     1      41.438 -15.378   3.984  1.00  0.00     0.066 A 
HETATM    2  N   UNL     1      40.895 -16.391   4.682  1.00  0.00    -0.177 NA
HETATM    3  N   UNL     1      40.151 -15.785   5.630  1.00  0.00    -0.256 N 
HETATM    4  H   UNL     1      39.649 -16.359   6.299  1.00  0.00     0.191 HD
HETATM    5  C   UNL     1      40.217 -14.432   5.561  1.00  0.00     0.175 A 
HETATM    6  C   UNL     1      41.019 -14.125   4.492  1.00  0.00     0.035 A 
HETATM    7  C   UNL     1      41.304 -12.703   4.161  1.00  0.00     0.104 A 
HETATM    8  C   UNL     1      40.733 -11.790   5.243  1.00  0.00     0.067 A 
HETATM    9  C   UNL     1      41.176 -10.337   5.197  1.00  0.00     0.020 C 
HETATM   10  N   UNL     1      41.545  -9.132   5.159  1.00  0.00    -0.096 N 
HETATM   11  C   UNL     1      39.959 -12.235   6.269  1.00  0.00     0.139 A 
HETATM   12  O   UNL     1      39.625 -13.597   6.408  1.00  0.00    -0.279 OA
ENDROOT
BRANCH   7  13
HETATM   13  C   UNL     1      40.680 -12.457   2.793  1.00  0.00    -0.043 A 
HETATM   14  C   UNL     1      39.318 -12.128   2.638  1.00  0.00     0.033 A 
HETATM   15  C   UNL     1      38.765 -11.908   1.371  1.00  0.00     0.056 A 
HETATM   16 CL   UNL     1      37.083 -11.524   1.285  1.00  0.00    -0.083 Cl
HETATM   17  C   UNL     1      39.572 -12.003   0.235  1.00  0.00     0.055 A 
HETATM   18 CL   UNL     1      38.963 -11.749  -1.361  1.00  0.00    -0.083 Cl
HETATM   19  C   UNL     1      40.928 -12.316   0.373  1.00  0.00     0.026 A 
HETATM   20  C   UNL     1      41.477 -12.537   1.640  1.00  0.00     0.010 A 
ENDBRANCH   7  13
BRANCH  11  21
HETATM   21  N   UNL     1      39.437 -11.452   7.273  1.00  0.00    -0.282 NA
HETATM   22  H   UNL     1      38.802 -10.715   6.978  1.00  0.00     0.126 HD
HETATM   23  H   UNL     1      39.072 -12.007   8.045  1.00  0.00     0.126 HD
ENDBRANCH  11  21
BRANCH   1  24
HETATM   24  C   UNL     1      42.367 -15.665   2.853  1.00  0.00     0.057 C 
HETATM   25  C   UNL     1      42.480 -17.151   2.551  1.00  0.00     0.011 C 
ENDBRANCH   1  24
TORSDOF 3
ENDMDL
