MODEL 1
REMARK VINA RESULT:     -10.6      0.000      0.000
REMARK  6 active torsions:
REMARK  status: ('A' for Active; 'I' for Inactive)
REMARK    1  A    between atoms: C_4  and  C_5 
REMARK    2  A    between atoms: N_8  and  C_9 
REMARK    3  A    between atoms: C_12  and  N_13 
REMARK       I    between atoms: N_13  and  C_14 
REMARK       I    between atoms: C_14  and  N_15 
REMARK    4  A    between atoms: N_15  and  C_16 
REMARK    5  A    between atoms: C_19  and  O_20 
REMARK    6  A    between atoms: O_20  and  C_21 
ROOT
HETATM    1  C   UNL     1      44.142 -10.025   7.779  1.00  0.00     0.161 C 
HETATM    2  C   UNL     1      43.008 -10.896   7.262  1.00  0.00     0.179 C 
HETATM    3  C   UNL     1      43.578 -11.637   6.060  1.00  0.00     0.177 C 
HETATM    4  C   UNL     1      42.652 -11.281   4.903  1.00  0.00     0.141 C 
HETATM    5  C   UNL     1      41.449 -10.634   5.590  1.00  0.00     0.196 C 
HETATM    6  O   UNL     1      41.923 -10.066   6.813  1.00  0.00    -0.379 OA
HETATM    7  O   UNL     1      44.915 -11.135   5.860  1.00  0.00    -0.379 OA
HETATM    8  C   UNL     1      45.360 -10.680   7.154  1.00  0.00     0.198 C 
ENDROOT
BRANCH   4   9
HETATM    9  N   UNL     1      42.274 -12.375   4.011  1.00  0.00    -0.334 N 
HETATM   10  C   UNL     1      41.467 -12.175   2.929  1.00  0.00     0.321 C 
HETATM   11  N   UNL     1      41.453 -13.143   1.973  1.00  0.00    -0.309 N 
HETATM   12  O   UNL     1      40.860 -11.126   2.736  1.00  0.00    -0.247 OA
HETATM   13  H   UNL     1      41.073 -12.790   1.103  1.00  0.00     0.170 HD
HETATM   14  H   UNL     1      42.986 -13.076   3.872  1.00  0.00     0.164 HD
BRANCH  11  15
HETATM   15  C   UNL     1      41.947 -14.457   1.959  1.00  0.00     0.036 A 
HETATM   16  C   UNL     1      43.270 -14.786   1.659  1.00  0.00     0.032 A 
HETATM   17  C   UNL     1      43.680 -16.124   1.659  1.00  0.00     0.039 A 
HETATM   18  C   UNL     1      42.771 -17.142   1.952  1.00  0.00     0.076 A 
HETATM   19  C   UNL     1      41.458 -16.813   2.292  1.00  0.00     0.039 A 
HETATM   20  C   UNL     1      41.055 -15.475   2.311  1.00  0.00     0.032 A 
BRANCH  18  21
HETATM   21  O   UNL     1      43.281 -18.424   1.945  1.00  0.00    -0.311 OA
BRANCH  21  22
HETATM   22  C   UNL     1      43.547 -18.998   3.163  1.00  0.00     0.076 A 
HETATM   23  C   UNL     1      43.617 -18.203   4.306  1.00  0.00     0.037 A 
HETATM   24  C   UNL     1      43.848 -18.798   5.546  1.00  0.00     0.003 A 
HETATM   25  C   UNL     1      44.001 -20.184   5.637  1.00  0.00     0.000 A 
HETATM   26  C   UNL     1      43.910 -20.977   4.492  1.00  0.00     0.003 A 
HETATM   27  C   UNL     1      43.668 -20.386   3.252  1.00  0.00     0.037 A 
ENDBRANCH  21  22
ENDBRANCH  18  21
ENDBRANCH  11  15
ENDBRANCH   4   9
BRANCH   1  28
HETATM   28  N   UNL     1      44.142  -9.906   9.215  1.00  0.00    -0.273 N 
HETATM   29  N   UNL     1      45.061 -10.522   9.976  1.00  0.00     0.005 NA
HETATM   30  N   UNL     1      44.792 -10.226  11.242  1.00  0.00    -0.158 NA
HETATM   31  C   UNL     1      43.699  -9.394  11.270  1.00  0.00     0.101 A 
HETATM   32  C   UNL     1      43.295  -9.153   9.977  1.00  0.00     0.142 A 
BRANCH  31  33
HETATM   33  C   UNL     1      43.097  -8.869  12.482  1.00  0.00    -0.005 A 
HETATM   34  C   UNL     1      43.602  -7.696  13.060  1.00  0.00     0.014 A 
HETATM   35  C   UNL     1      43.044  -7.180  14.232  1.00  0.00     0.001 A 
HETATM   36  C   UNL     1      41.975  -7.832  14.844  1.00  0.00     0.000 A 
HETATM   37  C   UNL     1      41.465  -9.000  14.284  1.00  0.00     0.001 A 
HETATM   38  C   UNL     1      42.020  -9.516  13.110  1.00  0.00     0.014 A 
ENDBRANCH  31  33
ENDBRANCH   1  28
TORSDOF 6
ENDMDL
MODEL 2
REMARK VINA RESULT:     -10.5      2.553     11.255
REMARK  6 active torsions:
REMARK  status: ('A' for Active; 'I' for Inactive)
REMARK    1  A    between atoms: C_4  and  C_5 
REMARK    2  A    between atoms: N_8  and  C_9 
REMARK    3  A    between atoms: C_12  and  N_13 
REMARK       I    between atoms: N_13  and  C_14 
REMARK       I    between atoms: C_14  and  N_15 
REMARK    4  A    between atoms: N_15  and  C_16 
REMARK    5  A    between atoms: C_19  and  O_20 
REMARK    6  A    between atoms: O_20  and  C_21 
ROOT
HETATM    1  C   UNL     1      41.568 -13.645   3.060  1.00  0.00     0.161 C 
HETATM    2  C   UNL     1      42.161 -12.919   4.258  1.00  0.00     0.179 C 
HETATM    3  C   UNL     1      40.976 -12.306   4.991  1.00  0.00     0.177 C 
HETATM    4  C   UNL     1      41.281 -10.813   5.054  1.00  0.00     0.141 C 
HETATM    5  C   UNL     1      42.752 -10.729   4.645  1.00  0.00     0.196 C 
HETATM    6  O   UNL     1      43.017 -11.856   3.806  1.00  0.00    -0.379 OA
HETATM    7  O   UNL     1      39.806 -12.589   4.197  1.00  0.00    -0.379 OA
HETATM    8  C   UNL     1      40.113 -13.792   3.464  1.00  0.00     0.198 C 
ENDROOT
BRANCH   4   9
HETATM    9  N   UNL     1      41.007 -10.145   6.323  1.00  0.00    -0.334 N 
HETATM   10  C   UNL     1      40.003  -9.230   6.453  1.00  0.00     0.321 C 
HETATM   11  N   UNL     1      39.592  -8.928   7.714  1.00  0.00    -0.309 N 
HETATM   12  O   UNL     1      39.393  -8.770   5.492  1.00  0.00    -0.247 OA
HETATM   13  H   UNL     1      38.681  -8.484   7.703  1.00  0.00     0.170 HD
HETATM   14  H   UNL     1      41.157 -10.713   7.144  1.00  0.00     0.164 HD
BRANCH  11  15
HETATM   15  C   UNL     1      40.145  -9.206   8.974  1.00  0.00     0.036 A 
HETATM   16  C   UNL     1      39.395  -9.617  10.077  1.00  0.00     0.032 A 
HETATM   17  C   UNL     1      40.024  -9.866  11.302  1.00  0.00     0.039 A 
HETATM   18  C   UNL     1      41.404  -9.699  11.436  1.00  0.00     0.076 A 
HETATM   19  C   UNL     1      42.161  -9.326  10.325  1.00  0.00     0.039 A 
HETATM   20  C   UNL     1      41.534  -9.098   9.096  1.00  0.00     0.032 A 
BRANCH  18  21
HETATM   21  O   UNL     1      41.927  -9.990  12.679  1.00  0.00    -0.311 OA
BRANCH  21  22
HETATM   22  C   UNL     1      42.055  -8.949  13.564  1.00  0.00     0.076 A 
HETATM   23  C   UNL     1      41.205  -8.865  14.665  1.00  0.00     0.037 A 
HETATM   24  C   UNL     1      41.367  -7.827  15.583  1.00  0.00     0.003 A 
HETATM   25  C   UNL     1      42.381  -6.885  15.399  1.00  0.00     0.000 A 
HETATM   26  C   UNL     1      43.243  -6.986  14.305  1.00  0.00     0.003 A 
HETATM   27  C   UNL     1      43.091  -8.029  13.392  1.00  0.00     0.037 A 
ENDBRANCH  21  22
ENDBRANCH  18  21
ENDBRANCH  11  15
ENDBRANCH   4   9
BRANCH   1  28
HETATM   28  N   UNL     1      42.272 -14.861   2.741  1.00  0.00    -0.273 N 
HETATM   29  N   UNL     1      43.047 -14.965   1.649  1.00  0.00     0.005 NA
HETATM   30  N   UNL     1      43.546 -16.195   1.633  1.00  0.00    -0.158 NA
HETATM   31  C   UNL     1      43.092 -16.863   2.744  1.00  0.00     0.101 A 
HETATM   32  C   UNL     1      42.304 -16.009   3.480  1.00  0.00     0.142 A 
BRANCH  31  33
HETATM   33  C   UNL     1      43.414 -18.243   3.061  1.00  0.00    -0.005 A 
HETATM   34  C   UNL     1      43.198 -19.246   2.107  1.00  0.00     0.014 A 
HETATM   35  C   UNL     1      43.493 -20.582   2.396  1.00  0.00     0.001 A 
HETATM   36  C   UNL     1      44.002 -20.930   3.644  1.00  0.00     0.000 A 
HETATM   37  C   UNL     1      44.218 -19.946   4.605  1.00  0.00     0.001 A 
HETATM   38  C   UNL     1      43.927 -18.609   4.316  1.00  0.00     0.014 A 
ENDBRANCH  31  33
ENDBRANCH   1  28
TORSDOF 6
ENDMDL
MODEL 3
REMARK VINA RESULT:     -10.2      2.225     11.915
REMARK  6 active torsions:
REMARK  status: ('A' for Active; 'I' for Inactive)
REMARK    1  A    between atoms: C_4  and  C_5 
REMARK    2  A    between atoms: N_8  and  C_9 
REMARK    3  A    between atoms: C_12  and  N_13 
REMARK       I    between atoms: N_13  and  C_14 
REMARK       I    between atoms: C_14  and  N_15 
REMARK    4  A    between atoms: N_15  and  C_16 
REMARK    5  A    between atoms: C_19  and  O_20 
REMARK    6  A    between atoms: O_20  and  C_21 
ROOT
HETATM    1  C   UNL     1      42.839 -12.722   4.835  1.00  0.00     0.161 C 
HETATM    2  C   UNL     1      43.313 -12.583   6.274  1.00  0.00     0.179 C 
HETATM    3  C   UNL     1      42.763 -11.248   6.757  1.00  0.00     0.177 C 
HETATM    4  C   UNL     1      43.988 -10.459   7.209  1.00  0.00     0.141 C 
HETATM    5  C   UNL     1      45.097 -11.510   7.253  1.00  0.00     0.196 C 
HETATM    6  O   UNL     1      44.749 -12.525   6.308  1.00  0.00    -0.379 OA
HETATM    7  O   UNL     1      42.109 -10.636   5.628  1.00  0.00    -0.379 OA
HETATM    8  C   UNL     1      41.695 -11.725   4.778  1.00  0.00     0.198 C 
ENDROOT
BRANCH   4   9
HETATM    9  N   UNL     1      43.860  -9.718   8.460  1.00  0.00    -0.334 N 
HETATM   10  C   UNL     1      44.610  -8.609   8.720  1.00  0.00     0.321 C 
HETATM   11  N   UNL     1      44.190  -7.791   9.724  1.00  0.00    -0.309 N 
HETATM   12  O   UNL     1      45.560  -8.269   8.021  1.00  0.00    -0.247 OA
HETATM   13  H   UNL     1      44.621  -6.877   9.652  1.00  0.00     0.170 HD
HETATM   14  H   UNL     1      42.925  -9.683   8.841  1.00  0.00     0.164 HD
BRANCH  11  15
HETATM   15  C   UNL     1      43.230  -7.960  10.734  1.00  0.00     0.036 A 
HETATM   16  C   UNL     1      41.905  -7.538  10.623  1.00  0.00     0.032 A 
HETATM   17  C   UNL     1      41.012  -7.738  11.682  1.00  0.00     0.039 A 
HETATM   18  C   UNL     1      41.438  -8.353  12.860  1.00  0.00     0.076 A 
HETATM   19  C   UNL     1      42.753  -8.812  12.958  1.00  0.00     0.039 A 
HETATM   20  C   UNL     1      43.638  -8.630  11.892  1.00  0.00     0.032 A 
BRANCH  18  21
HETATM   21  O   UNL     1      40.476  -8.521  13.834  1.00  0.00    -0.311 OA
BRANCH  21  22
HETATM   22  C   UNL     1      40.489  -7.641  14.887  1.00  0.00     0.076 A 
HETATM   23  C   UNL     1      39.679  -6.507  14.854  1.00  0.00     0.037 A 
HETATM   24  C   UNL     1      39.667  -5.638  15.946  1.00  0.00     0.003 A 
HETATM   25  C   UNL     1      40.459  -5.911  17.063  1.00  0.00     0.000 A 
HETATM   26  C   UNL     1      41.253  -7.058  17.098  1.00  0.00     0.003 A 
HETATM   27  C   UNL     1      41.258  -7.935  16.014  1.00  0.00     0.037 A 
ENDBRANCH  21  22
ENDBRANCH  18  21
ENDBRANCH  11  15
ENDBRANCH   4   9
BRANCH   1  28
HETATM   28  N   UNL     1      42.522 -14.083   4.482  1.00  0.00    -0.273 N 
HETATM   29  N   UNL     1      41.255 -14.498   4.326  1.00  0.00     0.005 NA
HETATM   30  N   UNL     1      41.295 -15.787   4.012  1.00  0.00    -0.158 NA
HETATM   31  C   UNL     1      42.610 -16.178   3.951  1.00  0.00     0.101 A 
HETATM   32  C   UNL     1      43.407 -15.088   4.215  1.00  0.00     0.142 A 
BRANCH  31  33
HETATM   33  C   UNL     1      43.052 -17.528   3.649  1.00  0.00    -0.005 A 
HETATM   34  C   UNL     1      42.744 -18.101   2.407  1.00  0.00     0.014 A 
HETATM   35  C   UNL     1      43.152 -19.401   2.100  1.00  0.00     0.001 A 
HETATM   36  C   UNL     1      43.869 -20.148   3.033  1.00  0.00     0.000 A 
HETATM   37  C   UNL     1      44.178 -19.594   4.273  1.00  0.00     0.001 A 
HETATM   38  C   UNL     1      43.774 -18.292   4.580  1.00  0.00     0.014 A 
ENDBRANCH  31  33
ENDBRANCH   1  28
TORSDOF 6
ENDMDL
MODEL 4
REMARK VINA RESULT:     -10.2      3.313     11.793
REMARK  6 active torsions:
REMARK  status: ('A' for Active; 'I' for Inactive)
REMARK    1  A    between atoms: C_4  and  C_5 
REMARK    2  A    between atoms: N_8  and  C_9 
REMARK    3  A    between atoms: C_12  and  N_13 
REMARK       I    between atoms: N_13  and  C_14 
REMARK       I    between atoms: C_14  and  N_15 
REMARK    4  A    between atoms: N_15  and  C_16 
REMARK    5  A    between atoms: C_19  and  O_20 
REMARK    6  A    between atoms: O_20  and  C_21 
ROOT
HETATM    1  C   UNL     1      42.704 -12.979   3.275  1.00  0.00     0.161 C 
HETATM    2  C   UNL     1      42.379 -13.052   4.759  1.00  0.00     0.179 C 
HETATM    3  C   UNL     1      43.059 -11.843   5.386  1.00  0.00     0.177 C 
HETATM    4  C   UNL     1      43.974 -12.420   6.460  1.00  0.00     0.141 C 
HETATM    5  C   UNL     1      43.511 -13.872   6.586  1.00  0.00     0.196 C 
HETATM    6  O   UNL     1      42.953 -14.243   5.323  1.00  0.00    -0.379 OA
HETATM    7  O   UNL     1      43.799 -11.192   4.333  1.00  0.00    -0.379 OA
HETATM    8  C   UNL     1      43.115 -11.527   3.109  1.00  0.00     0.198 C 
ENDROOT
BRANCH   4   9
HETATM    9  N   UNL     1      43.996 -11.719   7.741  1.00  0.00    -0.334 N 
HETATM   10  C   UNL     1      45.005 -10.864   8.077  1.00  0.00     0.321 C 
HETATM   11  N   UNL     1      44.777 -10.002   9.105  1.00  0.00    -0.309 N 
HETATM   12  O   UNL     1      46.040 -10.766   7.424  1.00  0.00    -0.247 OA
HETATM   13  H   UNL     1      45.440  -9.235   9.090  1.00  0.00     0.170 HD
HETATM   14  H   UNL     1      43.090 -11.448   8.094  1.00  0.00     0.164 HD
BRANCH  11  15
HETATM   15  C   UNL     1      43.766  -9.944  10.076  1.00  0.00     0.036 A 
HETATM   16  C   UNL     1      42.558  -9.266   9.899  1.00  0.00     0.032 A 
HETATM   17  C   UNL     1      41.604  -9.251  10.922  1.00  0.00     0.039 A 
HETATM   18  C   UNL     1      41.851  -9.905  12.131  1.00  0.00     0.076 A 
HETATM   19  C   UNL     1      43.040 -10.617  12.295  1.00  0.00     0.039 A 
HETATM   20  C   UNL     1      43.984 -10.648  11.264  1.00  0.00     0.032 A 
BRANCH  18  21
HETATM   21  O   UNL     1      40.838  -9.846  13.065  1.00  0.00    -0.311 OA
BRANCH  21  22
HETATM   22  C   UNL     1      40.796  -8.738  13.874  1.00  0.00     0.076 A 
HETATM   23  C   UNL     1      41.730  -8.589  14.897  1.00  0.00     0.037 A 
HETATM   24  C   UNL     1      41.706  -7.441  15.690  1.00  0.00     0.003 A 
HETATM   25  C   UNL     1      40.754  -6.448  15.450  1.00  0.00     0.000 A 
HETATM   26  C   UNL     1      39.834  -6.594  14.411  1.00  0.00     0.003 A 
HETATM   27  C   UNL     1      39.863  -7.734  13.609  1.00  0.00     0.037 A 
ENDBRANCH  21  22
ENDBRANCH  18  21
ENDBRANCH  11  15
ENDBRANCH   4   9
BRANCH   1  28
HETATM   28  N   UNL     1      41.619 -13.438   2.444  1.00  0.00    -0.273 N 
HETATM   29  N   UNL     1      40.719 -14.332   2.884  1.00  0.00     0.005 NA
HETATM   30  N   UNL     1      39.862 -14.553   1.895  1.00  0.00    -0.158 NA
HETATM   31  C   UNL     1      40.221 -13.768   0.826  1.00  0.00     0.101 A 
HETATM   32  C   UNL     1      41.324 -13.023   1.177  1.00  0.00     0.142 A 
BRANCH  31  33
HETATM   33  C   UNL     1      39.526 -13.748  -0.449  1.00  0.00    -0.005 A 
HETATM   34  C   UNL     1      38.827 -12.599  -0.843  1.00  0.00     0.014 A 
HETATM   35  C   UNL     1      38.143 -12.562  -2.062  1.00  0.00     0.001 A 
HETATM   36  C   UNL     1      38.147 -13.676  -2.898  1.00  0.00     0.000 A 
HETATM   37  C   UNL     1      38.834 -14.826  -2.519  1.00  0.00     0.001 A 
HETATM   38  C   UNL     1      39.521 -14.863  -1.302  1.00  0.00     0.014 A 
ENDBRANCH  31  33
ENDBRANCH   1  28
TORSDOF 6
ENDMDL
MODEL 5
REMARK VINA RESULT:      -9.7      2.987     12.404
REMARK  6 active torsions:
REMARK  status: ('A' for Active; 'I' for Inactive)
REMARK    1  A    between atoms: C_4  and  C_5 
REMARK    2  A    between atoms: N_8  and  C_9 
REMARK    3  A    between atoms: C_12  and  N_13 
REMARK       I    between atoms: N_13  and  C_14 
REMARK       I    between atoms: C_14  and  N_15 
REMARK    4  A    between atoms: N_15  and  C_16 
REMARK    5  A    between atoms: C_19  and  O_20 
REMARK    6  A    between atoms: O_20  and  C_21 
ROOT
HETATM    1  C   UNL     1      43.618 -11.784   6.582  1.00  0.00     0.161 C 
HETATM    2  C   UNL     1      43.796 -11.478   8.061  1.00  0.00     0.179 C 
HETATM    3  C   UNL     1      42.981 -10.218   8.318  1.00  0.00     0.177 C 
HETATM    4  C   UNL     1      43.975  -9.217   8.897  1.00  0.00     0.141 C 
HETATM    5  C   UNL     1      45.198 -10.074   9.227  1.00  0.00     0.196 C 
HETATM    6  O   UNL     1      45.178 -11.191   8.335  1.00  0.00    -0.379 OA
HETATM    7  O   UNL     1      42.462  -9.793   7.042  1.00  0.00    -0.379 OA
HETATM    8  C   UNL     1      42.373 -10.986   6.238  1.00  0.00     0.198 C 
ENDROOT
BRANCH   4   9
HETATM    9  N   UNL     1      43.515  -8.425  10.034  1.00  0.00    -0.334 N 
HETATM   10  C   UNL     1      43.253  -7.091   9.924  1.00  0.00     0.321 C 
HETATM   11  N   UNL     1      42.508  -6.516  10.906  1.00  0.00    -0.309 N 
HETATM   12  O   UNL     1      43.559  -6.432   8.933  1.00  0.00    -0.247 OA
HETATM   13  H   UNL     1      42.128  -5.628  10.602  1.00  0.00     0.170 HD
HETATM   14  H   UNL     1      42.907  -8.914  10.675  1.00  0.00     0.164 HD
BRANCH  11  15
HETATM   15  C   UNL     1      42.112  -6.972  12.173  1.00  0.00     0.036 A 
HETATM   16  C   UNL     1      40.857  -7.519  12.444  1.00  0.00     0.032 A 
HETATM   17  C   UNL     1      40.539  -7.942  13.740  1.00  0.00     0.039 A 
HETATM   18  C   UNL     1      41.469  -7.817  14.774  1.00  0.00     0.076 A 
HETATM   19  C   UNL     1      42.738  -7.309  14.497  1.00  0.00     0.039 A 
HETATM   20  C   UNL     1      43.061  -6.905  13.198  1.00  0.00     0.032 A 
BRANCH  18  21
HETATM   21  O   UNL     1      41.063  -8.284  16.006  1.00  0.00    -0.311 OA
BRANCH  21  22
HETATM   22  C   UNL     1      41.006  -7.374  17.033  1.00  0.00     0.076 A 
HETATM   23  C   UNL     1      40.114  -6.304  16.963  1.00  0.00     0.037 A 
HETATM   24  C   UNL     1      40.032  -5.407  18.027  1.00  0.00     0.003 A 
HETATM   25  C   UNL     1      40.835  -5.587  19.156  1.00  0.00     0.000 A 
HETATM   26  C   UNL     1      41.710  -6.672  19.228  1.00  0.00     0.003 A 
HETATM   27  C   UNL     1      41.787  -7.578  18.171  1.00  0.00     0.037 A 
ENDBRANCH  21  22
ENDBRANCH  18  21
ENDBRANCH  11  15
ENDBRANCH   4   9
BRANCH   1  28
HETATM   28  N   UNL     1      43.571 -13.198   6.308  1.00  0.00    -0.273 N 
HETATM   29  N   UNL     1      43.640 -14.112   7.289  1.00  0.00     0.005 NA
HETATM   30  N   UNL     1      43.577 -15.310   6.720  1.00  0.00    -0.158 NA
HETATM   31  C   UNL     1      43.447 -15.140   5.362  1.00  0.00     0.101 A 
HETATM   32  C   UNL     1      43.406 -13.792   5.089  1.00  0.00     0.142 A 
BRANCH  31  33
HETATM   33  C   UNL     1      43.363 -16.226   4.403  1.00  0.00    -0.005 A 
HETATM   34  C   UNL     1      43.902 -17.480   4.722  1.00  0.00     0.014 A 
HETATM   35  C   UNL     1      43.841 -18.537   3.809  1.00  0.00     0.001 A 
HETATM   36  C   UNL     1      43.243 -18.351   2.564  1.00  0.00     0.000 A 
HETATM   37  C   UNL     1      42.707 -17.110   2.231  1.00  0.00     0.001 A 
HETATM   38  C   UNL     1      42.765 -16.053   3.145  1.00  0.00     0.014 A 
ENDBRANCH  31  33
ENDBRANCH   1  28
TORSDOF 6
ENDMDL
MODEL 6
REMARK VINA RESULT:      -9.6      2.545     11.706
REMARK  6 active torsions:
REMARK  status: ('A' for Active; 'I' for Inactive)
REMARK    1  A    between atoms: C_4  and  C_5 
REMARK    2  A    between atoms: N_8  and  C_9 
REMARK    3  A    between atoms: C_12  and  N_13 
REMARK       I    between atoms: N_13  and  C_14 
REMARK       I    between atoms: C_14  and  N_15 
REMARK    4  A    between atoms: N_15  and  C_16 
REMARK    5  A    between atoms: C_19  and  O_20 
REMARK    6  A    between atoms: O_20  and  C_21 
ROOT
HETATM    1  C   UNL     1      41.636 -13.383   4.239  1.00  0.00     0.161 C 
HETATM    2  C   UNL     1      42.732 -13.034   5.234  1.00  0.00     0.179 C 
HETATM    3  C   UNL     1      42.037 -12.275   6.356  1.00  0.00     0.177 C 
HETATM    4  C   UNL     1      42.763 -10.936   6.433  1.00  0.00     0.141 C 
HETATM    5  C   UNL     1      44.013 -11.154   5.580  1.00  0.00     0.196 C 
HETATM    6  O   UNL     1      43.690 -12.158   4.615  1.00  0.00    -0.379 OA
HETATM    7  O   UNL     1      40.659 -12.124   5.962  1.00  0.00    -0.379 OA
HETATM    8  C   UNL     1      40.381 -13.228   5.077  1.00  0.00     0.198 C 
ENDROOT
BRANCH   4   9
HETATM    9  N   UNL     1      43.071 -10.438   7.771  1.00  0.00    -0.334 N 
HETATM   10  C   UNL     1      44.241 -10.745   8.402  1.00  0.00     0.321 C 
HETATM   11  N   UNL     1      44.598  -9.974   9.465  1.00  0.00    -0.309 N 
HETATM   12  O   UNL     1      45.021 -11.595   7.981  1.00  0.00    -0.247 OA
HETATM   13  H   UNL     1      45.584 -10.081   9.676  1.00  0.00     0.170 HD
HETATM   14  H   UNL     1      42.724  -9.511   7.971  1.00  0.00     0.164 HD
BRANCH  11  15
HETATM   15  C   UNL     1      43.890  -9.026  10.218  1.00  0.00     0.036 A 
HETATM   16  C   UNL     1      43.302  -7.883   9.673  1.00  0.00     0.032 A 
HETATM   17  C   UNL     1      42.619  -6.982  10.497  1.00  0.00     0.039 A 
HETATM   18  C   UNL     1      42.523  -7.211  11.871  1.00  0.00     0.076 A 
HETATM   19  C   UNL     1      43.075  -8.373  12.412  1.00  0.00     0.039 A 
HETATM   20  C   UNL     1      43.740  -9.283  11.585  1.00  0.00     0.032 A 
BRANCH  18  21
HETATM   21  O   UNL     1      41.811  -6.274  12.589  1.00  0.00    -0.311 OA
BRANCH  21  22
HETATM   22  C   UNL     1      40.443  -6.314  12.489  1.00  0.00     0.076 A 
HETATM   23  C   UNL     1      39.732  -7.347  13.099  1.00  0.00     0.037 A 
HETATM   24  C   UNL     1      38.339  -7.360  13.028  1.00  0.00     0.003 A 
HETATM   25  C   UNL     1      37.665  -6.339  12.354  1.00  0.00     0.000 A 
HETATM   26  C   UNL     1      38.382  -5.297  11.763  1.00  0.00     0.003 A 
HETATM   27  C   UNL     1      39.773  -5.274  11.842  1.00  0.00     0.037 A 
ENDBRANCH  21  22
ENDBRANCH  18  21
ENDBRANCH  11  15
ENDBRANCH   4   9
BRANCH   1  28
HETATM   28  N   UNL     1      41.838 -14.667   3.616  1.00  0.00    -0.273 N 
HETATM   29  N   UNL     1      41.312 -14.963   2.416  1.00  0.00     0.005 NA
HETATM   30  N   UNL     1      41.668 -16.207   2.122  1.00  0.00    -0.158 NA
HETATM   31  C   UNL     1      42.447 -16.690   3.146  1.00  0.00     0.101 A 
HETATM   32  C   UNL     1      42.592 -15.701   4.092  1.00  0.00     0.142 A 
BRANCH  31  33
HETATM   33  C   UNL     1      43.011 -18.026   3.189  1.00  0.00    -0.005 A 
HETATM   34  C   UNL     1      43.671 -18.467   4.344  1.00  0.00     0.014 A 
HETATM   35  C   UNL     1      44.230 -19.747   4.402  1.00  0.00     0.001 A 
HETATM   36  C   UNL     1      44.139 -20.600   3.305  1.00  0.00     0.000 A 
HETATM   37  C   UNL     1      43.490 -20.175   2.148  1.00  0.00     0.001 A 
HETATM   38  C   UNL     1      42.928 -18.896   2.090  1.00  0.00     0.014 A 
ENDBRANCH  31  33
ENDBRANCH   1  28
TORSDOF 6
ENDMDL
MODEL 7
REMARK VINA RESULT:      -9.6      3.391      5.777
REMARK  6 active torsions:
REMARK  status: ('A' for Active; 'I' for Inactive)
REMARK    1  A    between atoms: C_4  and  C_5 
REMARK    2  A    between atoms: N_8  and  C_9 
REMARK    3  A    between atoms: C_12  and  N_13 
REMARK       I    between atoms: N_13  and  C_14 
REMARK       I    between atoms: C_14  and  N_15 
REMARK    4  A    between atoms: N_15  and  C_16 
REMARK    5  A    between atoms: C_19  and  O_20 
REMARK    6  A    between atoms: O_20  and  C_21 
ROOT
HETATM    1  C   UNL     1      42.099  -8.019  12.480  1.00  0.00     0.161 C 
HETATM    2  C   UNL     1      42.043  -8.076  10.962  1.00  0.00     0.179 C 
HETATM    3  C   UNL     1      42.774  -9.354  10.574  1.00  0.00     0.177 C 
HETATM    4  C   UNL     1      43.886  -8.902   9.634  1.00  0.00     0.141 C 
HETATM    5  C   UNL     1      43.511  -7.457   9.301  1.00  0.00     0.196 C 
HETATM    6  O   UNL     1      42.755  -6.957  10.407  1.00  0.00    -0.379 OA
HETATM    7  O   UNL     1      43.291  -9.922  11.795  1.00  0.00    -0.379 OA
HETATM    8  C   UNL     1      42.417  -9.458  12.843  1.00  0.00     0.198 C 
ENDROOT
BRANCH   4   9
HETATM    9  N   UNL     1      44.105  -9.719   8.444  1.00  0.00    -0.334 N 
HETATM   10  C   UNL     1      45.353  -9.923   7.930  1.00  0.00     0.321 C 
HETATM   11  N   UNL     1      45.508 -10.956   7.059  1.00  0.00    -0.309 N 
HETATM   12  O   UNL     1      46.339  -9.297   8.309  1.00  0.00    -0.247 OA
HETATM   13  H   UNL     1      46.486 -11.207   6.963  1.00  0.00     0.170 HD
HETATM   14  H   UNL     1      43.486 -10.510   8.350  1.00  0.00     0.164 HD
BRANCH  11  15
HETATM   15  C   UNL     1      44.580 -11.760   6.379  1.00  0.00     0.036 A 
HETATM   16  C   UNL     1      44.211 -13.040   6.796  1.00  0.00     0.032 A 
HETATM   17  C   UNL     1      43.282 -13.780   6.055  1.00  0.00     0.039 A 
HETATM   18  C   UNL     1      42.722 -13.250   4.891  1.00  0.00     0.076 A 
HETATM   19  C   UNL     1      43.059 -11.956   4.495  1.00  0.00     0.039 A 
HETATM   20  C   UNL     1      43.972 -11.210   5.247  1.00  0.00     0.032 A 
BRANCH  18  21
HETATM   21  O   UNL     1      41.802 -14.052   4.248  1.00  0.00    -0.311 OA
BRANCH  21  22
HETATM   22  C   UNL     1      42.294 -15.094   3.501  1.00  0.00     0.076 A 
HETATM   23  C   UNL     1      42.000 -16.407   3.863  1.00  0.00     0.037 A 
HETATM   24  C   UNL     1      42.468 -17.460   3.076  1.00  0.00     0.003 A 
HETATM   25  C   UNL     1      43.220 -17.193   1.930  1.00  0.00     0.000 A 
HETATM   26  C   UNL     1      43.494 -15.874   1.561  1.00  0.00     0.003 A 
HETATM   27  C   UNL     1      43.017 -14.820   2.339  1.00  0.00     0.037 A 
ENDBRANCH  21  22
ENDBRANCH  18  21
ENDBRANCH  11  15
ENDBRANCH   4   9
BRANCH   1  28
HETATM   28  N   UNL     1      40.905  -7.459  13.061  1.00  0.00    -0.273 N 
HETATM   29  N   UNL     1      39.686  -7.948  12.783  1.00  0.00     0.005 NA
HETATM   30  N   UNL     1      38.803  -7.223  13.459  1.00  0.00    -0.158 NA
HETATM   31  C   UNL     1      39.485  -6.279  14.188  1.00  0.00     0.101 A 
HETATM   32  C   UNL     1      40.833  -6.442  13.969  1.00  0.00     0.142 A 
BRANCH  31  33
HETATM   33  C   UNL     1      38.854  -5.289  15.043  1.00  0.00    -0.005 A 
HETATM   34  C   UNL     1      37.683  -4.647  14.619  1.00  0.00     0.014 A 
HETATM   35  C   UNL     1      37.065  -3.684  15.423  1.00  0.00     0.001 A 
HETATM   36  C   UNL     1      37.615  -3.349  16.658  1.00  0.00     0.000 A 
HETATM   37  C   UNL     1      38.780  -3.975  17.092  1.00  0.00     0.001 A 
HETATM   38  C   UNL     1      39.397  -4.940  16.290  1.00  0.00     0.014 A 
ENDBRANCH  31  33
ENDBRANCH   1  28
TORSDOF 6
ENDMDL
MODEL 8
REMARK VINA RESULT:      -9.4      2.941      4.502
REMARK  6 active torsions:
REMARK  status: ('A' for Active; 'I' for Inactive)
REMARK    1  A    between atoms: C_4  and  C_5 
REMARK    2  A    between atoms: N_8  and  C_9 
REMARK    3  A    between atoms: C_12  and  N_13 
REMARK       I    between atoms: N_13  and  C_14 
REMARK       I    between atoms: C_14  and  N_15 
REMARK    4  A    between atoms: N_15  and  C_16 
REMARK    5  A    between atoms: C_19  and  O_20 
REMARK    6  A    between atoms: O_20  and  C_21 
ROOT
HETATM    1  C   UNL     1      41.346  -7.770  11.663  1.00  0.00     0.161 C 
HETATM    2  C   UNL     1      40.994  -9.091  10.997  1.00  0.00     0.179 C 
HETATM    3  C   UNL     1      41.774  -9.109   9.690  1.00  0.00     0.177 C 
HETATM    4  C   UNL     1      40.718  -9.294   8.605  1.00  0.00     0.141 C 
HETATM    5  C   UNL     1      39.464  -9.690   9.386  1.00  0.00     0.196 C 
HETATM    6  O   UNL     1      39.589  -9.121  10.691  1.00  0.00    -0.379 OA
HETATM    7  O   UNL     1      42.440  -7.835   9.588  1.00  0.00    -0.379 OA
HETATM    8  C   UNL     1      42.624  -7.379  10.943  1.00  0.00     0.198 C 
ENDROOT
BRANCH   4   9
HETATM    9  N   UNL     1      41.041 -10.236   7.537  1.00  0.00    -0.334 N 
HETATM   10  C   UNL     1      41.594  -9.827   6.359  1.00  0.00     0.321 C 
HETATM   11  N   UNL     1      42.179 -10.777   5.580  1.00  0.00    -0.309 N 
HETATM   12  O   UNL     1      41.685  -8.645   6.041  1.00  0.00    -0.247 OA
HETATM   13  H   UNL     1      42.799 -10.357   4.897  1.00  0.00     0.170 HD
HETATM   14  H   UNL     1      41.357 -11.143   7.849  1.00  0.00     0.164 HD
BRANCH  11  15
HETATM   15  C   UNL     1      42.148 -12.180   5.626  1.00  0.00     0.036 A 
HETATM   16  C   UNL     1      43.202 -12.965   6.095  1.00  0.00     0.032 A 
HETATM   17  C   UNL     1      43.093 -14.360   6.099  1.00  0.00     0.039 A 
HETATM   18  C   UNL     1      41.934 -14.980   5.629  1.00  0.00     0.076 A 
HETATM   19  C   UNL     1      40.863 -14.197   5.197  1.00  0.00     0.039 A 
HETATM   20  C   UNL     1      40.966 -12.803   5.212  1.00  0.00     0.032 A 
BRANCH  18  21
HETATM   21  O   UNL     1      41.920 -16.358   5.696  1.00  0.00    -0.311 OA
BRANCH  21  22
HETATM   22  C   UNL     1      42.640 -17.039   4.746  1.00  0.00     0.076 A 
HETATM   23  C   UNL     1      43.642 -17.925   5.138  1.00  0.00     0.037 A 
HETATM   24  C   UNL     1      44.342 -18.644   4.169  1.00  0.00     0.003 A 
HETATM   25  C   UNL     1      44.032 -18.478   2.817  1.00  0.00     0.000 A 
HETATM   26  C   UNL     1      43.013 -17.604   2.433  1.00  0.00     0.003 A 
HETATM   27  C   UNL     1      42.303 -16.893   3.399  1.00  0.00     0.037 A 
ENDBRANCH  21  22
ENDBRANCH  18  21
ENDBRANCH  11  15
ENDBRANCH   4   9
BRANCH   1  28
HETATM   28  N   UNL     1      41.425  -7.874  13.099  1.00  0.00    -0.273 N 
HETATM   29  N   UNL     1      41.870  -8.986  13.705  1.00  0.00     0.005 NA
HETATM   30  N   UNL     1      41.816  -8.773  15.014  1.00  0.00    -0.158 NA
HETATM   31  C   UNL     1      41.348  -7.499  15.228  1.00  0.00     0.101 A 
HETATM   32  C   UNL     1      41.128  -6.900  14.009  1.00  0.00     0.142 A 
BRANCH  31  33
HETATM   33  C   UNL     1      41.139  -6.910  16.539  1.00  0.00    -0.005 A 
HETATM   34  C   UNL     1      41.639  -5.631  16.816  1.00  0.00     0.014 A 
HETATM   35  C   UNL     1      41.456  -5.050  18.074  1.00  0.00     0.001 A 
HETATM   36  C   UNL     1      40.774  -5.744  19.072  1.00  0.00     0.000 A 
HETATM   37  C   UNL     1      40.275  -7.017  18.813  1.00  0.00     0.001 A 
HETATM   38  C   UNL     1      40.454  -7.598  17.554  1.00  0.00     0.014 A 
ENDBRANCH  31  33
ENDBRANCH   1  28
TORSDOF 6
ENDMDL
MODEL 9
REMARK VINA RESULT:      -9.3      2.664     12.536
REMARK  6 active torsions:
REMARK  status: ('A' for Active; 'I' for Inactive)
REMARK    1  A    between atoms: C_4  and  C_5 
REMARK    2  A    between atoms: N_8  and  C_9 
REMARK    3  A    between atoms: C_12  and  N_13 
REMARK       I    between atoms: N_13  and  C_14 
REMARK       I    between atoms: C_14  and  N_15 
REMARK    4  A    between atoms: N_15  and  C_16 
REMARK    5  A    between atoms: C_19  and  O_20 
REMARK    6  A    between atoms: O_20  and  C_21 
ROOT
HETATM    1  C   UNL     1      42.853 -10.341   5.399  1.00  0.00     0.161 C 
HETATM    2  C   UNL     1      43.196 -10.797   6.809  1.00  0.00     0.179 C 
HETATM    3  C   UNL     1      42.280 -10.001   7.729  1.00  0.00     0.177 C 
HETATM    4  C   UNL     1      43.218  -9.273   8.685  1.00  0.00     0.141 C 
HETATM    5  C   UNL     1      44.568  -9.954   8.452  1.00  0.00     0.196 C 
HETATM    6  O   UNL     1      44.558 -10.452   7.113  1.00  0.00    -0.379 OA
HETATM    7  O   UNL     1      41.543  -9.088   6.890  1.00  0.00    -0.379 OA
HETATM    8  C   UNL     1      41.487  -9.709   5.590  1.00  0.00     0.198 C 
ENDROOT
BRANCH   4   9
HETATM    9  N   UNL     1      42.829  -9.255  10.092  1.00  0.00    -0.334 N 
HETATM   10  C   UNL     1      43.244 -10.216  10.967  1.00  0.00     0.321 C 
HETATM   11  N   UNL     1      43.138  -9.941  12.295  1.00  0.00    -0.309 N 
HETATM   12  O   UNL     1      43.807 -11.246  10.606  1.00  0.00    -0.247 OA
HETATM   13  H   UNL     1      43.721 -10.563  12.843  1.00  0.00     0.170 HD
HETATM   14  H   UNL     1      42.744  -8.335  10.499  1.00  0.00     0.164 HD
BRANCH  11  15
HETATM   15  C   UNL     1      42.466  -8.926  12.993  1.00  0.00     0.036 A 
HETATM   16  C   UNL     1      41.093  -8.932  13.241  1.00  0.00     0.032 A 
HETATM   17  C   UNL     1      40.499  -7.874  13.939  1.00  0.00     0.039 A 
HETATM   18  C   UNL     1      41.270  -6.801  14.387  1.00  0.00     0.076 A 
HETATM   19  C   UNL     1      42.649  -6.812  14.176  1.00  0.00     0.039 A 
HETATM   20  C   UNL     1      43.244  -7.879  13.497  1.00  0.00     0.032 A 
BRANCH  18  21
HETATM   21  O   UNL     1      40.592  -5.821  15.082  1.00  0.00    -0.311 OA
BRANCH  21  22
HETATM   22  C   UNL     1      40.777  -5.774  16.441  1.00  0.00     0.076 A 
HETATM   23  C   UNL     1      41.465  -4.703  17.011  1.00  0.00     0.037 A 
HETATM   24  C   UNL     1      41.614  -4.640  18.396  1.00  0.00     0.003 A 
HETATM   25  C   UNL     1      41.071  -5.643  19.203  1.00  0.00     0.000 A 
HETATM   26  C   UNL     1      40.367  -6.702  18.627  1.00  0.00     0.003 A 
HETATM   27  C   UNL     1      40.205  -6.762  17.244  1.00  0.00     0.037 A 
ENDBRANCH  21  22
ENDBRANCH  18  21
ENDBRANCH  11  15
ENDBRANCH   4   9
BRANCH   1  28
HETATM   28  N   UNL     1      42.937 -11.408   4.434  1.00  0.00    -0.273 N 
HETATM   29  N   UNL     1      43.013 -11.165   3.115  1.00  0.00     0.005 NA
HETATM   30  N   UNL     1      43.072 -12.339   2.498  1.00  0.00    -0.158 NA
HETATM   31  C   UNL     1      43.053 -13.331   3.449  1.00  0.00     0.101 A 
HETATM   32  C   UNL     1      43.002 -12.747   4.694  1.00  0.00     0.142 A 
BRANCH  31  33
HETATM   33  C   UNL     1      43.087 -14.752   3.154  1.00  0.00    -0.005 A 
HETATM   34  C   UNL     1      43.187 -15.186   1.825  1.00  0.00     0.014 A 
HETATM   35  C   UNL     1      43.212 -16.549   1.518  1.00  0.00     0.001 A 
HETATM   36  C   UNL     1      43.132 -17.496   2.537  1.00  0.00     0.000 A 
HETATM   37  C   UNL     1      43.027 -17.081   3.862  1.00  0.00     0.001 A 
HETATM   38  C   UNL     1      43.006 -15.718   4.170  1.00  0.00     0.014 A 
ENDBRANCH  31  33
ENDBRANCH   1  28
TORSDOF 6
ENDMDL
MODEL 10
REMARK VINA RESULT:      -9.0      2.679     10.580
REMARK  6 active torsions:
REMARK  status: ('A' for Active; 'I' for Inactive)
REMARK    1  A    between atoms: C_4  and  C_5 
REMARK    2  A    between atoms: N_8  and  C_9 
REMARK    3  A    between atoms: C_12  and  N_13 
REMARK       I    between atoms: N_13  and  C_14 
REMARK       I    between atoms: C_14  and  N_15 
REMARK    4  A    between atoms: N_15  and  C_16 
REMARK    5  A    between atoms: C_19  and  O_20 
REMARK    6  A    between atoms: O_20  and  C_21 
ROOT
HETATM    1  C   UNL     1      42.862 -13.410   2.656  1.00  0.00     0.161 C 
HETATM    2  C   UNL     1      42.586 -12.846   4.041  1.00  0.00     0.179 C 
HETATM    3  C   UNL     1      41.552 -11.748   3.835  1.00  0.00     0.177 C 
HETATM    4  C   UNL     1      42.191 -10.492   4.418  1.00  0.00     0.141 C 
HETATM    5  C   UNL     1      43.393 -11.027   5.196  1.00  0.00     0.196 C 
HETATM    6  O   UNL     1      43.784 -12.252   4.571  1.00  0.00    -0.379 OA
HETATM    7  O   UNL     1      41.339 -11.641   2.413  1.00  0.00    -0.379 OA
HETATM    8  C   UNL     1      41.651 -12.940   1.872  1.00  0.00     0.198 C 
ENDROOT
BRANCH   4   9
HETATM    9  N   UNL     1      41.327  -9.637   5.227  1.00  0.00    -0.334 N 
HETATM   10  C   UNL     1      40.155  -9.133   4.744  1.00  0.00     0.321 C 
HETATM   11  N   UNL     1      39.258  -8.656   5.649  1.00  0.00    -0.309 N 
HETATM   12  O   UNL     1      39.840  -9.202   3.559  1.00  0.00    -0.247 OA
HETATM   13  H   UNL     1      38.334  -8.580   5.240  1.00  0.00     0.170 HD
HETATM   14  H   UNL     1      41.304  -9.864   6.211  1.00  0.00     0.164 HD
BRANCH  11  15
HETATM   15  C   UNL     1      39.371  -8.361   7.017  1.00  0.00     0.036 A 
HETATM   16  C   UNL     1      39.230  -9.311   8.029  1.00  0.00     0.032 A 
HETATM   17  C   UNL     1      39.349  -8.931   9.371  1.00  0.00     0.039 A 
HETATM   18  C   UNL     1      39.603  -7.601   9.711  1.00  0.00     0.076 A 
HETATM   19  C   UNL     1      39.785  -6.658   8.699  1.00  0.00     0.039 A 
HETATM   20  C   UNL     1      39.685  -7.042   7.359  1.00  0.00     0.032 A 
BRANCH  18  21
HETATM   21  O   UNL     1      39.723  -7.337  11.059  1.00  0.00    -0.311 OA
BRANCH  21  22
HETATM   22  C   UNL     1      40.796  -7.889  11.713  1.00  0.00     0.076 A 
HETATM   23  C   UNL     1      40.587  -8.829  12.721  1.00  0.00     0.037 A 
HETATM   24  C   UNL     1      41.683  -9.415  13.353  1.00  0.00     0.003 A 
HETATM   25  C   UNL     1      42.980  -9.065  12.970  1.00  0.00     0.000 A 
HETATM   26  C   UNL     1      43.183  -8.138  11.946  1.00  0.00     0.003 A 
HETATM   27  C   UNL     1      42.089  -7.559  11.303  1.00  0.00     0.037 A 
ENDBRANCH  21  22
ENDBRANCH  18  21
ENDBRANCH  11  15
ENDBRANCH   4   9
BRANCH   1  28
HETATM   28  N   UNL     1      43.104 -14.831   2.672  1.00  0.00    -0.273 N 
HETATM   29  N   UNL     1      43.259 -15.536   1.540  1.00  0.00     0.005 NA
HETATM   30  N   UNL     1      43.459 -16.802   1.884  1.00  0.00    -0.158 NA
HETATM   31  C   UNL     1      43.448 -16.886   3.255  1.00  0.00     0.101 A 
HETATM   32  C   UNL     1      43.258 -15.625   3.772  1.00  0.00     0.142 A 
BRANCH  31  33
HETATM   33  C   UNL     1      43.619 -18.118   4.004  1.00  0.00    -0.005 A 
HETATM   34  C   UNL     1      43.921 -19.308   3.328  1.00  0.00     0.014 A 
HETATM   35  C   UNL     1      44.081 -20.507   4.029  1.00  0.00     0.001 A 
HETATM   36  C   UNL     1      43.934 -20.531   5.414  1.00  0.00     0.000 A 
HETATM   37  C   UNL     1      43.630 -19.358   6.100  1.00  0.00     0.001 A 
HETATM   38  C   UNL     1      43.474 -18.158   5.400  1.00  0.00     0.014 A 
ENDBRANCH  31  33
ENDBRANCH   1  28
TORSDOF 6
ENDMDL
