MODEL 1
REMARK VINA RESULT:      -8.0      0.000      0.000
REMARK  10 active torsions:
REMARK  status: ('A' for Active; 'I' for Inactive)
REMARK    1  A    between atoms: C_2  and  N_3 
REMARK    2  A    between atoms: N_3  and  C_5 
REMARK    3  A    between atoms: N_3  and  C_34 
REMARK    4  A    between atoms: C_5  and  C_6 
REMARK    5  A    between atoms: C_6  and  C_7 
REMARK    6  A    between atoms: C_7  and  N_8 
REMARK       I    between atoms: N_8  and  C_9 
REMARK    7  A    between atoms: C_9  and  C_10 
REMARK    8  A    between atoms: N_16  and  C_17 
REMARK    9  A    between atoms: C_17  and  C_18 
REMARK       I    between atoms: C_18  and  N_19 
REMARK   10  A    between atoms: N_19  and  C_20 
ROOT
HETATM    1  C   UNL     1      42.631  -9.322   7.469  1.00  0.00     0.081 A 
HETATM    2  S   UNL     1      41.000  -9.158   6.971  1.00  0.00    -0.063 SA
HETATM    3  C   UNL     1      41.116 -10.478   5.911  1.00  0.00     0.116 A 
HETATM    4  C   UNL     1      42.378 -11.034   5.912  1.00  0.00     0.075 A 
HETATM    5  C   UNL     1      42.624 -12.128   4.981  1.00  0.00     0.262 A 
HETATM    6  O   UNL     1      43.718 -12.678   4.876  1.00  0.00    -0.267 OA
HETATM    7  N   UNL     1      41.529 -12.455   4.186  1.00  0.00    -0.299 N 
HETATM    8  C   UNL     1      40.302 -11.838   4.349  1.00  0.00     0.214 A 
HETATM    9  N   UNL     1      40.053 -10.866   5.166  1.00  0.00    -0.235 NA
HETATM   10  C   UNL     1      43.265 -10.396   6.857  1.00  0.00    -0.021 A 
HETATM   11  C   UNL     1      44.690 -10.794   7.093  1.00  0.00     0.051 C 
ENDROOT
BRANCH   1  12
HETATM   12  C   UNL     1      43.147  -8.398   8.462  1.00  0.00     0.259 C 
HETATM   13  N   UNL     1      42.795  -8.697   9.766  1.00  0.00    -0.356 N 
HETATM   14  H   UNL     1      42.146  -9.466   9.911  1.00  0.00     0.162 HD
HETATM   15  O   UNL     1      43.871  -7.438   8.209  1.00  0.00    -0.267 OA
BRANCH  13  16
HETATM   16  C   UNL     1      43.189  -7.876  10.889  1.00  0.00     0.124 C 
BRANCH  16  17
HETATM   17  C   UNL     1      43.547  -8.714  12.118  1.00  0.00     0.047 C 
BRANCH  17  18
HETATM   18  C   UNL     1      42.524  -9.816  12.383  1.00  0.00     0.236 C 
BRANCH  18  19
HETATM   19  N   UNL     1      41.565  -9.475  13.519  1.00  0.00    -0.072 N 
HETATM   20  H   UNL     1      41.679 -10.247  14.192  1.00  0.00     0.279 HD
BRANCH  19  21
HETATM   21  C   UNL     1      40.091  -9.490  13.145  1.00  0.00     0.230 C 
HETATM   22  C   UNL     1      39.715  -8.305  12.274  1.00  0.00     0.034 C 
ENDBRANCH  19  21
BRANCH  19  23
HETATM   23  C   UNL     1      41.905  -8.213  14.293  1.00  0.00     0.230 C 
HETATM   24  C   UNL     1      41.303  -8.231  15.684  1.00  0.00     0.034 C 
ENDBRANCH  19  23
ENDBRANCH  18  19
ENDBRANCH  17  18
ENDBRANCH  16  17
ENDBRANCH  13  16
ENDBRANCH   1  12
BRANCH   7  25
HETATM   25  C   UNL     1      41.700 -13.461   3.153  1.00  0.00     0.236 C 
BRANCH  25  26
HETATM   26  C   UNL     1      41.676 -14.880   3.731  1.00  0.00     0.240 C 
HETATM   27  N   UNL     1      42.926 -15.480   3.691  1.00  0.00    -0.326 N 
HETATM   28  H   UNL     1      43.718 -14.885   3.477  1.00  0.00     0.169 HD
HETATM   29  O   UNL     1      40.625 -15.405   4.085  1.00  0.00    -0.271 OA
BRANCH  27  30
HETATM   30  C   UNL     1      43.245 -16.831   3.947  1.00  0.00     0.036 A 
HETATM   31  C   UNL     1      43.400 -17.803   2.960  1.00  0.00     0.053 A 
HETATM   32  C   UNL     1      43.764 -19.112   3.307  1.00  0.00     0.042 A 
HETATM   33 CL   UNL     1      43.958 -20.260   2.027  1.00  0.00    -0.084 Cl
HETATM   34  C   UNL     1      43.975 -19.474   4.646  1.00  0.00    -0.040 A 
HETATM   35  C   UNL     1      44.384 -20.864   5.044  1.00  0.00     0.050 C 
HETATM   36  C   UNL     1      43.809 -18.494   5.632  1.00  0.00     0.011 A 
HETATM   37  C   UNL     1      43.450 -17.189   5.286  1.00  0.00     0.030 A 
ENDBRANCH  27  30
ENDBRANCH  25  26
ENDBRANCH   7  25
TORSDOF 10
ENDMDL
MODEL 2
REMARK VINA RESULT:      -7.9      1.751      2.539
REMARK  10 active torsions:
REMARK  status: ('A' for Active; 'I' for Inactive)
REMARK    1  A    between atoms: C_2  and  N_3 
REMARK    2  A    between atoms: N_3  and  C_5 
REMARK    3  A    between atoms: N_3  and  C_34 
REMARK    4  A    between atoms: C_5  and  C_6 
REMARK    5  A    between atoms: C_6  and  C_7 
REMARK    6  A    between atoms: C_7  and  N_8 
REMARK       I    between atoms: N_8  and  C_9 
REMARK    7  A    between atoms: C_9  and  C_10 
REMARK    8  A    between atoms: N_16  and  C_17 
REMARK    9  A    between atoms: C_17  and  C_18 
REMARK       I    between atoms: C_18  and  N_19 
REMARK   10  A    between atoms: N_19  and  C_20 
ROOT
HETATM    1  C   UNL     1      40.812  -9.768   7.024  1.00  0.00     0.081 A 
HETATM    2  S   UNL     1      42.500  -9.686   6.745  1.00  0.00    -0.063 SA
HETATM    3  C   UNL     1      42.392 -10.668   5.364  1.00  0.00     0.116 A 
HETATM    4  C   UNL     1      41.098 -11.075   5.119  1.00  0.00     0.075 A 
HETATM    5  C   UNL     1      40.887 -11.989   4.003  1.00  0.00     0.262 A 
HETATM    6  O   UNL     1      39.782 -12.438   3.710  1.00  0.00    -0.267 OA
HETATM    7  N   UNL     1      42.055 -12.348   3.335  1.00  0.00    -0.299 N 
HETATM    8  C   UNL     1      43.281 -11.802   3.669  1.00  0.00     0.214 A 
HETATM    9  N   UNL     1      43.498 -10.989   4.652  1.00  0.00    -0.235 NA
HETATM   10  C   UNL     1      40.152 -10.517   6.057  1.00  0.00    -0.021 A 
HETATM   11  C   UNL     1      38.675 -10.764   6.031  1.00  0.00     0.051 C 
ENDROOT
BRANCH   1  12
HETATM   12  C   UNL     1      40.263  -9.049   8.159  1.00  0.00     0.259 C 
HETATM   13  N   UNL     1      40.214  -9.777   9.334  1.00  0.00    -0.356 N 
HETATM   14  H   UNL     1      40.474 -10.758   9.287  1.00  0.00     0.162 HD
HETATM   15  O   UNL     1      39.894  -7.878   8.126  1.00  0.00    -0.267 OA
BRANCH  13  16
HETATM   16  C   UNL     1      39.670  -9.241  10.562  1.00  0.00     0.124 C 
BRANCH  16  17
HETATM   17  C   UNL     1      40.103 -10.052  11.785  1.00  0.00     0.047 C 
BRANCH  17  18
HETATM   18  C   UNL     1      41.546  -9.758  12.191  1.00  0.00     0.236 C 
BRANCH  18  19
HETATM   19  N   UNL     1      41.974  -8.330  11.868  1.00  0.00    -0.072 N 
HETATM   20  H   UNL     1      41.272  -7.998  11.192  1.00  0.00     0.279 HD
BRANCH  19  21
HETATM   21  C   UNL     1      43.308  -8.204  11.149  1.00  0.00     0.230 C 
HETATM   22  C   UNL     1      43.882  -9.559  10.778  1.00  0.00     0.034 C 
ENDBRANCH  19  21
BRANCH  19  23
HETATM   23  C   UNL     1      41.903  -7.357  13.032  1.00  0.00     0.230 C 
HETATM   24  C   UNL     1      43.142  -7.435  13.902  1.00  0.00     0.034 C 
ENDBRANCH  19  23
ENDBRANCH  18  19
ENDBRANCH  17  18
ENDBRANCH  16  17
ENDBRANCH  13  16
ENDBRANCH   1  12
BRANCH   7  25
HETATM   25  C   UNL     1      41.969 -13.336   2.274  1.00  0.00     0.236 C 
BRANCH  25  26
HETATM   26  C   UNL     1      41.838 -14.759   2.829  1.00  0.00     0.240 C 
HETATM   27  N   UNL     1      43.066 -15.289   3.198  1.00  0.00    -0.326 N 
HETATM   28  H   UNL     1      43.851 -14.650   3.242  1.00  0.00     0.169 HD
HETATM   29  O   UNL     1      40.759 -15.342   2.834  1.00  0.00    -0.271 OA
BRANCH  27  30
HETATM   30  C   UNL     1      43.358 -16.622   3.558  1.00  0.00     0.036 A 
HETATM   31  C   UNL     1      43.377 -17.691   2.663  1.00  0.00     0.053 A 
HETATM   32  C   UNL     1      43.725 -18.977   3.103  1.00  0.00     0.042 A 
HETATM   33 CL   UNL     1      43.747 -20.251   1.933  1.00  0.00    -0.084 Cl
HETATM   34  C   UNL     1      44.055 -19.216   4.445  1.00  0.00    -0.040 A 
HETATM   35  C   UNL     1      44.450 -20.579   4.941  1.00  0.00     0.050 C 
HETATM   36  C   UNL     1      44.026 -18.139   5.339  1.00  0.00     0.011 A 
HETATM   37  C   UNL     1      43.682 -16.858   4.900  1.00  0.00     0.030 A 
ENDBRANCH  27  30
ENDBRANCH  25  26
ENDBRANCH   7  25
TORSDOF 10
ENDMDL
MODEL 3
REMARK VINA RESULT:      -7.8      3.720     11.029
REMARK  10 active torsions:
REMARK  status: ('A' for Active; 'I' for Inactive)
REMARK    1  A    between atoms: C_2  and  N_3 
REMARK    2  A    between atoms: N_3  and  C_5 
REMARK    3  A    between atoms: N_3  and  C_34 
REMARK    4  A    between atoms: C_5  and  C_6 
REMARK    5  A    between atoms: C_6  and  C_7 
REMARK    6  A    between atoms: C_7  and  N_8 
REMARK       I    between atoms: N_8  and  C_9 
REMARK    7  A    between atoms: C_9  and  C_10 
REMARK    8  A    between atoms: N_16  and  C_17 
REMARK    9  A    between atoms: C_17  and  C_18 
REMARK       I    between atoms: C_18  and  N_19 
REMARK   10  A    between atoms: N_19  and  C_20 
ROOT
HETATM    1  C   UNL     1      42.174 -12.598   5.058  1.00  0.00     0.081 A 
HETATM    2  S   UNL     1      41.351 -11.102   4.911  1.00  0.00    -0.063 SA
HETATM    3  C   UNL     1      42.227 -10.414   6.192  1.00  0.00     0.116 A 
HETATM    4  C   UNL     1      43.123 -11.304   6.745  1.00  0.00     0.075 A 
HETATM    5  C   UNL     1      43.879 -10.853   7.906  1.00  0.00     0.262 A 
HETATM    6  O   UNL     1      44.683 -11.571   8.497  1.00  0.00    -0.267 OA
HETATM    7  N   UNL     1      43.570  -9.560   8.319  1.00  0.00    -0.299 N 
HETATM    8  C   UNL     1      42.683  -8.765   7.616  1.00  0.00     0.214 A 
HETATM    9  N   UNL     1      41.998  -9.137   6.582  1.00  0.00    -0.235 NA
HETATM   10  C   UNL     1      43.137 -12.576   6.060  1.00  0.00    -0.021 A 
HETATM   11  C   UNL     1      44.019 -13.731   6.421  1.00  0.00     0.051 C 
ENDROOT
BRANCH   1  12
HETATM   12  C   UNL     1      41.831 -13.668   4.141  1.00  0.00     0.259 C 
HETATM   13  N   UNL     1      42.493 -13.621   2.927  1.00  0.00    -0.356 N 
HETATM   14  H   UNL     1      43.081 -12.813   2.746  1.00  0.00     0.162 HD
HETATM   15  O   UNL     1      41.049 -14.580   4.398  1.00  0.00    -0.267 OA
BRANCH  13  16
HETATM   16  C   UNL     1      42.260 -14.584   1.874  1.00  0.00     0.124 C 
BRANCH  16  17
HETATM   17  C   UNL     1      43.244 -15.755   1.936  1.00  0.00     0.047 C 
BRANCH  17  18
HETATM   18  C   UNL     1      42.543 -17.083   2.210  1.00  0.00     0.236 C 
BRANCH  18  19
HETATM   19  N   UNL     1      43.163 -17.853   3.371  1.00  0.00    -0.072 N 
HETATM   20  H   UNL     1      42.367 -18.333   3.815  1.00  0.00     0.279 HD
BRANCH  19  21
HETATM   21  C   UNL     1      43.766 -16.989   4.468  1.00  0.00     0.230 C 
HETATM   22  C   UNL     1      43.569 -17.599   5.843  1.00  0.00     0.034 C 
ENDBRANCH  19  21
BRANCH  19  23
HETATM   23  C   UNL     1      44.126 -18.957   2.972  1.00  0.00     0.230 C 
HETATM   24  C   UNL     1      43.434 -20.038   2.164  1.00  0.00     0.034 C 
ENDBRANCH  19  23
ENDBRANCH  18  19
ENDBRANCH  17  18
ENDBRANCH  16  17
ENDBRANCH  13  16
ENDBRANCH   1  12
BRANCH   7  25
HETATM   25  C   UNL     1      44.191  -9.052   9.529  1.00  0.00     0.236 C 
BRANCH  25  26
HETATM   26  C   UNL     1      43.229  -9.091  10.722  1.00  0.00     0.240 C 
HETATM   27  N   UNL     1      43.018  -7.831  11.261  1.00  0.00    -0.326 N 
HETATM   28  H   UNL     1      43.346  -7.036  10.724  1.00  0.00     0.169 HD
HETATM   29  O   UNL     1      42.803 -10.154  11.161  1.00  0.00    -0.271 OA
BRANCH  27  30
HETATM   30  C   UNL     1      42.362  -7.507  12.469  1.00  0.00     0.036 A 
HETATM   31  C   UNL     1      41.003  -7.212  12.570  1.00  0.00     0.053 A 
HETATM   32  C   UNL     1      40.428  -6.948  13.822  1.00  0.00     0.042 A 
HETATM   33 CL   UNL     1      38.732  -6.609  13.874  1.00  0.00    -0.084 Cl
HETATM   34  C   UNL     1      41.201  -6.969  14.992  1.00  0.00    -0.040 A 
HETATM   35  C   UNL     1      40.607  -6.709  16.348  1.00  0.00     0.050 C 
HETATM   36  C   UNL     1      42.566  -7.259  14.881  1.00  0.00     0.011 A 
HETATM   37  C   UNL     1      43.138  -7.525  13.634  1.00  0.00     0.030 A 
ENDBRANCH  27  30
ENDBRANCH  25  26
ENDBRANCH   7  25
TORSDOF 10
ENDMDL
MODEL 4
REMARK VINA RESULT:      -7.6      1.677      2.542
REMARK  10 active torsions:
REMARK  status: ('A' for Active; 'I' for Inactive)
REMARK    1  A    between atoms: C_2  and  N_3 
REMARK    2  A    between atoms: N_3  and  C_5 
REMARK    3  A    between atoms: N_3  and  C_34 
REMARK    4  A    between atoms: C_5  and  C_6 
REMARK    5  A    between atoms: C_6  and  C_7 
REMARK    6  A    between atoms: C_7  and  N_8 
REMARK       I    between atoms: N_8  and  C_9 
REMARK    7  A    between atoms: C_9  and  C_10 
REMARK    8  A    between atoms: N_16  and  C_17 
REMARK    9  A    between atoms: C_17  and  C_18 
REMARK       I    between atoms: C_18  and  N_19 
REMARK   10  A    between atoms: N_19  and  C_20 
ROOT
HETATM    1  C   UNL     1      43.128  -9.179   8.088  1.00  0.00     0.081 A 
HETATM    2  S   UNL     1      44.143 -10.488   8.529  1.00  0.00    -0.063 SA
HETATM    3  C   UNL     1      43.712 -11.380   7.150  1.00  0.00     0.116 A 
HETATM    4  C   UNL     1      42.797 -10.711   6.366  1.00  0.00     0.075 A 
HETATM    5  C   UNL     1      42.290 -11.410   5.192  1.00  0.00     0.262 A 
HETATM    6  O   UNL     1      41.450 -10.922   4.438  1.00  0.00    -0.267 OA
HETATM    7  N   UNL     1      42.798 -12.696   5.032  1.00  0.00    -0.299 N 
HETATM    8  C   UNL     1      43.765 -13.206   5.879  1.00  0.00     0.214 A 
HETATM    9  N   UNL     1      44.235 -12.609   6.928  1.00  0.00    -0.235 NA
HETATM   10  C   UNL     1      42.480  -9.398   6.878  1.00  0.00    -0.021 A 
HETATM   11  C   UNL     1      41.533  -8.435   6.232  1.00  0.00     0.051 C 
ENDROOT
BRANCH   1  12
HETATM   12  C   UNL     1      43.085  -8.016   8.953  1.00  0.00     0.259 C 
HETATM   13  N   UNL     1      42.413  -8.210  10.147  1.00  0.00    -0.356 N 
HETATM   14  H   UNL     1      41.940  -9.099  10.277  1.00  0.00     0.162 HD
HETATM   15  O   UNL     1      43.620  -6.939   8.698  1.00  0.00    -0.267 OA
BRANCH  13  16
HETATM   16  C   UNL     1      42.238  -7.159  11.123  1.00  0.00     0.124 C 
BRANCH  16  17
HETATM   17  C   UNL     1      40.786  -6.681  11.202  1.00  0.00     0.047 C 
BRANCH  17  18
HETATM   18  C   UNL     1      39.959  -7.510  12.182  1.00  0.00     0.236 C 
BRANCH  18  19
HETATM   19  N   UNL     1      39.155  -8.611  11.498  1.00  0.00    -0.072 N 
HETATM   20  H   UNL     1      38.246  -8.605  11.984  1.00  0.00     0.279 HD
BRANCH  19  21
HETATM   21  C   UNL     1      39.697 -10.019  11.690  1.00  0.00     0.230 C 
HETATM   22  C   UNL     1      40.473 -10.156  12.987  1.00  0.00     0.034 C 
ENDBRANCH  19  21
BRANCH  19  23
HETATM   23  C   UNL     1      38.831  -8.359  10.036  1.00  0.00     0.230 C 
HETATM   24  C   UNL     1      39.226  -9.537   9.166  1.00  0.00     0.034 C 
ENDBRANCH  19  23
ENDBRANCH  18  19
ENDBRANCH  17  18
ENDBRANCH  16  17
ENDBRANCH  13  16
ENDBRANCH   1  12
BRANCH   7  25
HETATM   25  C   UNL     1      42.279 -13.516   3.952  1.00  0.00     0.236 C 
BRANCH  25  26
HETATM   26  C   UNL     1      42.157 -14.988   4.363  1.00  0.00     0.240 C 
HETATM   27  N   UNL     1      43.286 -15.718   4.023  1.00  0.00    -0.326 N 
HETATM   28  H   UNL     1      44.105 -15.196   3.731  1.00  0.00     0.169 HD
HETATM   29  O   UNL     1      41.120 -15.429   4.848  1.00  0.00    -0.271 OA
BRANCH  27  30
HETATM   30  C   UNL     1      43.453 -17.120   4.063  1.00  0.00     0.036 A 
HETATM   31  C   UNL     1      43.399 -17.950   2.945  1.00  0.00     0.053 A 
HETATM   32  C   UNL     1      43.623 -19.328   3.075  1.00  0.00     0.042 A 
HETATM   33 CL   UNL     1      43.559 -20.294   1.642  1.00  0.00    -0.084 Cl
HETATM   34  C   UNL     1      43.902 -19.900   4.326  1.00  0.00    -0.040 A 
HETATM   35  C   UNL     1      44.165 -21.371   4.491  1.00  0.00     0.050 C 
HETATM   36  C   UNL     1      43.947 -19.061   5.445  1.00  0.00     0.011 A 
HETATM   37  C   UNL     1      43.726 -17.687   5.314  1.00  0.00     0.030 A 
ENDBRANCH  27  30
ENDBRANCH  25  26
ENDBRANCH   7  25
TORSDOF 10
ENDMDL
MODEL 5
REMARK VINA RESULT:      -7.5      4.051     11.277
REMARK  10 active torsions:
REMARK  status: ('A' for Active; 'I' for Inactive)
REMARK    1  A    between atoms: C_2  and  N_3 
REMARK    2  A    between atoms: N_3  and  C_5 
REMARK    3  A    between atoms: N_3  and  C_34 
REMARK    4  A    between atoms: C_5  and  C_6 
REMARK    5  A    between atoms: C_6  and  C_7 
REMARK    6  A    between atoms: C_7  and  N_8 
REMARK       I    between atoms: N_8  and  C_9 
REMARK    7  A    between atoms: C_9  and  C_10 
REMARK    8  A    between atoms: N_16  and  C_17 
REMARK    9  A    between atoms: C_17  and  C_18 
REMARK       I    between atoms: C_18  and  N_19 
REMARK   10  A    between atoms: N_19  and  C_20 
ROOT
HETATM    1  C   UNL     1      43.109 -11.046   5.490  1.00  0.00     0.081 A 
HETATM    2  S   UNL     1      41.734 -10.147   5.978  1.00  0.00    -0.063 SA
HETATM    3  C   UNL     1      42.400  -9.822   7.505  1.00  0.00     0.116 A 
HETATM    4  C   UNL     1      43.642 -10.397   7.661  1.00  0.00     0.075 A 
HETATM    5  C   UNL     1      44.284 -10.254   8.962  1.00  0.00     0.262 A 
HETATM    6  O   UNL     1      45.377 -10.750   9.224  1.00  0.00    -0.267 OA
HETATM    7  N   UNL     1      43.524  -9.554   9.896  1.00  0.00    -0.299 N 
HETATM    8  C   UNL     1      42.310  -8.982   9.564  1.00  0.00     0.214 A 
HETATM    9  N   UNL     1      41.717  -9.091   8.418  1.00  0.00    -0.235 NA
HETATM   10  C   UNL     1      44.093 -11.080   6.470  1.00  0.00    -0.021 A 
HETATM   11  C   UNL     1      45.408 -11.783   6.335  1.00  0.00     0.051 C 
ENDROOT
BRANCH   1  12
HETATM   12  C   UNL     1      43.126 -11.614   4.155  1.00  0.00     0.259 C 
HETATM   13  N   UNL     1      42.281 -12.695   3.978  1.00  0.00    -0.356 N 
HETATM   14  H   UNL     1      41.798 -13.050   4.798  1.00  0.00     0.162 HD
HETATM   15  O   UNL     1      43.796 -11.177   3.222  1.00  0.00    -0.267 OA
BRANCH  13  16
HETATM   16  C   UNL     1      42.184 -13.412   2.726  1.00  0.00     0.124 C 
BRANCH  16  17
HETATM   17  C   UNL     1      43.149 -14.599   2.667  1.00  0.00     0.047 C 
BRANCH  17  18
HETATM   18  C   UNL     1      42.706 -15.747   3.572  1.00  0.00     0.236 C 
BRANCH  18  19
HETATM   19  N   UNL     1      43.517 -17.020   3.355  1.00  0.00    -0.072 N 
HETATM   20  H   UNL     1      44.419 -16.690   2.983  1.00  0.00     0.279 HD
BRANCH  19  21
HETATM   21  C   UNL     1      42.970 -17.960   2.292  1.00  0.00     0.230 C 
HETATM   22  C   UNL     1      43.488 -19.376   2.466  1.00  0.00     0.034 C 
ENDBRANCH  19  21
BRANCH  19  23
HETATM   23  C   UNL     1      43.860 -17.789   4.620  1.00  0.00     0.230 C 
HETATM   24  C   UNL     1      44.398 -16.872   5.702  1.00  0.00     0.034 C 
ENDBRANCH  19  23
ENDBRANCH  18  19
ENDBRANCH  17  18
ENDBRANCH  16  17
ENDBRANCH  13  16
ENDBRANCH   1  12
BRANCH   7  25
HETATM   25  C   UNL     1      44.026  -9.445  11.254  1.00  0.00     0.236 C 
BRANCH  25  26
HETATM   26  C   UNL     1      42.889  -9.294  12.271  1.00  0.00     0.240 C 
HETATM   27  N   UNL     1      42.743  -7.983  12.698  1.00  0.00    -0.326 N 
HETATM   28  H   UNL     1      43.243  -7.269  12.180  1.00  0.00     0.169 HD
HETATM   29  O   UNL     1      42.277 -10.272  12.690  1.00  0.00    -0.271 OA
BRANCH  27  30
HETATM   30  C   UNL     1      41.946  -7.504  13.760  1.00  0.00     0.036 A 
HETATM   31  C   UNL     1      42.392  -7.354  15.072  1.00  0.00     0.053 A 
HETATM   32  C   UNL     1      41.541  -6.825  16.054  1.00  0.00     0.042 A 
HETATM   33 CL   UNL     1      42.170  -6.650  17.656  1.00  0.00    -0.084 Cl
HETATM   34  C   UNL     1      40.228  -6.441  15.741  1.00  0.00    -0.040 A 
HETATM   35  C   UNL     1      39.301  -5.854  16.768  1.00  0.00     0.050 C 
HETATM   36  C   UNL     1      39.785  -6.603  14.423  1.00  0.00     0.011 A 
HETATM   37  C   UNL     1      40.634  -7.127  13.445  1.00  0.00     0.030 A 
ENDBRANCH  27  30
ENDBRANCH  25  26
ENDBRANCH   7  25
TORSDOF 10
ENDMDL
MODEL 6
REMARK VINA RESULT:      -7.3      5.220      8.803
REMARK  10 active torsions:
REMARK  status: ('A' for Active; 'I' for Inactive)
REMARK    1  A    between atoms: C_2  and  N_3 
REMARK    2  A    between atoms: N_3  and  C_5 
REMARK    3  A    between atoms: N_3  and  C_34 
REMARK    4  A    between atoms: C_5  and  C_6 
REMARK    5  A    between atoms: C_6  and  C_7 
REMARK    6  A    between atoms: C_7  and  N_8 
REMARK       I    between atoms: N_8  and  C_9 
REMARK    7  A    between atoms: C_9  and  C_10 
REMARK    8  A    between atoms: N_16  and  C_17 
REMARK    9  A    between atoms: C_17  and  C_18 
REMARK       I    between atoms: C_18  and  N_19 
REMARK   10  A    between atoms: N_19  and  C_20 
ROOT
HETATM    1  C   UNL     1      42.617 -14.123   6.603  1.00  0.00     0.081 A 
HETATM    2  S   UNL     1      43.773 -12.878   6.382  1.00  0.00    -0.063 SA
HETATM    3  C   UNL     1      42.663 -11.897   5.553  1.00  0.00     0.116 A 
HETATM    4  C   UNL     1      41.432 -12.504   5.422  1.00  0.00     0.075 A 
HETATM    5  C   UNL     1      40.416 -11.791   4.658  1.00  0.00     0.262 A 
HETATM    6  O   UNL     1      39.294 -12.249   4.453  1.00  0.00    -0.267 OA
HETATM    7  N   UNL     1      40.847 -10.575   4.136  1.00  0.00    -0.299 N 
HETATM    8  C   UNL     1      42.106 -10.072   4.408  1.00  0.00     0.214 A 
HETATM    9  N   UNL     1      43.028 -10.680   5.084  1.00  0.00    -0.235 NA
HETATM   10  C   UNL     1      41.375 -13.791   6.075  1.00  0.00    -0.021 A 
HETATM   11  C   UNL     1      40.166 -14.674   6.118  1.00  0.00     0.051 C 
ENDROOT
BRANCH   1  12
HETATM   12  C   UNL     1      43.017 -15.319   7.321  1.00  0.00     0.259 C 
HETATM   13  N   UNL     1      43.222 -16.430   6.522  1.00  0.00    -0.356 N 
HETATM   14  H   UNL     1      42.994 -16.345   5.536  1.00  0.00     0.162 HD
HETATM   15  O   UNL     1      43.204 -15.371   8.534  1.00  0.00    -0.267 OA
BRANCH  13  16
HETATM   16  C   UNL     1      43.594 -17.719   7.060  1.00  0.00     0.124 C 
BRANCH  16  17
HETATM   17  C   UNL     1      43.667 -18.796   5.975  1.00  0.00     0.047 C 
BRANCH  17  18
HETATM   18  C   UNL     1      42.906 -18.395   4.713  1.00  0.00     0.236 C 
BRANCH  18  19
HETATM   19  N   UNL     1      43.825 -17.922   3.591  1.00  0.00    -0.072 N 
HETATM   20  H   UNL     1      44.673 -17.594   4.074  1.00  0.00     0.279 HD
BRANCH  19  21
HETATM   21  C   UNL     1      43.322 -16.717   2.810  1.00  0.00     0.230 C 
HETATM   22  C   UNL     1      41.872 -16.401   3.128  1.00  0.00     0.034 C 
ENDBRANCH  19  21
BRANCH  19  23
HETATM   23  C   UNL     1      44.298 -19.011   2.643  1.00  0.00     0.230 C 
HETATM   24  C   UNL     1      43.209 -20.032   2.377  1.00  0.00     0.034 C 
ENDBRANCH  19  23
ENDBRANCH  18  19
ENDBRANCH  17  18
ENDBRANCH  16  17
ENDBRANCH  13  16
ENDBRANCH   1  12
BRANCH   7  25
HETATM   25  C   UNL     1      39.946  -9.835   3.271  1.00  0.00     0.236 C 
BRANCH  25  26
HETATM   26  C   UNL     1      39.985 -10.353   1.829  1.00  0.00     0.240 C 
HETATM   27  N   UNL     1      39.025 -11.327   1.600  1.00  0.00    -0.326 N 
HETATM   28  H   UNL     1      38.311 -11.450   2.309  1.00  0.00     0.169 HD
HETATM   29  O   UNL     1      40.850  -9.980   1.043  1.00  0.00    -0.271 OA
BRANCH  27  30
HETATM   30  C   UNL     1      38.893 -12.161   0.468  1.00  0.00     0.036 A 
HETATM   31  C   UNL     1      37.989 -11.942  -0.569  1.00  0.00     0.053 A 
HETATM   32  C   UNL     1      37.962 -12.799  -1.679  1.00  0.00     0.042 A 
HETATM   33 CL   UNL     1      36.826 -12.454  -2.937  1.00  0.00    -0.084 Cl
HETATM   34  C   UNL     1      38.836 -13.894  -1.768  1.00  0.00    -0.040 A 
HETATM   35  C   UNL     1      38.842 -14.818  -2.953  1.00  0.00     0.050 C 
HETATM   36  C   UNL     1      39.736 -14.112  -0.718  1.00  0.00     0.011 A 
HETATM   37  C   UNL     1      39.764 -13.255   0.385  1.00  0.00     0.030 A 
ENDBRANCH  27  30
ENDBRANCH  25  26
ENDBRANCH   7  25
TORSDOF 10
ENDMDL
MODEL 7
REMARK VINA RESULT:      -7.3      1.467      2.199
REMARK  10 active torsions:
REMARK  status: ('A' for Active; 'I' for Inactive)
REMARK    1  A    between atoms: C_2  and  N_3 
REMARK    2  A    between atoms: N_3  and  C_5 
REMARK    3  A    between atoms: N_3  and  C_34 
REMARK    4  A    between atoms: C_5  and  C_6 
REMARK    5  A    between atoms: C_6  and  C_7 
REMARK    6  A    between atoms: C_7  and  N_8 
REMARK       I    between atoms: N_8  and  C_9 
REMARK    7  A    between atoms: C_9  and  C_10 
REMARK    8  A    between atoms: N_16  and  C_17 
REMARK    9  A    between atoms: C_17  and  C_18 
REMARK       I    between atoms: C_18  and  N_19 
REMARK   10  A    between atoms: N_19  and  C_20 
ROOT
HETATM    1  C   UNL     1      42.672  -9.771   8.076  1.00  0.00     0.081 A 
HETATM    2  S   UNL     1      41.039  -9.585   7.589  1.00  0.00    -0.063 SA
HETATM    3  C   UNL     1      41.306 -10.411   6.131  1.00  0.00     0.116 A 
HETATM    4  C   UNL     1      42.617 -10.812   5.994  1.00  0.00     0.075 A 
HETATM    5  C   UNL     1      42.988 -11.464   4.744  1.00  0.00     0.262 A 
HETATM    6  O   UNL     1      44.133 -11.837   4.502  1.00  0.00    -0.267 OA
HETATM    7  N   UNL     1      41.943 -11.577   3.831  1.00  0.00    -0.299 N 
HETATM    8  C   UNL     1      40.657 -11.175   4.144  1.00  0.00     0.214 A 
HETATM    9  N   UNL     1      40.298 -10.595   5.244  1.00  0.00    -0.235 NA
HETATM   10  C   UNL     1      43.422 -10.485   7.149  1.00  0.00    -0.021 A 
HETATM   11  C   UNL     1      44.876 -10.811   7.296  1.00  0.00     0.051 C 
ENDROOT
BRANCH   1  12
HETATM   12  C   UNL     1      43.077  -9.230   9.360  1.00  0.00     0.259 C 
HETATM   13  N   UNL     1      43.081 -10.147  10.396  1.00  0.00    -0.356 N 
HETATM   14  H   UNL     1      42.723 -11.077  10.198  1.00  0.00     0.162 HD
HETATM   15  O   UNL     1      43.429  -8.067   9.545  1.00  0.00    -0.267 OA
BRANCH  13  16
HETATM   16  C   UNL     1      43.425  -9.788  11.753  1.00  0.00     0.124 C 
BRANCH  16  17
HETATM   17  C   UNL     1      42.287 -10.085  12.733  1.00  0.00     0.047 C 
BRANCH  17  18
HETATM   18  C   UNL     1      41.928  -8.869  13.585  1.00  0.00     0.236 C 
BRANCH  18  19
HETATM   19  N   UNL     1      41.311  -7.735  12.771  1.00  0.00    -0.072 N 
HETATM   20  H   UNL     1      42.051  -7.462  12.109  1.00  0.00     0.279 HD
BRANCH  19  21
HETATM   21  C   UNL     1      41.000  -6.472  13.560  1.00  0.00     0.230 C 
HETATM   22  C   UNL     1      42.083  -5.422  13.400  1.00  0.00     0.034 C 
ENDBRANCH  19  21
BRANCH  19  23
HETATM   23  C   UNL     1      40.125  -8.132  11.910  1.00  0.00     0.230 C 
HETATM   24  C   UNL     1      40.092  -7.350  10.611  1.00  0.00     0.034 C 
ENDBRANCH  19  23
ENDBRANCH  18  19
ENDBRANCH  17  18
ENDBRANCH  16  17
ENDBRANCH  13  16
ENDBRANCH   1  12
BRANCH   7  25
HETATM   25  C   UNL     1      42.231 -12.116   2.514  1.00  0.00     0.236 C 
BRANCH  25  26
HETATM   26  C   UNL     1      41.993 -13.629   2.454  1.00  0.00     0.240 C 
HETATM   27  N   UNL     1      42.993 -14.340   3.101  1.00  0.00    -0.326 N 
HETATM   28  H   UNL     1      43.636 -13.811   3.680  1.00  0.00     0.169 HD
HETATM   29  O   UNL     1      41.059 -14.101   1.813  1.00  0.00    -0.271 OA
BRANCH  27  30
HETATM   30  C   UNL     1      43.212 -15.734   3.083  1.00  0.00     0.036 A 
HETATM   31  C   UNL     1      43.400 -16.515   4.222  1.00  0.00     0.053 A 
HETATM   32  C   UNL     1      43.565 -17.904   4.109  1.00  0.00     0.042 A 
HETATM   33 CL   UNL     1      43.774 -18.812   5.566  1.00  0.00    -0.084 Cl
HETATM   34  C   UNL     1      43.549 -18.534   2.855  1.00  0.00    -0.040 A 
HETATM   35  C   UNL     1      43.704 -20.021   2.706  1.00  0.00     0.050 C 
HETATM   36  C   UNL     1      43.368 -17.741   1.715  1.00  0.00     0.011 A 
HETATM   37  C   UNL     1      43.201 -16.359   1.829  1.00  0.00     0.030 A 
ENDBRANCH  27  30
ENDBRANCH  25  26
ENDBRANCH   7  25
TORSDOF 10
ENDMDL
MODEL 8
REMARK VINA RESULT:      -7.3      7.050     10.752
REMARK  10 active torsions:
REMARK  status: ('A' for Active; 'I' for Inactive)
REMARK    1  A    between atoms: C_2  and  N_3 
REMARK    2  A    between atoms: N_3  and  C_5 
REMARK    3  A    between atoms: N_3  and  C_34 
REMARK    4  A    between atoms: C_5  and  C_6 
REMARK    5  A    between atoms: C_6  and  C_7 
REMARK    6  A    between atoms: C_7  and  N_8 
REMARK       I    between atoms: N_8  and  C_9 
REMARK    7  A    between atoms: C_9  and  C_10 
REMARK    8  A    between atoms: N_16  and  C_17 
REMARK    9  A    between atoms: C_17  and  C_18 
REMARK       I    between atoms: C_18  and  N_19 
REMARK   10  A    between atoms: N_19  and  C_20 
ROOT
HETATM    1  C   UNL     1      37.685 -11.808  -2.001  1.00  0.00     0.081 A 
HETATM    2  S   UNL     1      38.157 -13.423  -2.328  1.00  0.00    -0.063 SA
HETATM    3  C   UNL     1      39.167 -13.479  -0.965  1.00  0.00     0.116 A 
HETATM    4  C   UNL     1      39.169 -12.287  -0.273  1.00  0.00     0.075 A 
HETATM    5  C   UNL     1      40.061 -12.186   0.875  1.00  0.00     0.262 A 
HETATM    6  O   UNL     1      40.167 -11.163   1.548  1.00  0.00    -0.267 OA
HETATM    7  N   UNL     1      40.821 -13.329   1.107  1.00  0.00    -0.299 N 
HETATM    8  C   UNL     1      40.659 -14.475   0.351  1.00  0.00     0.214 A 
HETATM    9  N   UNL     1      39.875 -14.596  -0.672  1.00  0.00    -0.235 NA
HETATM   10  C   UNL     1      38.268 -11.312  -0.842  1.00  0.00    -0.021 A 
HETATM   11  C   UNL     1      38.044  -9.935  -0.296  1.00  0.00     0.051 C 
ENDROOT
BRANCH   1  12
HETATM   12  C   UNL     1      36.739 -11.169  -2.897  1.00  0.00     0.259 C 
HETATM   13  N   UNL     1      35.752 -12.006  -3.386  1.00  0.00    -0.356 N 
HETATM   14  H   UNL     1      35.821 -12.993  -3.157  1.00  0.00     0.162 HD
HETATM   15  O   UNL     1      36.759  -9.977  -3.193  1.00  0.00    -0.267 OA
BRANCH  13  16
HETATM   16  C   UNL     1      34.740 -11.558  -4.316  1.00  0.00     0.124 C 
BRANCH  16  17
HETATM   17  C   UNL     1      33.402 -11.285  -3.622  1.00  0.00     0.047 C 
BRANCH  17  18
HETATM   18  C   UNL     1      32.972  -9.826  -3.755  1.00  0.00     0.236 C 
BRANCH  18  19
HETATM   19  N   UNL     1      33.814  -8.879  -2.906  1.00  0.00    -0.072 N 
HETATM   20  H   UNL     1      34.748  -9.312  -2.888  1.00  0.00     0.279 HD
BRANCH  19  21
HETATM   21  C   UNL     1      33.396  -8.779  -1.446  1.00  0.00     0.230 C 
HETATM   22  C   UNL     1      34.511  -9.199  -0.507  1.00  0.00     0.034 C 
ENDBRANCH  19  21
BRANCH  19  23
HETATM   23  C   UNL     1      34.022  -7.496  -3.496  1.00  0.00     0.230 C 
HETATM   24  C   UNL     1      33.908  -7.511  -5.008  1.00  0.00     0.034 C 
ENDBRANCH  19  23
ENDBRANCH  18  19
ENDBRANCH  17  18
ENDBRANCH  16  17
ENDBRANCH  13  16
ENDBRANCH   1  12
BRANCH   7  25
HETATM   25  C   UNL     1      41.818 -13.295   2.163  1.00  0.00     0.236 C 
BRANCH  25  26
HETATM   26  C   UNL     1      41.822 -14.590   2.983  1.00  0.00     0.240 C 
HETATM   27  N   UNL     1      43.021 -15.278   2.863  1.00  0.00    -0.326 N 
HETATM   28  H   UNL     1      43.794 -14.787   2.429  1.00  0.00     0.169 HD
HETATM   29  O   UNL     1      40.819 -14.968   3.580  1.00  0.00    -0.271 OA
BRANCH  27  30
HETATM   30  C   UNL     1      43.314 -16.585   3.308  1.00  0.00     0.036 A 
HETATM   31  C   UNL     1      43.262 -17.720   2.500  1.00  0.00     0.053 A 
HETATM   32  C   UNL     1      43.617 -18.974   3.017  1.00  0.00     0.042 A 
HETATM   33 CL   UNL     1      43.547 -20.335   1.951  1.00  0.00    -0.084 Cl
HETATM   34  C   UNL     1      44.026 -19.116   4.352  1.00  0.00    -0.040 A 
HETATM   35  C   UNL     1      44.430 -20.445   4.927  1.00  0.00     0.050 C 
HETATM   36  C   UNL     1      44.068 -17.973   5.159  1.00  0.00     0.011 A 
HETATM   37  C   UNL     1      43.717 -16.724   4.642  1.00  0.00     0.030 A 
ENDBRANCH  27  30
ENDBRANCH  25  26
ENDBRANCH   7  25
TORSDOF 10
ENDMDL
MODEL 9
REMARK VINA RESULT:      -7.2      2.475      3.100
REMARK  10 active torsions:
REMARK  status: ('A' for Active; 'I' for Inactive)
REMARK    1  A    between atoms: C_2  and  N_3 
REMARK    2  A    between atoms: N_3  and  C_5 
REMARK    3  A    between atoms: N_3  and  C_34 
REMARK    4  A    between atoms: C_5  and  C_6 
REMARK    5  A    between atoms: C_6  and  C_7 
REMARK    6  A    between atoms: C_7  and  N_8 
REMARK       I    between atoms: N_8  and  C_9 
REMARK    7  A    between atoms: C_9  and  C_10 
REMARK    8  A    between atoms: N_16  and  C_17 
REMARK    9  A    between atoms: C_17  and  C_18 
REMARK       I    between atoms: C_18  and  N_19 
REMARK   10  A    between atoms: N_19  and  C_20 
ROOT
HETATM    1  C   UNL     1      40.135  -9.750   5.406  1.00  0.00     0.081 A 
HETATM    2  S   UNL     1      40.963  -8.919   4.156  1.00  0.00    -0.063 SA
HETATM    3  C   UNL     1      41.028 -10.306   3.179  1.00  0.00     0.116 A 
HETATM    4  C   UNL     1      40.449 -11.397   3.790  1.00  0.00     0.075 A 
HETATM    5  C   UNL     1      40.513 -12.669   3.082  1.00  0.00     0.262 A 
HETATM    6  O   UNL     1      40.056 -13.712   3.544  1.00  0.00    -0.267 OA
HETATM    7  N   UNL     1      41.185 -12.608   1.864  1.00  0.00    -0.299 N 
HETATM    8  C   UNL     1      41.662 -11.413   1.356  1.00  0.00     0.214 A 
HETATM    9  N   UNL     1      41.619 -10.269   1.961  1.00  0.00    -0.235 NA
HETATM   10  C   UNL     1      39.878 -11.076   5.078  1.00  0.00    -0.021 A 
HETATM   11  C   UNL     1      39.168 -12.051   5.965  1.00  0.00     0.051 C 
ENDROOT
BRANCH   1  12
HETATM   12  C   UNL     1      39.766  -9.013   6.599  1.00  0.00     0.259 C 
HETATM   13  N   UNL     1      40.777  -8.886   7.535  1.00  0.00    -0.356 N 
HETATM   14  H   UNL     1      41.645  -9.382   7.355  1.00  0.00     0.162 HD
HETATM   15  O   UNL     1      38.666  -8.498   6.786  1.00  0.00    -0.267 OA
BRANCH  13  16
HETATM   16  C   UNL     1      40.589  -8.212   8.800  1.00  0.00     0.124 C 
BRANCH  16  17
HETATM   17  C   UNL     1      40.726  -9.169   9.987  1.00  0.00     0.047 C 
BRANCH  17  18
HETATM   18  C   UNL     1      40.232  -8.544  11.290  1.00  0.00     0.236 C 
BRANCH  18  19
HETATM   19  N   UNL     1      41.092  -8.920  12.492  1.00  0.00    -0.072 N 
HETATM   20  H   UNL     1      41.849  -9.496  12.097  1.00  0.00     0.279 HD
BRANCH  19  21
HETATM   21  C   UNL     1      40.410  -9.813  13.518  1.00  0.00     0.230 C 
HETATM   22  C   UNL     1      39.387 -10.733  12.878  1.00  0.00     0.034 C 
ENDBRANCH  19  21
BRANCH  19  23
HETATM   23  C   UNL     1      41.788  -7.757  13.177  1.00  0.00     0.230 C 
HETATM   24  C   UNL     1      43.297  -7.881  13.094  1.00  0.00     0.034 C 
ENDBRANCH  19  23
ENDBRANCH  18  19
ENDBRANCH  17  18
ENDBRANCH  16  17
ENDBRANCH  13  16
ENDBRANCH   1  12
BRANCH   7  25
HETATM   25  C   UNL     1      41.397 -13.841   1.128  1.00  0.00     0.236 C 
BRANCH  25  26
HETATM   26  C   UNL     1      42.473 -14.716   1.779  1.00  0.00     0.240 C 
HETATM   27  N   UNL     1      41.992 -15.974   2.110  1.00  0.00    -0.326 N 
HETATM   28  H   UNL     1      41.088 -16.237   1.734  1.00  0.00     0.169 HD
HETATM   29  O   UNL     1      43.586 -14.269   2.037  1.00  0.00    -0.271 OA
BRANCH  27  30
HETATM   30  C   UNL     1      42.626 -16.964   2.891  1.00  0.00     0.036 A 
HETATM   31  C   UNL     1      42.792 -16.887   4.273  1.00  0.00     0.053 A 
HETATM   32  C   UNL     1      43.395 -17.943   4.973  1.00  0.00     0.042 A 
HETATM   33 CL   UNL     1      43.550 -17.787   6.689  1.00  0.00    -0.084 Cl
HETATM   34  C   UNL     1      43.845 -19.091   4.304  1.00  0.00    -0.040 A 
HETATM   35  C   UNL     1      44.477 -20.244   5.031  1.00  0.00     0.050 C 
HETATM   36  C   UNL     1      43.682 -19.156   2.915  1.00  0.00     0.011 A 
HETATM   37  C   UNL     1      43.079 -18.106   2.218  1.00  0.00     0.030 A 
ENDBRANCH  27  30
ENDBRANCH  25  26
ENDBRANCH   7  25
TORSDOF 10
ENDMDL
MODEL 10
REMARK VINA RESULT:      -7.0      4.753     10.604
REMARK  10 active torsions:
REMARK  status: ('A' for Active; 'I' for Inactive)
REMARK    1  A    between atoms: C_2  and  N_3 
REMARK    2  A    between atoms: N_3  and  C_5 
REMARK    3  A    between atoms: N_3  and  C_34 
REMARK    4  A    between atoms: C_5  and  C_6 
REMARK    5  A    between atoms: C_6  and  C_7 
REMARK    6  A    between atoms: C_7  and  N_8 
REMARK       I    between atoms: N_8  and  C_9 
REMARK    7  A    between atoms: C_9  and  C_10 
REMARK    8  A    between atoms: N_16  and  C_17 
REMARK    9  A    between atoms: C_17  and  C_18 
REMARK       I    between atoms: C_18  and  N_19 
REMARK   10  A    between atoms: N_19  and  C_20 
ROOT
HETATM    1  C   UNL     1      40.122 -11.018   2.659  1.00  0.00     0.081 A 
HETATM    2  S   UNL     1      41.637 -10.527   2.027  1.00  0.00    -0.063 SA
HETATM    3  C   UNL     1      42.484 -11.227   3.320  1.00  0.00     0.116 A 
HETATM    4  C   UNL     1      41.638 -11.815   4.236  1.00  0.00     0.075 A 
HETATM    5  C   UNL     1      42.245 -12.383   5.434  1.00  0.00     0.262 A 
HETATM    6  O   UNL     1      41.585 -12.905   6.330  1.00  0.00    -0.267 OA
HETATM    7  N   UNL     1      43.627 -12.233   5.496  1.00  0.00    -0.299 N 
HETATM    8  C   UNL     1      44.345 -11.668   4.459  1.00  0.00     0.214 A 
HETATM    9  N   UNL     1      43.835 -11.156   3.384  1.00  0.00    -0.235 NA
HETATM   10  C   UNL     1      40.251 -11.741   3.839  1.00  0.00    -0.021 A 
HETATM   11  C   UNL     1      39.107 -12.307   4.622  1.00  0.00     0.051 C 
ENDROOT
BRANCH   1  12
HETATM   12  C   UNL     1      38.921 -10.686   1.915  1.00  0.00     0.259 C 
HETATM   13  N   UNL     1      38.664 -11.513   0.836  1.00  0.00    -0.356 N 
HETATM   14  H   UNL     1      39.366 -12.210   0.604  1.00  0.00     0.162 HD
HETATM   15  O   UNL     1      38.152  -9.775   2.209  1.00  0.00    -0.267 OA
BRANCH  13  16
HETATM   16  C   UNL     1      37.532 -11.320  -0.042  1.00  0.00     0.124 C 
BRANCH  16  17
HETATM   17  C   UNL     1      37.645 -12.156  -1.319  1.00  0.00     0.047 C 
BRANCH  17  18
HETATM   18  C   UNL     1      39.047 -12.732  -1.509  1.00  0.00     0.236 C 
BRANCH  18  19
HETATM   19  N   UNL     1      39.139 -14.208  -1.135  1.00  0.00    -0.072 N 
HETATM   20  H   UNL     1      38.300 -14.380  -0.562  1.00  0.00     0.279 HD
BRANCH  19  21
HETATM   21  C   UNL     1      40.313 -14.574  -0.239  1.00  0.00     0.230 C 
HETATM   22  C   UNL     1      39.877 -14.829   1.191  1.00  0.00     0.034 C 
ENDBRANCH  19  21
BRANCH  19  23
HETATM   23  C   UNL     1      39.036 -15.176  -2.300  1.00  0.00     0.230 C 
HETATM   24  C   UNL     1      38.229 -14.590  -3.443  1.00  0.00     0.034 C 
ENDBRANCH  19  23
ENDBRANCH  18  19
ENDBRANCH  17  18
ENDBRANCH  16  17
ENDBRANCH  13  16
ENDBRANCH   1  12
BRANCH   7  25
HETATM   25  C   UNL     1      44.317 -12.671   6.697  1.00  0.00     0.236 C 
BRANCH  25  26
HETATM   26  C   UNL     1      44.546 -11.514   7.676  1.00  0.00     0.240 C 
HETATM   27  N   UNL     1      43.360 -10.889   8.030  1.00  0.00    -0.326 N 
HETATM   28  H   UNL     1      42.496 -11.354   7.773  1.00  0.00     0.169 HD
HETATM   29  O   UNL     1      45.678 -11.170   8.000  1.00  0.00    -0.271 OA
BRANCH  27  30
HETATM   30  C   UNL     1      43.200  -9.681   8.744  1.00  0.00     0.036 A 
HETATM   31  C   UNL     1      43.365  -9.556  10.122  1.00  0.00     0.053 A 
HETATM   32  C   UNL     1      43.231  -8.303  10.740  1.00  0.00     0.042 A 
HETATM   33 CL   UNL     1      43.469  -8.220  12.452  1.00  0.00    -0.084 Cl
HETATM   34  C   UNL     1      42.926  -7.157   9.991  1.00  0.00    -0.040 A 
HETATM   35  C   UNL     1      42.796  -5.800  10.624  1.00  0.00     0.050 C 
HETATM   36  C   UNL     1      42.754  -7.293   8.609  1.00  0.00     0.011 A 
HETATM   37  C   UNL     1      42.890  -8.540   7.994  1.00  0.00     0.030 A 
ENDBRANCH  27  30
ENDBRANCH  25  26
ENDBRANCH   7  25
TORSDOF 10
ENDMDL
