MODEL 1
REMARK VINA RESULT:     -11.0      0.000      0.000
REMARK  6 active torsions:
REMARK  status: ('A' for Active; 'I' for Inactive)
REMARK    1  A    between atoms: C_2  and  N_3 
REMARK    2  A    between atoms: C_2  and  C_32 
REMARK       I    between atoms: N_3  and  C_4 
REMARK    3  A    between atoms: C_4  and  C_5 
REMARK    4  A    between atoms: C_6  and  N_7 
REMARK       I    between atoms: N_7  and  C_8 
REMARK    5  A    between atoms: C_8  and  C_9 
REMARK    6  A    between atoms: C_9  and  N_10 
ROOT
HETATM    1  N   UNL     1      39.466 -12.803   4.588  1.00  0.00    -0.325 N 
HETATM    2  C   UNL     1      39.788 -12.970   5.919  1.00  0.00     0.240 C 
HETATM    3  O   UNL     1      39.655 -12.103   6.784  1.00  0.00    -0.271 OA
HETATM    4  H   UNL     1      39.296 -13.639   4.026  1.00  0.00     0.169 HD
ENDROOT
BRANCH   1   5
HETATM    5  C   UNL     1      39.310 -11.568   3.906  1.00  0.00     0.050 A 
HETATM    6  C   UNL     1      39.821 -11.409   2.602  1.00  0.00     0.058 A 
HETATM    7  C   UNL     1      39.753 -10.158   1.962  1.00  0.00     0.019 A 
HETATM    8  C   UNL     1      39.146  -9.074   2.593  1.00  0.00     0.001 A 
HETATM    9  C   UNL     1      38.615  -9.231   3.867  1.00  0.00     0.002 A 
HETATM   10  C   UNL     1      38.702 -10.464   4.520  1.00  0.00     0.030 A 
BRANCH   6  11
HETATM   11  C   UNL     1      40.423 -12.564   1.874  1.00  0.00     0.254 C 
HETATM   12  N   UNL     1      39.564 -13.252   1.048  1.00  0.00    -0.349 N 
HETATM   13  H   UNL     1      38.593 -12.981   0.996  1.00  0.00     0.163 HD
HETATM   14  O   UNL     1      41.598 -12.866   2.061  1.00  0.00    -0.268 OA
BRANCH  12  15
HETATM   15  C   UNL     1      39.998 -14.292   0.130  1.00  0.00     0.114 C 
HETATM   16  C   UNL     1      39.866 -15.665   0.792  1.00  0.00     0.037 C 
BRANCH  15  17
HETATM   17  C   UNL     1      39.208 -14.143  -1.161  1.00  0.00    -0.036 A 
HETATM   18  C   UNL     1      38.437 -12.984  -1.354  1.00  0.00     0.009 A 
HETATM   19  C   UNL     1      37.655 -12.825  -2.499  1.00  0.00     0.001 A 
HETATM   20  C   UNL     1      37.621 -13.828  -3.465  1.00  0.00     0.000 A 
HETATM   21  C   UNL     1      38.368 -14.990  -3.284  1.00  0.00     0.001 A 
HETATM   22  C   UNL     1      39.152 -15.150  -2.138  1.00  0.00     0.009 A 
ENDBRANCH  15  17
ENDBRANCH  12  15
ENDBRANCH   6  11
ENDBRANCH   1   5
BRANCH   2  23
HETATM   23  C   UNL     1      40.162 -14.394   6.326  1.00  0.00     0.240 C 
BRANCH  23  24
HETATM   24  N   UNL     1      41.449 -14.845   5.840  1.00  0.00    -0.259 N 
HETATM   25  C   UNL     1      42.574 -14.087   5.927  1.00  0.00     0.326 C 
HETATM   26  O   UNL     1      42.738 -13.072   6.581  1.00  0.00    -0.247 OA
HETATM   27  N   UNL     1      43.517 -14.601   5.070  1.00  0.00    -0.324 N 
HETATM   28  C   UNL     1      43.069 -15.810   4.400  1.00  0.00     0.120 C 
HETATM   29  H   UNL     1      44.440 -14.192   5.008  1.00  0.00     0.165 HD
HETATM   30  C   UNL     1      43.753 -17.030   5.030  1.00  0.00     0.080 C 
HETATM   31  C   UNL     1      43.274 -15.729   2.891  1.00  0.00     0.046 C 
HETATM   32  C   UNL     1      41.582 -15.733   4.804  1.00  0.00     0.257 C 
HETATM   33  C   UNL     1      43.712 -18.283   4.193  1.00  0.00    -0.049 A 
HETATM   34  C   UNL     1      43.311 -18.268   2.847  1.00  0.00    -0.052 A 
HETATM   35  C   UNL     1      44.132 -19.490   4.775  1.00  0.00     0.007 A 
HETATM   36  C   UNL     1      42.834 -17.006   2.175  1.00  0.00     0.042 C 
HETATM   37  C   UNL     1      43.296 -19.470   2.123  1.00  0.00     0.007 A 
HETATM   38  C   UNL     1      43.705 -20.664   2.716  1.00  0.00     0.001 A 
HETATM   39  C   UNL     1      44.129 -20.674   4.041  1.00  0.00     0.001 A 
HETATM   40  O   UNL     1      40.666 -16.368   4.300  1.00  0.00    -0.270 OA
ENDBRANCH  23  24
ENDBRANCH   2  23
TORSDOF 6
ENDMDL
MODEL 2
REMARK VINA RESULT:     -10.7      5.003      8.806
REMARK  6 active torsions:
REMARK  status: ('A' for Active; 'I' for Inactive)
REMARK    1  A    between atoms: C_2  and  N_3 
REMARK    2  A    between atoms: C_2  and  C_32 
REMARK       I    between atoms: N_3  and  C_4 
REMARK    3  A    between atoms: C_4  and  C_5 
REMARK    4  A    between atoms: C_6  and  N_7 
REMARK       I    between atoms: N_7  and  C_8 
REMARK    5  A    between atoms: C_8  and  C_9 
REMARK    6  A    between atoms: C_9  and  N_10 
ROOT
HETATM    1  N   UNL     1      42.977 -11.048   6.637  1.00  0.00    -0.325 N 
HETATM    2  C   UNL     1      42.648 -10.941   5.301  1.00  0.00     0.240 C 
HETATM    3  O   UNL     1      43.452 -10.692   4.401  1.00  0.00    -0.271 OA
HETATM    4  H   UNL     1      42.343 -11.566   7.248  1.00  0.00     0.169 HD
ENDROOT
BRANCH   1   5
HETATM    5  C   UNL     1      44.142 -10.534   7.262  1.00  0.00     0.050 A 
HETATM    6  C   UNL     1      44.043  -9.468   8.179  1.00  0.00     0.058 A 
HETATM    7  C   UNL     1      45.205  -8.894   8.727  1.00  0.00     0.019 A 
HETATM    8  C   UNL     1      46.463  -9.397   8.400  1.00  0.00     0.001 A 
HETATM    9  C   UNL     1      46.566 -10.466   7.519  1.00  0.00     0.002 A 
HETATM   10  C   UNL     1      45.418 -11.025   6.950  1.00  0.00     0.030 A 
BRANCH   6  11
HETATM   11  C   UNL     1      42.710  -8.946   8.597  1.00  0.00     0.254 C 
HETATM   12  N   UNL     1      42.346  -9.229   9.895  1.00  0.00    -0.349 N 
HETATM   13  H   UNL     1      42.956  -9.786  10.476  1.00  0.00     0.163 HD
HETATM   14  O   UNL     1      42.004  -8.344   7.794  1.00  0.00    -0.268 OA
BRANCH  12  15
HETATM   15  C   UNL     1      41.172  -8.665  10.538  1.00  0.00     0.114 C 
HETATM   16  C   UNL     1      39.972  -9.595  10.350  1.00  0.00     0.037 C 
BRANCH  15  17
HETATM   17  C   UNL     1      41.519  -8.381  11.991  1.00  0.00    -0.036 A 
HETATM   18  C   UNL     1      42.780  -7.839  12.294  1.00  0.00     0.009 A 
HETATM   19  C   UNL     1      43.165  -7.609  13.615  1.00  0.00     0.001 A 
HETATM   20  C   UNL     1      42.299  -7.929  14.658  1.00  0.00     0.000 A 
HETATM   21  C   UNL     1      41.050  -8.481  14.379  1.00  0.00     0.001 A 
HETATM   22  C   UNL     1      40.664  -8.711  13.055  1.00  0.00     0.009 A 
ENDBRANCH  15  17
ENDBRANCH  12  15
ENDBRANCH   6  11
ENDBRANCH   1   5
BRANCH   2  23
HETATM   23  C   UNL     1      41.216 -11.339   4.948  1.00  0.00     0.240 C 
BRANCH  23  24
HETATM   24  N   UNL     1      40.928 -12.752   5.080  1.00  0.00    -0.259 N 
HETATM   25  C   UNL     1      39.831 -13.220   5.731  1.00  0.00     0.326 C 
HETATM   26  O   UNL     1      38.854 -12.588   6.092  1.00  0.00    -0.247 OA
HETATM   27  N   UNL     1      40.023 -14.551   6.015  1.00  0.00    -0.324 N 
HETATM   28  C   UNL     1      41.276 -15.064   5.485  1.00  0.00     0.120 C 
HETATM   29  H   UNL     1      39.304 -15.093   6.476  1.00  0.00     0.165 HD
HETATM   30  C   UNL     1      40.995 -15.919   4.243  1.00  0.00     0.080 C 
HETATM   31  C   UNL     1      42.077 -15.807   6.548  1.00  0.00     0.046 C 
HETATM   32  C   UNL     1      41.908 -13.711   5.100  1.00  0.00     0.257 C 
HETATM   33  C   UNL     1      42.120 -16.836   3.838  1.00  0.00    -0.049 A 
HETATM   34  C   UNL     1      43.224 -17.076   4.672  1.00  0.00    -0.052 A 
HETATM   35  C   UNL     1      42.029 -17.502   2.605  1.00  0.00     0.007 A 
HETATM   36  C   UNL     1      43.384 -16.378   5.998  1.00  0.00     0.042 C 
HETATM   37  C   UNL     1      44.238 -17.942   4.234  1.00  0.00     0.007 A 
HETATM   38  C   UNL     1      44.141 -18.589   3.002  1.00  0.00     0.001 A 
HETATM   39  C   UNL     1      43.033 -18.374   2.189  1.00  0.00     0.001 A 
HETATM   40  O   UNL     1      43.087 -13.516   4.837  1.00  0.00    -0.270 OA
ENDBRANCH  23  24
ENDBRANCH   2  23
TORSDOF 6
ENDMDL
MODEL 3
REMARK VINA RESULT:     -10.5      4.423      8.631
REMARK  6 active torsions:
REMARK  status: ('A' for Active; 'I' for Inactive)
REMARK    1  A    between atoms: C_2  and  N_3 
REMARK    2  A    between atoms: C_2  and  C_32 
REMARK       I    between atoms: N_3  and  C_4 
REMARK    3  A    between atoms: C_4  and  C_5 
REMARK    4  A    between atoms: C_6  and  N_7 
REMARK       I    between atoms: N_7  and  C_8 
REMARK    5  A    between atoms: C_8  and  C_9 
REMARK    6  A    between atoms: C_9  and  N_10 
ROOT
HETATM    1  N   UNL     1      43.230 -12.109   6.063  1.00  0.00    -0.325 N 
HETATM    2  C   UNL     1      44.444 -11.590   5.662  1.00  0.00     0.240 C 
HETATM    3  O   UNL     1      44.680 -11.161   4.532  1.00  0.00    -0.271 OA
HETATM    4  H   UNL     1      43.023 -12.131   7.063  1.00  0.00     0.169 HD
ENDROOT
BRANCH   1   5
HETATM    5  C   UNL     1      42.201 -12.599   5.217  1.00  0.00     0.050 A 
HETATM    6  C   UNL     1      42.124 -13.974   4.917  1.00  0.00     0.058 A 
HETATM    7  C   UNL     1      41.164 -14.447   4.003  1.00  0.00     0.019 A 
HETATM    8  C   UNL     1      40.256 -13.569   3.415  1.00  0.00     0.001 A 
HETATM    9  C   UNL     1      40.307 -12.217   3.729  1.00  0.00     0.002 A 
HETATM   10  C   UNL     1      41.274 -11.735   4.616  1.00  0.00     0.030 A 
BRANCH   6  11
HETATM   11  C   UNL     1      43.043 -14.949   5.573  1.00  0.00     0.254 C 
HETATM   12  N   UNL     1      42.867 -16.263   5.206  1.00  0.00    -0.349 N 
HETATM   13  H   UNL     1      42.131 -16.510   4.560  1.00  0.00     0.163 HD
HETATM   14  O   UNL     1      43.857 -14.563   6.406  1.00  0.00    -0.268 OA
BRANCH  12  15
HETATM   15  C   UNL     1      43.769 -17.333   5.601  1.00  0.00     0.114 C 
HETATM   16  C   UNL     1      43.426 -17.815   7.011  1.00  0.00     0.037 C 
BRANCH  15  17
HETATM   17  C   UNL     1      43.710 -18.417   4.538  1.00  0.00    -0.036 A 
HETATM   18  C   UNL     1      44.002 -19.743   4.903  1.00  0.00     0.009 A 
HETATM   19  C   UNL     1      44.011 -20.764   3.952  1.00  0.00     0.001 A 
HETATM   20  C   UNL     1      43.741 -20.475   2.617  1.00  0.00     0.000 A 
HETATM   21  C   UNL     1      43.463 -19.165   2.233  1.00  0.00     0.001 A 
HETATM   22  C   UNL     1      43.453 -18.141   3.185  1.00  0.00     0.009 A 
ENDBRANCH  15  17
ENDBRANCH  12  15
ENDBRANCH   6  11
ENDBRANCH   1   5
BRANCH   2  23
HETATM   23  C   UNL     1      45.470 -11.395   6.776  1.00  0.00     0.240 C 
BRANCH  23  24
HETATM   24  N   UNL     1      45.124 -10.380   7.749  1.00  0.00    -0.259 N 
HETATM   25  C   UNL     1      45.928  -9.317   8.018  1.00  0.00     0.326 C 
HETATM   26  O   UNL     1      46.893  -8.934   7.380  1.00  0.00    -0.247 OA
HETATM   27  N   UNL     1      45.534  -8.759   9.210  1.00  0.00    -0.324 N 
HETATM   28  C   UNL     1      44.362  -9.408   9.775  1.00  0.00     0.120 C 
HETATM   29  H   UNL     1      45.991  -7.934   9.574  1.00  0.00     0.165 HD
HETATM   30  C   UNL     1      43.131  -8.518   9.565  1.00  0.00     0.080 C 
HETATM   31  C   UNL     1      44.576  -9.788  11.236  1.00  0.00     0.046 C 
HETATM   32  C   UNL     1      44.332 -10.633   8.838  1.00  0.00     0.257 C 
HETATM   33  C   UNL     1      41.950  -8.853  10.440  1.00  0.00    -0.049 A 
HETATM   34  C   UNL     1      42.055  -9.731  11.530  1.00  0.00    -0.052 A 
HETATM   35  C   UNL     1      40.722  -8.225  10.175  1.00  0.00     0.007 A 
HETATM   36  C   UNL     1      43.342 -10.446  11.852  1.00  0.00     0.042 C 
HETATM   37  C   UNL     1      40.917 -10.000  12.306  1.00  0.00     0.007 A 
HETATM   38  C   UNL     1      39.700  -9.379  12.025  1.00  0.00     0.001 A 
HETATM   39  C   UNL     1      39.604  -8.486  10.963  1.00  0.00     0.001 A 
HETATM   40  O   UNL     1      43.695 -11.662   9.020  1.00  0.00    -0.270 OA
ENDBRANCH  23  24
ENDBRANCH   2  23
TORSDOF 6
ENDMDL
MODEL 4
REMARK VINA RESULT:     -10.4      3.897      7.446
REMARK  6 active torsions:
REMARK  status: ('A' for Active; 'I' for Inactive)
REMARK    1  A    between atoms: C_2  and  N_3 
REMARK    2  A    between atoms: C_2  and  C_32 
REMARK       I    between atoms: N_3  and  C_4 
REMARK    3  A    between atoms: C_4  and  C_5 
REMARK    4  A    between atoms: C_6  and  N_7 
REMARK       I    between atoms: N_7  and  C_8 
REMARK    5  A    between atoms: C_8  and  C_9 
REMARK    6  A    between atoms: C_9  and  N_10 
ROOT
HETATM    1  N   UNL     1      40.230 -11.948   6.531  1.00  0.00    -0.325 N 
HETATM    2  C   UNL     1      40.018 -13.055   5.734  1.00  0.00     0.240 C 
HETATM    3  O   UNL     1      39.659 -13.009   4.556  1.00  0.00    -0.271 OA
HETATM    4  H   UNL     1      40.824 -12.056   7.355  1.00  0.00     0.169 HD
ENDROOT
BRANCH   1   5
HETATM    5  C   UNL     1      39.727 -10.640   6.308  1.00  0.00     0.050 A 
HETATM    6  C   UNL     1      40.387  -9.524   6.861  1.00  0.00     0.058 A 
HETATM    7  C   UNL     1      39.838  -8.235   6.723  1.00  0.00     0.019 A 
HETATM    8  C   UNL     1      38.658  -8.044   6.006  1.00  0.00     0.001 A 
HETATM    9  C   UNL     1      38.018  -9.136   5.434  1.00  0.00     0.002 A 
HETATM   10  C   UNL     1      38.544 -10.422   5.589  1.00  0.00     0.030 A 
BRANCH   6  11
HETATM   11  C   UNL     1      41.683  -9.686   7.583  1.00  0.00     0.254 C 
HETATM   12  N   UNL     1      41.704  -9.202   8.871  1.00  0.00    -0.349 N 
HETATM   13  H   UNL     1      40.887  -8.744   9.249  1.00  0.00     0.163 HD
HETATM   14  O   UNL     1      42.647 -10.188   7.013  1.00  0.00    -0.268 OA
BRANCH  12  15
HETATM   15  C   UNL     1      42.809  -9.419   9.790  1.00  0.00     0.114 C 
HETATM   16  C   UNL     1      43.904  -8.378   9.550  1.00  0.00     0.037 C 
BRANCH  15  17
HETATM   17  C   UNL     1      42.253  -9.425  11.205  1.00  0.00    -0.036 A 
HETATM   18  C   UNL     1      40.903  -9.761  11.402  1.00  0.00     0.009 A 
HETATM   19  C   UNL     1      40.334  -9.730  12.677  1.00  0.00     0.001 A 
HETATM   20  C   UNL     1      41.104  -9.352  13.774  1.00  0.00     0.000 A 
HETATM   21  C   UNL     1      42.440  -9.002  13.596  1.00  0.00     0.001 A 
HETATM   22  C   UNL     1      43.011  -9.033  12.320  1.00  0.00     0.009 A 
ENDBRANCH  15  17
ENDBRANCH  12  15
ENDBRANCH   6  11
ENDBRANCH   1   5
BRANCH   2  23
HETATM   23  C   UNL     1      40.440 -14.389   6.346  1.00  0.00     0.240 C 
BRANCH  23  24
HETATM   24  N   UNL     1      41.699 -14.910   5.857  1.00  0.00    -0.259 N 
HETATM   25  C   UNL     1      42.873 -14.238   5.991  1.00  0.00     0.326 C 
HETATM   26  O   UNL     1      43.098 -13.266   6.690  1.00  0.00    -0.247 OA
HETATM   27  N   UNL     1      43.791 -14.781   5.125  1.00  0.00    -0.324 N 
HETATM   28  C   UNL     1      43.270 -15.926   4.397  1.00  0.00     0.120 C 
HETATM   29  H   UNL     1      44.742 -14.437   5.093  1.00  0.00     0.165 HD
HETATM   30  C   UNL     1      43.856 -17.217   4.983  1.00  0.00     0.080 C 
HETATM   31  C   UNL     1      43.504 -15.796   2.896  1.00  0.00     0.046 C 
HETATM   32  C   UNL     1      41.786 -15.760   4.785  1.00  0.00     0.257 C 
HETATM   33  C   UNL     1      43.740 -18.427   4.092  1.00  0.00    -0.049 A 
HETATM   34  C   UNL     1      43.363 -18.327   2.743  1.00  0.00    -0.052 A 
HETATM   35  C   UNL     1      44.065 -19.684   4.627  1.00  0.00     0.007 A 
HETATM   36  C   UNL     1      42.986 -17.007   2.120  1.00  0.00     0.042 C 
HETATM   37  C   UNL     1      43.274 -19.493   1.968  1.00  0.00     0.007 A 
HETATM   38  C   UNL     1      43.589 -20.738   2.514  1.00  0.00     0.001 A 
HETATM   39  C   UNL     1      43.991 -20.833   3.842  1.00  0.00     0.001 A 
HETATM   40  O   UNL     1      40.835 -16.307   4.243  1.00  0.00    -0.270 OA
ENDBRANCH  23  24
ENDBRANCH   2  23
TORSDOF 6
ENDMDL
MODEL 5
REMARK VINA RESULT:     -10.3      2.530      6.105
REMARK  6 active torsions:
REMARK  status: ('A' for Active; 'I' for Inactive)
REMARK    1  A    between atoms: C_2  and  N_3 
REMARK    2  A    between atoms: C_2  and  C_32 
REMARK       I    between atoms: N_3  and  C_4 
REMARK    3  A    between atoms: C_4  and  C_5 
REMARK    4  A    between atoms: C_6  and  N_7 
REMARK       I    between atoms: N_7  and  C_8 
REMARK    5  A    between atoms: C_8  and  C_9 
REMARK    6  A    between atoms: C_9  and  N_10 
ROOT
HETATM    1  N   UNL     1      39.388  -9.908   4.770  1.00  0.00    -0.325 N 
HETATM    2  C   UNL     1      39.242  -9.378   3.505  1.00  0.00     0.240 C 
HETATM    3  O   UNL     1      39.709  -8.297   3.143  1.00  0.00    -0.271 OA
HETATM    4  H   UNL     1      39.265 -10.916   4.886  1.00  0.00     0.169 HD
ENDROOT
BRANCH   1   5
HETATM    5  C   UNL     1      39.731  -9.197   5.949  1.00  0.00     0.050 A 
HETATM    6  C   UNL     1      40.982  -9.408   6.565  1.00  0.00     0.058 A 
HETATM    7  C   UNL     1      41.286  -8.776   7.786  1.00  0.00     0.019 A 
HETATM    8  C   UNL     1      40.371  -7.908   8.378  1.00  0.00     0.001 A 
HETATM    9  C   UNL     1      39.148  -7.674   7.762  1.00  0.00     0.002 A 
HETATM   10  C   UNL     1      38.829  -8.317   6.562  1.00  0.00     0.030 A 
BRANCH   6  11
HETATM   11  C   UNL     1      42.007 -10.284   5.927  1.00  0.00     0.254 C 
HETATM   12  N   UNL     1      42.410 -11.363   6.680  1.00  0.00    -0.349 N 
HETATM   13  H   UNL     1      42.038 -11.493   7.610  1.00  0.00     0.163 HD
HETATM   14  O   UNL     1      42.457 -10.001   4.822  1.00  0.00    -0.268 OA
BRANCH  12  15
HETATM   15  C   UNL     1      43.265 -12.421   6.170  1.00  0.00     0.114 C 
HETATM   16  C   UNL     1      44.617 -12.395   6.885  1.00  0.00     0.037 C 
BRANCH  15  17
HETATM   17  C   UNL     1      42.516 -13.738   6.297  1.00  0.00    -0.036 A 
HETATM   18  C   UNL     1      41.233 -13.846   5.734  1.00  0.00     0.009 A 
HETATM   19  C   UNL     1      40.485 -15.017   5.871  1.00  0.00     0.001 A 
HETATM   20  C   UNL     1      41.004 -16.095   6.583  1.00  0.00     0.000 A 
HETATM   21  C   UNL     1      42.268 -16.001   7.161  1.00  0.00     0.001 A 
HETATM   22  C   UNL     1      43.018 -14.829   7.024  1.00  0.00     0.009 A 
ENDBRANCH  15  17
ENDBRANCH  12  15
ENDBRANCH   6  11
ENDBRANCH   1   5
BRANCH   2  23
HETATM   23  C   UNL     1      38.602 -10.308   2.477  1.00  0.00     0.240 C 
BRANCH  23  24
HETATM   24  N   UNL     1      39.529 -11.188   1.795  1.00  0.00    -0.259 N 
HETATM   25  C   UNL     1      39.990 -10.939   0.541  1.00  0.00     0.326 C 
HETATM   26  O   UNL     1      39.897  -9.902  -0.093  1.00  0.00    -0.247 OA
HETATM   27  N   UNL     1      40.526 -12.097   0.032  1.00  0.00    -0.324 N 
HETATM   28  C   UNL     1      40.506 -13.193   0.987  1.00  0.00     0.120 C 
HETATM   29  H   UNL     1      40.951 -12.113  -0.885  1.00  0.00     0.165 HD
HETATM   30  C   UNL     1      41.919 -13.415   1.543  1.00  0.00     0.080 C 
HETATM   31  C   UNL     1      39.901 -14.456   0.384  1.00  0.00     0.046 C 
HETATM   32  C   UNL     1      39.589 -12.536   2.039  1.00  0.00     0.257 C 
HETATM   33  C   UNL     1      42.135 -14.749   2.209  1.00  0.00    -0.049 A 
HETATM   34  C   UNL     1      41.205 -15.796   2.102  1.00  0.00    -0.052 A 
HETATM   35  C   UNL     1      43.328 -14.956   2.920  1.00  0.00     0.007 A 
HETATM   36  C   UNL     1      39.900 -15.626   1.368  1.00  0.00     0.042 C 
HETATM   37  C   UNL     1      41.467 -17.014   2.748  1.00  0.00     0.007 A 
HETATM   38  C   UNL     1      42.651 -17.204   3.460  1.00  0.00     0.001 A 
HETATM   39  C   UNL     1      43.586 -16.177   3.541  1.00  0.00     0.001 A 
HETATM   40  O   UNL     1      39.018 -13.111   2.955  1.00  0.00    -0.270 OA
ENDBRANCH  23  24
ENDBRANCH   2  23
TORSDOF 6
ENDMDL
MODEL 6
REMARK VINA RESULT:     -10.1      2.816      5.874
REMARK  6 active torsions:
REMARK  status: ('A' for Active; 'I' for Inactive)
REMARK    1  A    between atoms: C_2  and  N_3 
REMARK    2  A    between atoms: C_2  and  C_32 
REMARK       I    between atoms: N_3  and  C_4 
REMARK    3  A    between atoms: C_4  and  C_5 
REMARK    4  A    between atoms: C_6  and  N_7 
REMARK       I    between atoms: N_7  and  C_8 
REMARK    5  A    between atoms: C_8  and  C_9 
REMARK    6  A    between atoms: C_9  and  N_10 
ROOT
HETATM    1  N   UNL     1      39.969 -13.312   4.534  1.00  0.00    -0.325 N 
HETATM    2  C   UNL     1      39.853 -13.469   5.900  1.00  0.00     0.240 C 
HETATM    3  O   UNL     1      39.386 -12.622   6.663  1.00  0.00    -0.271 OA
HETATM    4  H   UNL     1      40.051 -14.153   3.959  1.00  0.00     0.169 HD
ENDROOT
BRANCH   1   5
HETATM    5  C   UNL     1      39.955 -12.085   3.822  1.00  0.00     0.050 A 
HETATM    6  C   UNL     1      41.097 -11.258   3.812  1.00  0.00     0.058 A 
HETATM    7  C   UNL     1      41.053  -9.998   3.187  1.00  0.00     0.019 A 
HETATM    8  C   UNL     1      39.895  -9.571   2.539  1.00  0.00     0.001 A 
HETATM    9  C   UNL     1      38.776 -10.393   2.520  1.00  0.00     0.002 A 
HETATM   10  C   UNL     1      38.803 -11.636   3.161  1.00  0.00     0.030 A 
BRANCH   6  11
HETATM   11  C   UNL     1      42.370 -11.710   4.444  1.00  0.00     0.254 C 
HETATM   12  N   UNL     1      42.790 -10.964   5.522  1.00  0.00    -0.349 N 
HETATM   13  H   UNL     1      42.260 -10.153   5.808  1.00  0.00     0.163 HD
HETATM   14  O   UNL     1      42.985 -12.664   3.977  1.00  0.00    -0.268 OA
BRANCH  12  15
HETATM   15  C   UNL     1      43.905 -11.344   6.373  1.00  0.00     0.114 C 
HETATM   16  C   UNL     1      45.197 -11.391   5.555  1.00  0.00     0.037 C 
BRANCH  15  17
HETATM   17  C   UNL     1      43.947 -10.386   7.552  1.00  0.00    -0.036 A 
HETATM   18  C   UNL     1      45.127 -10.293   8.310  1.00  0.00     0.009 A 
HETATM   19  C   UNL     1      45.196  -9.467   9.433  1.00  0.00     0.001 A 
HETATM   20  C   UNL     1      44.082  -8.728   9.824  1.00  0.00     0.000 A 
HETATM   21  C   UNL     1      42.899  -8.818   9.094  1.00  0.00     0.001 A 
HETATM   22  C   UNL     1      42.828  -9.645   7.969  1.00  0.00     0.009 A 
ENDBRANCH  15  17
ENDBRANCH  12  15
ENDBRANCH   6  11
ENDBRANCH   1   5
BRANCH   2  23
HETATM   23  C   UNL     1      40.176 -14.866   6.426  1.00  0.00     0.240 C 
BRANCH  23  24
HETATM   24  N   UNL     1      41.481 -15.369   6.051  1.00  0.00    -0.259 N 
HETATM   25  C   UNL     1      42.638 -14.775   6.444  1.00  0.00     0.326 C 
HETATM   26  O   UNL     1      42.781 -13.920   7.300  1.00  0.00    -0.247 OA
HETATM   27  N   UNL     1      43.659 -15.233   5.647  1.00  0.00    -0.324 N 
HETATM   28  C   UNL     1      43.223 -16.242   4.696  1.00  0.00     0.120 C 
HETATM   29  H   UNL     1      44.612 -14.930   5.799  1.00  0.00     0.165 HD
HETATM   30  C   UNL     1      43.686 -17.626   5.168  1.00  0.00     0.080 C 
HETATM   31  C   UNL     1      43.676 -15.915   3.278  1.00  0.00     0.046 C 
HETATM   32  C   UNL     1      41.702 -16.066   4.891  1.00  0.00     0.257 C 
HETATM   33  C   UNL     1      43.673 -18.694   4.105  1.00  0.00    -0.049 A 
HETATM   34  C   UNL     1      43.499 -18.392   2.745  1.00  0.00    -0.052 A 
HETATM   35  C   UNL     1      43.887 -20.027   4.494  1.00  0.00     0.007 A 
HETATM   36  C   UNL     1      43.249 -16.983   2.271  1.00  0.00     0.042 C 
HETATM   37  C   UNL     1      43.496 -19.434   1.805  1.00  0.00     0.007 A 
HETATM   38  C   UNL     1      43.699 -20.755   2.206  1.00  0.00     0.001 A 
HETATM   39  C   UNL     1      43.900 -21.051   3.550  1.00  0.00     0.001 A 
HETATM   40  O   UNL     1      40.828 -16.489   4.148  1.00  0.00    -0.270 OA
ENDBRANCH  23  24
ENDBRANCH   2  23
TORSDOF 6
ENDMDL
MODEL 7
REMARK VINA RESULT:     -10.1      4.366      8.504
REMARK  6 active torsions:
REMARK  status: ('A' for Active; 'I' for Inactive)
REMARK    1  A    between atoms: C_2  and  N_3 
REMARK    2  A    between atoms: C_2  and  C_32 
REMARK       I    between atoms: N_3  and  C_4 
REMARK    3  A    between atoms: C_4  and  C_5 
REMARK    4  A    between atoms: C_6  and  N_7 
REMARK       I    between atoms: N_7  and  C_8 
REMARK    5  A    between atoms: C_8  and  C_9 
REMARK    6  A    between atoms: C_9  and  N_10 
ROOT
HETATM    1  N   UNL     1      42.273 -12.568   4.281  1.00  0.00    -0.325 N 
HETATM    2  C   UNL     1      42.602 -12.670   5.617  1.00  0.00     0.240 C 
HETATM    3  O   UNL     1      42.340 -13.641   6.328  1.00  0.00    -0.271 OA
HETATM    4  H   UNL     1      42.798 -11.906   3.706  1.00  0.00     0.169 HD
ENDROOT
BRANCH   1   5
HETATM    5  C   UNL     1      41.285 -13.321   3.595  1.00  0.00     0.050 A 
HETATM    6  C   UNL     1      41.604 -14.583   3.055  1.00  0.00     0.058 A 
HETATM    7  C   UNL     1      40.655 -15.289   2.293  1.00  0.00     0.019 A 
HETATM    8  C   UNL     1      39.378 -14.766   2.095  1.00  0.00     0.001 A 
HETATM    9  C   UNL     1      39.048 -13.535   2.649  1.00  0.00     0.002 A 
HETATM   10  C   UNL     1      39.994 -12.817   3.386  1.00  0.00     0.030 A 
BRANCH   6  11
HETATM   11  C   UNL     1      42.941 -15.199   3.298  1.00  0.00     0.254 C 
HETATM   12  N   UNL     1      43.021 -16.019   4.401  1.00  0.00    -0.349 N 
HETATM   13  H   UNL     1      42.214 -16.138   4.997  1.00  0.00     0.163 HD
HETATM   14  O   UNL     1      43.885 -14.933   2.561  1.00  0.00    -0.268 OA
BRANCH  12  15
HETATM   15  C   UNL     1      44.180 -16.840   4.706  1.00  0.00     0.114 C 
HETATM   16  C   UNL     1      44.449 -16.831   6.212  1.00  0.00     0.037 C 
BRANCH  15  17
HETATM   17  C   UNL     1      43.945 -18.224   4.122  1.00  0.00    -0.036 A 
HETATM   18  C   UNL     1      44.127 -19.348   4.946  1.00  0.00     0.009 A 
HETATM   19  C   UNL     1      43.974 -20.641   4.442  1.00  0.00     0.001 A 
HETATM   20  C   UNL     1      43.648 -20.831   3.101  1.00  0.00     0.000 A 
HETATM   21  C   UNL     1      43.478 -19.729   2.265  1.00  0.00     0.001 A 
HETATM   22  C   UNL     1      43.631 -18.434   2.770  1.00  0.00     0.009 A 
ENDBRANCH  15  17
ENDBRANCH  12  15
ENDBRANCH   6  11
ENDBRANCH   1   5
BRANCH   2  23
HETATM   23  C   UNL     1      43.500 -11.557   6.154  1.00  0.00     0.240 C 
BRANCH  23  24
HETATM   24  N   UNL     1      42.811 -10.535   6.913  1.00  0.00    -0.259 N 
HETATM   25  C   UNL     1      42.104  -9.534   6.325  1.00  0.00     0.326 C 
HETATM   26  O   UNL     1      41.759  -9.454   5.159  1.00  0.00    -0.247 OA
HETATM   27  N   UNL     1      41.897  -8.540   7.250  1.00  0.00    -0.324 N 
HETATM   28  C   UNL     1      42.417  -8.877   8.565  1.00  0.00     0.120 C 
HETATM   29  H   UNL     1      41.362  -7.714   7.014  1.00  0.00     0.165 HD
HETATM   30  C   UNL     1      41.256  -9.250   9.495  1.00  0.00     0.080 C 
HETATM   31  C   UNL     1      43.294  -7.765   9.128  1.00  0.00     0.046 C 
HETATM   32  C   UNL     1      43.226 -10.125   8.154  1.00  0.00     0.257 C 
HETATM   33  C   UNL     1      41.587  -9.219  10.965  1.00  0.00    -0.049 A 
HETATM   34  C   UNL     1      42.776  -8.650  11.450  1.00  0.00    -0.052 A 
HETATM   35  C   UNL     1      40.650  -9.738  11.873  1.00  0.00     0.007 A 
HETATM   36  C   UNL     1      43.825  -8.093  10.523  1.00  0.00     0.042 C 
HETATM   37  C   UNL     1      43.023  -8.653  12.832  1.00  0.00     0.007 A 
HETATM   38  C   UNL     1      42.089  -9.182  13.722  1.00  0.00     0.001 A 
HETATM   39  C   UNL     1      40.899  -9.720  13.243  1.00  0.00     0.001 A 
HETATM   40  O   UNL     1      44.087 -10.676   8.825  1.00  0.00    -0.270 OA
ENDBRANCH  23  24
ENDBRANCH   2  23
TORSDOF 6
ENDMDL
MODEL 8
REMARK VINA RESULT:     -10.1      2.222      8.510
REMARK  6 active torsions:
REMARK  status: ('A' for Active; 'I' for Inactive)
REMARK    1  A    between atoms: C_2  and  N_3 
REMARK    2  A    between atoms: C_2  and  C_32 
REMARK       I    between atoms: N_3  and  C_4 
REMARK    3  A    between atoms: C_4  and  C_5 
REMARK    4  A    between atoms: C_6  and  N_7 
REMARK       I    between atoms: N_7  and  C_8 
REMARK    5  A    between atoms: C_8  and  C_9 
REMARK    6  A    between atoms: C_9  and  N_10 
ROOT
HETATM    1  N   UNL     1      41.535 -16.044   2.739  1.00  0.00    -0.325 N 
HETATM    2  C   UNL     1      41.787 -14.819   2.154  1.00  0.00     0.240 C 
HETATM    3  O   UNL     1      42.867 -14.489   1.663  1.00  0.00    -0.271 OA
HETATM    4  H   UNL     1      40.563 -16.348   2.816  1.00  0.00     0.169 HD
ENDROOT
BRANCH   1   5
HETATM    5  C   UNL     1      42.501 -16.961   3.226  1.00  0.00     0.050 A 
HETATM    6  C   UNL     1      43.041 -16.802   4.518  1.00  0.00     0.058 A 
HETATM    7  C   UNL     1      44.069 -17.653   4.966  1.00  0.00     0.019 A 
HETATM    8  C   UNL     1      44.537 -18.684   4.154  1.00  0.00     0.001 A 
HETATM    9  C   UNL     1      43.989 -18.864   2.890  1.00  0.00     0.002 A 
HETATM   10  C   UNL     1      42.986 -18.007   2.428  1.00  0.00     0.030 A 
BRANCH   6  11
HETATM   11  C   UNL     1      42.521 -15.747   5.435  1.00  0.00     0.254 C 
HETATM   12  N   UNL     1      43.261 -14.587   5.478  1.00  0.00    -0.349 N 
HETATM   13  H   UNL     1      44.111 -14.513   4.936  1.00  0.00     0.163 HD
HETATM   14  O   UNL     1      41.521 -15.959   6.114  1.00  0.00    -0.268 OA
BRANCH  12  15
HETATM   15  C   UNL     1      42.829 -13.387   6.173  1.00  0.00     0.114 C 
HETATM   16  C   UNL     1      43.933 -12.896   7.112  1.00  0.00     0.037 C 
BRANCH  15  17
HETATM   17  C   UNL     1      42.396 -12.367   5.132  1.00  0.00    -0.036 A 
HETATM   18  C   UNL     1      41.088 -11.855   5.185  1.00  0.00     0.009 A 
HETATM   19  C   UNL     1      40.629 -10.957   4.221  1.00  0.00     0.001 A 
HETATM   20  C   UNL     1      41.466 -10.565   3.180  1.00  0.00     0.000 A 
HETATM   21  C   UNL     1      42.761 -11.072   3.102  1.00  0.00     0.001 A 
HETATM   22  C   UNL     1      43.223 -11.972   4.068  1.00  0.00     0.009 A 
ENDBRANCH  15  17
ENDBRANCH  12  15
ENDBRANCH   6  11
ENDBRANCH   1   5
BRANCH   2  23
HETATM   23  C   UNL     1      40.566 -13.919   1.974  1.00  0.00     0.240 C 
BRANCH  23  24
HETATM   24  N   UNL     1      40.012 -13.908   0.637  1.00  0.00    -0.259 N 
HETATM   25  C   UNL     1      39.665 -15.045  -0.023  1.00  0.00     0.326 C 
HETATM   26  O   UNL     1      39.551 -16.167   0.437  1.00  0.00    -0.247 OA
HETATM   27  N   UNL     1      39.537 -14.754  -1.360  1.00  0.00    -0.324 N 
HETATM   28  C   UNL     1      39.733 -13.344  -1.651  1.00  0.00     0.120 C 
HETATM   29  H   UNL     1      39.254 -15.465  -2.022  1.00  0.00     0.165 HD
HETATM   30  C   UNL     1      38.376 -12.682  -1.924  1.00  0.00     0.080 C 
HETATM   31  C   UNL     1      40.734 -13.134  -2.782  1.00  0.00     0.046 C 
HETATM   32  C   UNL     1      40.292 -12.924  -0.276  1.00  0.00     0.257 C 
HETATM   33  C   UNL     1      38.450 -11.353  -2.631  1.00  0.00    -0.049 A 
HETATM   34  C   UNL     1      39.637 -10.885  -3.218  1.00  0.00    -0.052 A 
HETATM   35  C   UNL     1      37.278 -10.588  -2.740  1.00  0.00     0.007 A 
HETATM   36  C   UNL     1      40.929 -11.656  -3.119  1.00  0.00     0.042 C 
HETATM   37  C   UNL     1      39.638  -9.639  -3.862  1.00  0.00     0.007 A 
HETATM   38  C   UNL     1      38.469  -8.883  -3.954  1.00  0.00     0.001 A 
HETATM   39  C   UNL     1      37.287  -9.360  -3.398  1.00  0.00     0.001 A 
HETATM   40  O   UNL     1      40.876 -11.879  -0.025  1.00  0.00    -0.270 OA
ENDBRANCH  23  24
ENDBRANCH   2  23
TORSDOF 6
ENDMDL
MODEL 9
REMARK VINA RESULT:     -10.0      5.716      9.426
REMARK  6 active torsions:
REMARK  status: ('A' for Active; 'I' for Inactive)
REMARK    1  A    between atoms: C_2  and  N_3 
REMARK    2  A    between atoms: C_2  and  C_32 
REMARK       I    between atoms: N_3  and  C_4 
REMARK    3  A    between atoms: C_4  and  C_5 
REMARK    4  A    between atoms: C_6  and  N_7 
REMARK       I    between atoms: N_7  and  C_8 
REMARK    5  A    between atoms: C_8  and  C_9 
REMARK    6  A    between atoms: C_9  and  N_10 
ROOT
HETATM    1  N   UNL     1      42.674 -10.149   5.852  1.00  0.00    -0.325 N 
HETATM    2  C   UNL     1      42.102  -9.577   6.970  1.00  0.00     0.240 C 
HETATM    3  O   UNL     1      40.939  -9.763   7.332  1.00  0.00    -0.271 OA
HETATM    4  H   UNL     1      43.693 -10.209   5.811  1.00  0.00     0.169 HD
ENDROOT
BRANCH   1   5
HETATM    5  C   UNL     1      41.986 -10.706   4.743  1.00  0.00     0.050 A 
HETATM    6  C   UNL     1      42.183 -12.057   4.392  1.00  0.00     0.058 A 
HETATM    7  C   UNL     1      41.576 -12.585   3.237  1.00  0.00     0.019 A 
HETATM    8  C   UNL     1      40.745 -11.790   2.450  1.00  0.00     0.001 A 
HETATM    9  C   UNL     1      40.523 -10.465   2.807  1.00  0.00     0.002 A 
HETATM   10  C   UNL     1      41.143  -9.927   3.938  1.00  0.00     0.030 A 
BRANCH   6  11
HETATM   11  C   UNL     1      43.018 -12.951   5.245  1.00  0.00     0.254 C 
HETATM   12  N   UNL     1      42.560 -14.243   5.370  1.00  0.00    -0.349 N 
HETATM   13  H   UNL     1      41.694 -14.513   4.927  1.00  0.00     0.163 HD
HETATM   14  O   UNL     1      44.015 -12.510   5.808  1.00  0.00    -0.268 OA
BRANCH  12  15
HETATM   15  C   UNL     1      43.319 -15.303   6.013  1.00  0.00     0.114 C 
HETATM   16  C   UNL     1      42.595 -15.775   7.276  1.00  0.00     0.037 C 
BRANCH  15  17
HETATM   17  C   UNL     1      43.563 -16.397   4.987  1.00  0.00    -0.036 A 
HETATM   18  C   UNL     1      43.053 -16.236   3.687  1.00  0.00     0.009 A 
HETATM   19  C   UNL     1      43.207 -17.237   2.726  1.00  0.00     0.001 A 
HETATM   20  C   UNL     1      43.864 -18.421   3.052  1.00  0.00     0.000 A 
HETATM   21  C   UNL     1      44.363 -18.605   4.340  1.00  0.00     0.001 A 
HETATM   22  C   UNL     1      44.210 -17.603   5.303  1.00  0.00     0.009 A 
ENDBRANCH  15  17
ENDBRANCH  12  15
ENDBRANCH   6  11
ENDBRANCH   1   5
BRANCH   2  23
HETATM   23  C   UNL     1      43.065  -8.813   7.877  1.00  0.00     0.240 C 
BRANCH  23  24
HETATM   24  N   UNL     1      43.085  -9.260   9.254  1.00  0.00    -0.259 N 
HETATM   25  C   UNL     1      43.560 -10.478   9.624  1.00  0.00     0.326 C 
HETATM   26  O   UNL     1      44.212 -11.258   8.951  1.00  0.00    -0.247 OA
HETATM   27  N   UNL     1      43.111 -10.759  10.891  1.00  0.00    -0.324 N 
HETATM   28  C   UNL     1      42.343  -9.668  11.471  1.00  0.00     0.120 C 
HETATM   29  H   UNL     1      43.380 -11.613  11.361  1.00  0.00     0.165 HD
HETATM   30  C   UNL     1      43.199  -8.936  12.512  1.00  0.00     0.080 C 
HETATM   31  C   UNL     1      41.010 -10.150  12.031  1.00  0.00     0.046 C 
HETATM   32  C   UNL     1      42.182  -8.825  10.189  1.00  0.00     0.257 C 
HETATM   33  C   UNL     1      42.424  -8.070  13.472  1.00  0.00    -0.049 A 
HETATM   34  C   UNL     1      41.025  -8.130  13.569  1.00  0.00    -0.052 A 
HETATM   35  C   UNL     1      43.139  -7.211  14.324  1.00  0.00     0.007 A 
HETATM   36  C   UNL     1      40.205  -9.019  12.670  1.00  0.00     0.042 C 
HETATM   37  C   UNL     1      40.364  -7.296  14.484  1.00  0.00     0.007 A 
HETATM   38  C   UNL     1      41.085  -6.439  15.317  1.00  0.00     0.001 A 
HETATM   39  C   UNL     1      42.473  -6.401  15.241  1.00  0.00     0.001 A 
HETATM   40  O   UNL     1      41.391  -7.905  10.028  1.00  0.00    -0.270 OA
ENDBRANCH  23  24
ENDBRANCH   2  23
TORSDOF 6
ENDMDL
MODEL 10
REMARK VINA RESULT:      -9.8      3.011      7.146
REMARK  6 active torsions:
REMARK  status: ('A' for Active; 'I' for Inactive)
REMARK    1  A    between atoms: C_2  and  N_3 
REMARK    2  A    between atoms: C_2  and  C_32 
REMARK       I    between atoms: N_3  and  C_4 
REMARK    3  A    between atoms: C_4  and  C_5 
REMARK    4  A    between atoms: C_6  and  N_7 
REMARK       I    between atoms: N_7  and  C_8 
REMARK    5  A    between atoms: C_8  and  C_9 
REMARK    6  A    between atoms: C_9  and  N_10 
ROOT
HETATM    1  N   UNL     1      39.269 -11.539   2.527  1.00  0.00    -0.325 N 
HETATM    2  C   UNL     1      39.746 -10.247   2.623  1.00  0.00     0.240 C 
HETATM    3  O   UNL     1      40.188  -9.595   1.676  1.00  0.00    -0.271 OA
HETATM    4  H   UNL     1      38.638 -11.872   3.258  1.00  0.00     0.169 HD
ENDROOT
BRANCH   1   5
HETATM    5  C   UNL     1      39.537 -12.463   1.485  1.00  0.00     0.050 A 
HETATM    6  C   UNL     1      40.451 -13.517   1.690  1.00  0.00     0.058 A 
HETATM    7  C   UNL     1      40.792 -14.376   0.629  1.00  0.00     0.019 A 
HETATM    8  C   UNL     1      40.202 -14.219  -0.623  1.00  0.00     0.001 A 
HETATM    9  C   UNL     1      39.279 -13.201  -0.825  1.00  0.00     0.002 A 
HETATM   10  C   UNL     1      38.955 -12.327   0.217  1.00  0.00     0.030 A 
BRANCH   6  11
HETATM   11  C   UNL     1      41.055 -13.749   3.034  1.00  0.00     0.254 C 
HETATM   12  N   UNL     1      40.935 -15.031   3.521  1.00  0.00    -0.349 N 
HETATM   13  H   UNL     1      40.432 -15.725   2.986  1.00  0.00     0.163 HD
HETATM   14  O   UNL     1      41.579 -12.821   3.643  1.00  0.00    -0.268 OA
BRANCH  12  15
HETATM   15  C   UNL     1      41.602 -15.497   4.725  1.00  0.00     0.114 C 
HETATM   16  C   UNL     1      40.566 -15.917   5.770  1.00  0.00     0.037 C 
BRANCH  15  17
HETATM   17  C   UNL     1      42.574 -16.597   4.331  1.00  0.00    -0.036 A 
HETATM   18  C   UNL     1      42.518 -17.118   3.027  1.00  0.00     0.009 A 
HETATM   19  C   UNL     1      43.355 -18.164   2.635  1.00  0.00     0.001 A 
HETATM   20  C   UNL     1      44.254 -18.714   3.545  1.00  0.00     0.000 A 
HETATM   21  C   UNL     1      44.314 -18.221   4.846  1.00  0.00     0.001 A 
HETATM   22  C   UNL     1      43.477 -17.173   5.240  1.00  0.00     0.009 A 
ENDBRANCH  15  17
ENDBRANCH  12  15
ENDBRANCH   6  11
ENDBRANCH   1   5
BRANCH   2  23
HETATM   23  C   UNL     1      39.529  -9.570   3.974  1.00  0.00     0.240 C 
BRANCH  23  24
HETATM   24  N   UNL     1      40.210 -10.200   5.086  1.00  0.00    -0.259 N 
HETATM   25  C   UNL     1      39.623 -11.145   5.866  1.00  0.00     0.326 C 
HETATM   26  O   UNL     1      38.587 -11.749   5.651  1.00  0.00    -0.247 OA
HETATM   27  N   UNL     1      40.349 -11.269   7.026  1.00  0.00    -0.324 N 
HETATM   28  C   UNL     1      41.536 -10.430   7.040  1.00  0.00     0.120 C 
HETATM   29  H   UNL     1      40.090 -11.947   7.731  1.00  0.00     0.165 HD
HETATM   30  C   UNL     1      42.779 -11.296   6.799  1.00  0.00     0.080 C 
HETATM   31  C   UNL     1      41.628  -9.602   8.317  1.00  0.00     0.046 C 
HETATM   32  C   UNL     1      41.201  -9.577   5.799  1.00  0.00     0.257 C 
HETATM   33  C   UNL     1      44.085 -10.652   7.191  1.00  0.00    -0.049 A 
HETATM   34  C   UNL     1      44.137  -9.471   7.948  1.00  0.00    -0.052 A 
HETATM   35  C   UNL     1      45.281 -11.288   6.821  1.00  0.00     0.007 A 
HETATM   36  C   UNL     1      42.886  -8.736   8.359  1.00  0.00     0.042 C 
HETATM   37  C   UNL     1      45.386  -8.923   8.279  1.00  0.00     0.007 A 
HETATM   38  C   UNL     1      46.567  -9.558   7.896  1.00  0.00     0.001 A 
HETATM   39  C   UNL     1      46.515 -10.745   7.171  1.00  0.00     0.001 A 
HETATM   40  O   UNL     1      41.737  -8.523   5.485  1.00  0.00    -0.270 OA
ENDBRANCH  23  24
ENDBRANCH   2  23
TORSDOF 6
ENDMDL
