MODEL 1
REMARK VINA RESULT:      -8.5      0.000      0.000
REMARK  4 active torsions:
REMARK  status: ('A' for Active; 'I' for Inactive)
REMARK    1  A    between atoms: C_9  and  C_10 
REMARK    2  A    between atoms: C_17  and  C_18 
REMARK       I    between atoms: C_18  and  N_19 
REMARK    3  A    between atoms: N_19  and  C_20 
REMARK    4  A    between atoms: C_23  and  O_24 
ROOT
HETATM    1  C   UNL     1      44.317 -11.584   3.831  1.00  0.00     0.070 C 
HETATM    2  C   UNL     1      42.898 -11.684   3.325  1.00  0.00     0.037 C 
HETATM    3  N   UNL     1      42.117 -10.549   3.525  1.00  0.00    -0.192 N 
HETATM    4  C   UNL     1      40.779 -10.536   3.368  1.00  0.00     0.725 A 
HETATM    5  N   UNL     1      40.156 -11.629   2.828  1.00  0.00    -0.084 N 
HETATM    6  N   UNL     1      38.814 -11.486   2.844  1.00  0.00    -0.149 NA
HETATM    7  C   UNL     1      38.705 -10.253   3.353  1.00  0.00     0.275 A 
HETATM    8  N   UNL     1      39.883  -9.637   3.686  1.00  0.00    -0.054 NA
HETATM    9  C   UNL     1      40.857 -12.857   2.431  1.00  0.00     0.204 C 
HETATM   10  C   UNL     1      42.339 -12.800   2.789  1.00  0.00     0.062 C 
HETATM   11  H   UNL     1      42.546  -9.756   3.998  1.00  0.00     0.184 HD
ENDROOT
BRANCH  10  12
HETATM   12  C   UNL     1      43.029 -14.115   2.693  1.00  0.00     0.256 C 
HETATM   13  N   UNL     1      42.765 -14.977   3.735  1.00  0.00    -0.323 N 
HETATM   14  H   UNL     1      42.212 -14.618   4.504  1.00  0.00     0.169 HD
HETATM   15  O   UNL     1      43.777 -14.308   1.744  1.00  0.00    -0.267 OA
BRANCH  13  16
HETATM   16  C   UNL     1      43.128 -16.341   3.814  1.00  0.00     0.035 A 
HETATM   17  C   UNL     1      43.784 -16.909   4.906  1.00  0.00     0.032 A 
HETATM   18  C   UNL     1      44.153 -18.259   4.889  1.00  0.00     0.039 A 
HETATM   19  C   UNL     1      43.873 -19.065   3.787  1.00  0.00     0.068 A 
HETATM   20  C   UNL     1      43.218 -18.506   2.692  1.00  0.00     0.039 A 
HETATM   21  C   UNL     1      42.846 -17.153   2.708  1.00  0.00     0.032 A 
BRANCH  19  22
HETATM   22  O   UNL     1      44.296 -20.358   3.904  1.00  0.00    -0.356 OA
HETATM   23  C   UNL     1      44.238 -20.942   5.198  1.00  0.00     0.210 C 
ENDBRANCH  19  22
ENDBRANCH  13  16
ENDBRANCH  10  12
BRANCH   9  24
HETATM   24  C   UNL     1      40.568 -13.205   0.971  1.00  0.00    -0.006 A 
HETATM   25  C   UNL     1      40.112 -14.456   0.519  1.00  0.00     0.042 A 
HETATM   26 CL   UNL     1      39.722 -15.757   1.585  1.00  0.00    -0.084 Cl
HETATM   27  C   UNL     1      39.931 -14.700  -0.849  1.00  0.00     0.024 A 
HETATM   28  C   UNL     1      40.182 -13.701  -1.786  1.00  0.00     0.002 A 
HETATM   29  C   UNL     1      40.606 -12.449  -1.358  1.00  0.00     0.001 A 
HETATM   30  C   UNL     1      40.796 -12.204   0.003  1.00  0.00     0.011 A 
ENDBRANCH   9  24
TORSDOF 4
ENDMDL
MODEL 2
REMARK VINA RESULT:      -8.3      2.217      4.065
REMARK  4 active torsions:
REMARK  status: ('A' for Active; 'I' for Inactive)
REMARK    1  A    between atoms: C_9  and  C_10 
REMARK    2  A    between atoms: C_17  and  C_18 
REMARK       I    between atoms: C_18  and  N_19 
REMARK    3  A    between atoms: N_19  and  C_20 
REMARK    4  A    between atoms: C_23  and  O_24 
ROOT
HETATM    1  C   UNL     1      39.451 -14.951  -0.990  1.00  0.00     0.070 C 
HETATM    2  C   UNL     1      40.038 -13.809  -0.196  1.00  0.00     0.037 C 
HETATM    3  N   UNL     1      39.928 -12.555  -0.792  1.00  0.00    -0.192 N 
HETATM    4  C   UNL     1      40.599 -11.470  -0.359  1.00  0.00     0.725 A 
HETATM    5  N   UNL     1      41.297 -11.538   0.816  1.00  0.00    -0.084 N 
HETATM    6  N   UNL     1      41.992 -10.402   1.041  1.00  0.00    -0.149 NA
HETATM    7  C   UNL     1      41.614  -9.672  -0.015  1.00  0.00     0.275 A 
HETATM    8  N   UNL     1      40.762 -10.288  -0.895  1.00  0.00    -0.054 NA
HETATM    9  C   UNL     1      41.397 -12.749   1.640  1.00  0.00     0.204 C 
HETATM   10  C   UNL     1      40.715 -13.941   0.974  1.00  0.00     0.062 C 
HETATM   11  H   UNL     1      39.481 -12.502  -1.704  1.00  0.00     0.184 HD
ENDROOT
BRANCH  10  12
HETATM   12  C   UNL     1      41.043 -15.248   1.605  1.00  0.00     0.256 C 
HETATM   13  N   UNL     1      42.385 -15.447   1.846  1.00  0.00    -0.323 N 
HETATM   14  H   UNL     1      43.026 -14.745   1.499  1.00  0.00     0.169 HD
HETATM   15  O   UNL     1      40.127 -16.031   1.823  1.00  0.00    -0.267 OA
BRANCH  13  16
HETATM   16  C   UNL     1      42.961 -16.500   2.593  1.00  0.00     0.035 A 
HETATM   17  C   UNL     1      43.211 -17.771   2.079  1.00  0.00     0.032 A 
HETATM   18  C   UNL     1      43.742 -18.776   2.896  1.00  0.00     0.039 A 
HETATM   19  C   UNL     1      44.032 -18.531   4.237  1.00  0.00     0.068 A 
HETATM   20  C   UNL     1      43.785 -17.263   4.760  1.00  0.00     0.039 A 
HETATM   21  C   UNL     1      43.256 -16.254   3.941  1.00  0.00     0.032 A 
BRANCH  19  22
HETATM   22  O   UNL     1      44.537 -19.602   4.917  1.00  0.00    -0.356 OA
HETATM   23  C   UNL     1      43.993 -20.878   4.607  1.00  0.00     0.210 C 
ENDBRANCH  19  22
ENDBRANCH  13  16
ENDBRANCH  10  12
BRANCH   9  24
HETATM   24  C   UNL     1      40.942 -12.476   3.074  1.00  0.00    -0.006 A 
HETATM   25  C   UNL     1      41.800 -12.378   4.184  1.00  0.00     0.042 A 
HETATM   26 CL   UNL     1      43.520 -12.462   4.055  1.00  0.00    -0.084 Cl
HETATM   27  C   UNL     1      41.283 -12.184   5.472  1.00  0.00     0.024 A 
HETATM   28  C   UNL     1      39.910 -12.065   5.675  1.00  0.00     0.002 A 
HETATM   29  C   UNL     1      39.047 -12.131   4.588  1.00  0.00     0.001 A 
HETATM   30  C   UNL     1      39.557 -12.333   3.303  1.00  0.00     0.011 A 
ENDBRANCH   9  24
TORSDOF 4
ENDMDL
MODEL 3
REMARK VINA RESULT:      -7.8      2.727      6.293
REMARK  4 active torsions:
REMARK  status: ('A' for Active; 'I' for Inactive)
REMARK    1  A    between atoms: C_9  and  C_10 
REMARK    2  A    between atoms: C_17  and  C_18 
REMARK       I    between atoms: C_18  and  N_19 
REMARK    3  A    between atoms: N_19  and  C_20 
REMARK    4  A    between atoms: C_23  and  O_24 
ROOT
HETATM    1  C   UNL     1      39.075 -11.061   5.369  1.00  0.00     0.070 C 
HETATM    2  C   UNL     1      40.462 -11.655   5.387  1.00  0.00     0.037 C 
HETATM    3  N   UNL     1      41.276 -11.229   6.433  1.00  0.00    -0.192 N 
HETATM    4  C   UNL     1      42.604 -11.455   6.476  1.00  0.00     0.725 A 
HETATM    5  N   UNL     1      43.174 -12.280   5.544  1.00  0.00    -0.084 N 
HETATM    6  N   UNL     1      44.518 -12.307   5.670  1.00  0.00    -0.149 NA
HETATM    7  C   UNL     1      44.679 -11.519   6.740  1.00  0.00     0.275 A 
HETATM    8  N   UNL     1      43.533 -10.978   7.263  1.00  0.00    -0.054 NA
HETATM    9  C   UNL     1      42.428 -12.924   4.456  1.00  0.00     0.204 C 
HETATM   10  C   UNL     1      40.968 -12.479   4.433  1.00  0.00     0.062 C 
HETATM   11  H   UNL     1      40.890 -10.553   7.089  1.00  0.00     0.184 HD
ENDROOT
BRANCH  10  12
HETATM   12  C   UNL     1      40.248 -12.854   3.186  1.00  0.00     0.256 C 
HETATM   13  N   UNL     1      40.870 -12.455   2.024  1.00  0.00    -0.323 N 
HETATM   14  H   UNL     1      41.695 -11.876   2.116  1.00  0.00     0.169 HD
HETATM   15  O   UNL     1      39.177 -13.439   3.291  1.00  0.00    -0.267 OA
BRANCH  13  16
HETATM   16  C   UNL     1      40.516 -12.828   0.707  1.00  0.00     0.035 A 
HETATM   17  C   UNL     1      40.215 -14.134   0.322  1.00  0.00     0.032 A 
HETATM   18  C   UNL     1      39.919 -14.431  -1.013  1.00  0.00     0.039 A 
HETATM   19  C   UNL     1      39.918 -13.433  -1.986  1.00  0.00     0.068 A 
HETATM   20  C   UNL     1      40.218 -12.125  -1.611  1.00  0.00     0.039 A 
HETATM   21  C   UNL     1      40.512 -11.826  -0.272  1.00  0.00     0.032 A 
BRANCH  19  22
HETATM   22  O   UNL     1      39.620 -13.866  -3.247  1.00  0.00    -0.356 OA
HETATM   23  C   UNL     1      38.417 -14.605  -3.408  1.00  0.00     0.210 C 
ENDBRANCH  19  22
ENDBRANCH  13  16
ENDBRANCH  10  12
BRANCH   9  24
HETATM   24  C   UNL     1      42.631 -14.439   4.474  1.00  0.00    -0.006 A 
HETATM   25  C   UNL     1      43.087 -15.201   3.385  1.00  0.00     0.042 A 
HETATM   26 CL   UNL     1      43.578 -14.501   1.885  1.00  0.00    -0.084 Cl
HETATM   27  C   UNL     1      43.185 -16.597   3.478  1.00  0.00     0.024 A 
HETATM   28  C   UNL     1      42.850 -17.253   4.660  1.00  0.00     0.002 A 
HETATM   29  C   UNL     1      42.423 -16.515   5.758  1.00  0.00     0.001 A 
HETATM   30  C   UNL     1      42.315 -15.126   5.666  1.00  0.00     0.011 A 
ENDBRANCH   9  24
TORSDOF 4
ENDMDL
MODEL 4
REMARK VINA RESULT:      -7.6      2.569      3.134
REMARK  4 active torsions:
REMARK  status: ('A' for Active; 'I' for Inactive)
REMARK    1  A    between atoms: C_9  and  C_10 
REMARK    2  A    between atoms: C_17  and  C_18 
REMARK       I    between atoms: C_18  and  N_19 
REMARK    3  A    between atoms: N_19  and  C_20 
REMARK    4  A    between atoms: C_23  and  O_24 
ROOT
HETATM    1  C   UNL     1      44.354 -12.718   6.868  1.00  0.00     0.070 C 
HETATM    2  C   UNL     1      43.110 -12.053   6.332  1.00  0.00     0.037 C 
HETATM    3  N   UNL     1      42.985 -10.699   6.634  1.00  0.00    -0.192 N 
HETATM    4  C   UNL     1      41.843 -10.004   6.457  1.00  0.00     0.725 A 
HETATM    5  N   UNL     1      40.797 -10.591   5.798  1.00  0.00    -0.084 N 
HETATM    6  N   UNL     1      39.705  -9.797   5.806  1.00  0.00    -0.149 NA
HETATM    7  C   UNL     1      40.190  -8.721   6.437  1.00  0.00     0.275 A 
HETATM    8  N   UNL     1      41.495  -8.807   6.851  1.00  0.00    -0.054 NA
HETATM    9  C   UNL     1      40.819 -11.968   5.290  1.00  0.00     0.204 C 
HETATM   10  C   UNL     1      42.107 -12.691   5.676  1.00  0.00     0.062 C 
HETATM   11  H   UNL     1      43.719 -10.269   7.192  1.00  0.00     0.184 HD
ENDROOT
BRANCH  10  12
HETATM   12  C   UNL     1      42.056 -14.162   5.457  1.00  0.00     0.256 C 
HETATM   13  N   UNL     1      42.840 -14.613   4.418  1.00  0.00    -0.323 N 
HETATM   14  H   UNL     1      43.299 -13.915   3.847  1.00  0.00     0.169 HD
HETATM   15  O   UNL     1      41.321 -14.829   6.175  1.00  0.00    -0.267 OA
BRANCH  13  16
HETATM   16  C   UNL     1      43.128 -15.961   4.102  1.00  0.00     0.035 A 
HETATM   17  C   UNL     1      43.957 -16.779   4.868  1.00  0.00     0.032 A 
HETATM   18  C   UNL     1      44.232 -18.090   4.463  1.00  0.00     0.039 A 
HETATM   19  C   UNL     1      43.685 -18.607   3.290  1.00  0.00     0.068 A 
HETATM   20  C   UNL     1      42.855 -17.797   2.518  1.00  0.00     0.039 A 
HETATM   21  C   UNL     1      42.577 -16.483   2.924  1.00  0.00     0.032 A 
BRANCH  19  22
HETATM   22  O   UNL     1      44.043 -19.896   3.013  1.00  0.00    -0.356 OA
HETATM   23  C   UNL     1      43.562 -20.453   1.797  1.00  0.00     0.210 C 
ENDBRANCH  19  22
ENDBRANCH  13  16
ENDBRANCH  10  12
BRANCH   9  24
HETATM   24  C   UNL     1      40.491 -12.006   3.797  1.00  0.00    -0.006 A 
HETATM   25  C   UNL     1      41.356 -11.579   2.774  1.00  0.00     0.042 A 
HETATM   26 CL   UNL     1      42.968 -11.035   3.069  1.00  0.00    -0.084 Cl
HETATM   27  C   UNL     1      40.944 -11.597   1.434  1.00  0.00     0.024 A 
HETATM   28  C   UNL     1      39.675 -12.056   1.089  1.00  0.00     0.002 A 
HETATM   29  C   UNL     1      38.814 -12.508   2.083  1.00  0.00     0.001 A 
HETATM   30  C   UNL     1      39.218 -12.484   3.420  1.00  0.00     0.011 A 
ENDBRANCH   9  24
TORSDOF 4
ENDMDL
MODEL 5
REMARK VINA RESULT:      -7.5      2.948      6.260
REMARK  4 active torsions:
REMARK  status: ('A' for Active; 'I' for Inactive)
REMARK    1  A    between atoms: C_9  and  C_10 
REMARK    2  A    between atoms: C_17  and  C_18 
REMARK       I    between atoms: C_18  and  N_19 
REMARK    3  A    between atoms: N_19  and  C_20 
REMARK    4  A    between atoms: C_23  and  O_24 
ROOT
HETATM    1  C   UNL     1      40.187  -9.490   4.065  1.00  0.00     0.070 C 
HETATM    2  C   UNL     1      41.174 -10.529   4.537  1.00  0.00     0.037 C 
HETATM    3  N   UNL     1      41.630 -10.365   5.843  1.00  0.00    -0.192 N 
HETATM    4  C   UNL     1      42.682 -11.038   6.348  1.00  0.00     0.725 A 
HETATM    5  N   UNL     1      43.241 -12.053   5.620  1.00  0.00    -0.084 N 
HETATM    6  N   UNL     1      44.344 -12.542   6.227  1.00  0.00    -0.149 NA
HETATM    7  C   UNL     1      44.352 -11.810   7.348  1.00  0.00     0.275 A 
HETATM    8  N   UNL     1      43.351 -10.879   7.461  1.00  0.00    -0.054 NA
HETATM    9  C   UNL     1      42.787 -12.447   4.281  1.00  0.00     0.204 C 
HETATM   10  C   UNL     1      41.688 -11.522   3.765  1.00  0.00     0.062 C 
HETATM   11  H   UNL     1      41.281  -9.567   6.369  1.00  0.00     0.184 HD
ENDROOT
BRANCH  10  12
HETATM   12  C   UNL     1      41.406 -11.680   2.312  1.00  0.00     0.256 C 
HETATM   13  N   UNL     1      40.401 -12.576   2.019  1.00  0.00    -0.323 N 
HETATM   14  H   UNL     1      40.014 -13.106   2.789  1.00  0.00     0.169 HD
HETATM   15  O   UNL     1      42.088 -11.046   1.518  1.00  0.00    -0.267 OA
BRANCH  13  16
HETATM   16  C   UNL     1      39.802 -12.787   0.756  1.00  0.00     0.035 A 
HETATM   17  C   UNL     1      38.877 -11.918   0.179  1.00  0.00     0.032 A 
HETATM   18  C   UNL     1      38.291 -12.221  -1.056  1.00  0.00     0.039 A 
HETATM   19  C   UNL     1      38.619 -13.393  -1.735  1.00  0.00     0.068 A 
HETATM   20  C   UNL     1      39.542 -14.268  -1.166  1.00  0.00     0.039 A 
HETATM   21  C   UNL     1      40.131 -13.964   0.070  1.00  0.00     0.032 A 
BRANCH  19  22
HETATM   22  O   UNL     1      37.967 -13.565  -2.924  1.00  0.00    -0.356 OA
HETATM   23  C   UNL     1      38.167 -14.800  -3.597  1.00  0.00     0.210 C 
ENDBRANCH  19  22
ENDBRANCH  13  16
ENDBRANCH  10  12
BRANCH   9  24
HETATM   24  C   UNL     1      42.439 -13.935   4.236  1.00  0.00    -0.006 A 
HETATM   25  C   UNL     1      41.418 -14.544   4.987  1.00  0.00     0.042 A 
HETATM   26 CL   UNL     1      40.342 -13.658   6.006  1.00  0.00    -0.084 Cl
HETATM   27  C   UNL     1      41.212 -15.929   4.924  1.00  0.00     0.024 A 
HETATM   28  C   UNL     1      42.003 -16.726   4.100  1.00  0.00     0.002 A 
HETATM   29  C   UNL     1      43.000 -16.140   3.329  1.00  0.00     0.001 A 
HETATM   30  C   UNL     1      43.214 -14.762   3.396  1.00  0.00     0.011 A 
ENDBRANCH   9  24
TORSDOF 4
ENDMDL
MODEL 6
REMARK VINA RESULT:      -7.4     15.654     17.537
REMARK  4 active torsions:
REMARK  status: ('A' for Active; 'I' for Inactive)
REMARK    1  A    between atoms: C_9  and  C_10 
REMARK    2  A    between atoms: C_17  and  C_18 
REMARK       I    between atoms: C_18  and  N_19 
REMARK    3  A    between atoms: N_19  and  C_20 
REMARK    4  A    between atoms: C_23  and  O_24 
ROOT
HETATM    1  C   UNL     1      47.434 -29.982   3.224  1.00  0.00     0.070 C 
HETATM    2  C   UNL     1      46.188 -30.026   2.373  1.00  0.00     0.037 C 
HETATM    3  N   UNL     1      45.024 -29.594   3.004  1.00  0.00    -0.192 N 
HETATM    4  C   UNL     1      43.791 -29.789   2.496  1.00  0.00     0.725 A 
HETATM    5  N   UNL     1      43.661 -30.283   1.226  1.00  0.00    -0.084 N 
HETATM    6  N   UNL     1      42.366 -30.515   0.921  1.00  0.00    -0.149 NA
HETATM    7  C   UNL     1      41.770 -30.079   2.037  1.00  0.00     0.275 A 
HETATM    8  N   UNL     1      42.606 -29.626   3.025  1.00  0.00    -0.054 NA
HETATM    9  C   UNL     1      44.795 -30.657   0.372  1.00  0.00     0.204 C 
HETATM   10  C   UNL     1      46.124 -30.522   1.111  1.00  0.00     0.062 C 
HETATM   11  H   UNL     1      45.094 -29.299   3.976  1.00  0.00     0.184 HD
ENDROOT
BRANCH  10  12
HETATM   12  C   UNL     1      47.267 -31.169   0.410  1.00  0.00     0.256 C 
HETATM   13  N   UNL     1      48.264 -30.302   0.021  1.00  0.00    -0.323 N 
HETATM   14  H   UNL     1      48.097 -29.313   0.159  1.00  0.00     0.169 HD
HETATM   15  O   UNL     1      47.216 -32.376   0.213  1.00  0.00    -0.267 OA
BRANCH  13  16
HETATM   16  C   UNL     1      49.534 -30.652  -0.491  1.00  0.00     0.035 A 
HETATM   17  C   UNL     1      49.965 -30.344  -1.781  1.00  0.00     0.032 A 
HETATM   18  C   UNL     1      51.221 -30.767  -2.230  1.00  0.00     0.039 A 
HETATM   19  C   UNL     1      52.068 -31.502  -1.403  1.00  0.00     0.068 A 
HETATM   20  C   UNL     1      51.646 -31.815  -0.112  1.00  0.00     0.039 A 
HETATM   21  C   UNL     1      50.388 -31.389   0.340  1.00  0.00     0.032 A 
BRANCH  19  22
HETATM   22  O   UNL     1      53.258 -31.855  -1.974  1.00  0.00    -0.356 OA
HETATM   23  C   UNL     1      54.002 -32.882  -1.332  1.00  0.00     0.210 C 
ENDBRANCH  19  22
ENDBRANCH  13  16
ENDBRANCH  10  12
BRANCH   9  24
HETATM   24  C   UNL     1      44.736 -29.924  -0.969  1.00  0.00    -0.006 A 
HETATM   25  C   UNL     1      44.418 -30.527  -2.199  1.00  0.00     0.042 A 
HETATM   26 CL   UNL     1      43.951 -32.183  -2.344  1.00  0.00    -0.084 Cl
HETATM   27  C   UNL     1      44.447 -29.784  -3.388  1.00  0.00     0.024 A 
HETATM   28  C   UNL     1      44.773 -28.431  -3.370  1.00  0.00     0.002 A 
HETATM   29  C   UNL     1      45.064 -27.810  -2.161  1.00  0.00     0.001 A 
HETATM   30  C   UNL     1      45.045 -28.548  -0.975  1.00  0.00     0.011 A 
ENDBRANCH   9  24
TORSDOF 4
ENDMDL
MODEL 7
REMARK VINA RESULT:      -6.9      3.698      4.823
REMARK  4 active torsions:
REMARK  status: ('A' for Active; 'I' for Inactive)
REMARK    1  A    between atoms: C_9  and  C_10 
REMARK    2  A    between atoms: C_17  and  C_18 
REMARK       I    between atoms: C_18  and  N_19 
REMARK    3  A    between atoms: N_19  and  C_20 
REMARK    4  A    between atoms: C_23  and  O_24 
ROOT
HETATM    1  C   UNL     1      45.817 -10.486   7.539  1.00  0.00     0.070 C 
HETATM    2  C   UNL     1      44.333 -10.208   7.522  1.00  0.00     0.037 C 
HETATM    3  N   UNL     1      43.910  -9.197   8.381  1.00  0.00    -0.192 N 
HETATM    4  C   UNL     1      42.615  -8.978   8.683  1.00  0.00     0.725 A 
HETATM    5  N   UNL     1      41.643  -9.658   7.999  1.00  0.00    -0.084 N 
HETATM    6  N   UNL     1      40.417  -9.397   8.501  1.00  0.00    -0.149 NA
HETATM    7  C   UNL     1      40.725  -8.503   9.448  1.00  0.00     0.275 A 
HETATM    8  N   UNL     1      42.059  -8.218   9.591  1.00  0.00    -0.054 NA
HETATM    9  C   UNL     1      41.920 -10.658   6.961  1.00  0.00     0.204 C 
HETATM   10  C   UNL     1      43.417 -10.917   6.813  1.00  0.00     0.062 C 
HETATM   11  H   UNL     1      44.613  -8.737   8.954  1.00  0.00     0.184 HD
ENDROOT
BRANCH  10  12
HETATM   12  C   UNL     1      43.739 -12.124   6.005  1.00  0.00     0.256 C 
HETATM   13  N   UNL     1      43.424 -13.320   6.612  1.00  0.00    -0.323 N 
HETATM   14  H   UNL     1      43.096 -13.280   7.569  1.00  0.00     0.169 HD
HETATM   15  O   UNL     1      44.269 -11.964   4.913  1.00  0.00    -0.267 OA
BRANCH  13  16
HETATM   16  C   UNL     1      43.447 -14.601   6.016  1.00  0.00     0.035 A 
HETATM   17  C   UNL     1      44.323 -15.618   6.391  1.00  0.00     0.032 A 
HETATM   18  C   UNL     1      44.316 -16.846   5.719  1.00  0.00     0.039 A 
HETATM   19  C   UNL     1      43.436 -17.081   4.665  1.00  0.00     0.068 A 
HETATM   20  C   UNL     1      42.556 -16.069   4.282  1.00  0.00     0.039 A 
HETATM   21  C   UNL     1      42.561 -14.839   4.957  1.00  0.00     0.032 A 
BRANCH  19  22
HETATM   22  O   UNL     1      43.543 -18.318   4.096  1.00  0.00    -0.356 OA
HETATM   23  C   UNL     1      43.597 -18.374   2.677  1.00  0.00     0.210 C 
ENDBRANCH  19  22
ENDBRANCH  13  16
ENDBRANCH  10  12
BRANCH   9  24
HETATM   24  C   UNL     1      41.203 -10.306   5.657  1.00  0.00    -0.006 A 
HETATM   25  C   UNL     1      40.271 -11.133   5.005  1.00  0.00     0.042 A 
HETATM   26 CL   UNL     1      39.733 -12.640   5.654  1.00  0.00    -0.084 Cl
HETATM   27  C   UNL     1      39.709 -10.750   3.779  1.00  0.00     0.024 A 
HETATM   28  C   UNL     1      40.049  -9.534   3.193  1.00  0.00     0.002 A 
HETATM   29  C   UNL     1      40.948  -8.690   3.834  1.00  0.00     0.001 A 
HETATM   30  C   UNL     1      41.517  -9.071   5.051  1.00  0.00     0.011 A 
ENDBRANCH   9  24
TORSDOF 4
ENDMDL
MODEL 8
REMARK VINA RESULT:      -6.8      3.086      6.889
REMARK  4 active torsions:
REMARK  status: ('A' for Active; 'I' for Inactive)
REMARK    1  A    between atoms: C_9  and  C_10 
REMARK    2  A    between atoms: C_17  and  C_18 
REMARK       I    between atoms: C_18  and  N_19 
REMARK    3  A    between atoms: N_19  and  C_20 
REMARK    4  A    between atoms: C_23  and  O_24 
ROOT
HETATM    1  C   UNL     1      39.391 -11.142   6.370  1.00  0.00     0.070 C 
HETATM    2  C   UNL     1      40.771 -11.515   5.887  1.00  0.00     0.037 C 
HETATM    3  N   UNL     1      41.805 -11.243   6.779  1.00  0.00    -0.192 N 
HETATM    4  C   UNL     1      43.107 -11.277   6.434  1.00  0.00     0.725 A 
HETATM    5  N   UNL     1      43.462 -11.757   5.202  1.00  0.00    -0.084 N 
HETATM    6  N   UNL     1      44.787 -11.618   4.985  1.00  0.00    -0.149 NA
HETATM    7  C   UNL     1      45.174 -11.101   6.157  1.00  0.00     0.275 A 
HETATM    8  N   UNL     1      44.177 -10.877   7.071  1.00  0.00    -0.054 NA
HETATM    9  C   UNL     1      42.499 -12.217   4.194  1.00  0.00     0.204 C 
HETATM   10  C   UNL     1      41.058 -11.997   4.650  1.00  0.00     0.062 C 
HETATM   11  H   UNL     1      41.562 -10.812   7.668  1.00  0.00     0.184 HD
ENDROOT
BRANCH  10  12
HETATM   12  C   UNL     1      40.055 -12.157   3.562  1.00  0.00     0.256 C 
HETATM   13  N   UNL     1      40.022 -11.118   2.658  1.00  0.00    -0.323 N 
HETATM   14  H   UNL     1      40.601 -10.312   2.857  1.00  0.00     0.169 HD
HETATM   15  O   UNL     1      39.341 -13.151   3.576  1.00  0.00    -0.267 OA
BRANCH  13  16
HETATM   16  C   UNL     1      39.310 -11.084   1.438  1.00  0.00     0.035 A 
HETATM   17  C   UNL     1      37.918 -11.097   1.348  1.00  0.00     0.032 A 
HETATM   18  C   UNL     1      37.287 -11.110   0.099  1.00  0.00     0.039 A 
HETATM   19  C   UNL     1      38.030 -11.108  -1.080  1.00  0.00     0.068 A 
HETATM   20  C   UNL     1      39.421 -11.095  -1.000  1.00  0.00     0.039 A 
HETATM   21  C   UNL     1      40.055 -11.080   0.251  1.00  0.00     0.032 A 
BRANCH  19  22
HETATM   22  O   UNL     1      37.285 -11.129  -2.224  1.00  0.00    -0.356 OA
HETATM   23  C   UNL     1      36.880 -12.403  -2.708  1.00  0.00     0.210 C 
ENDBRANCH  19  22
ENDBRANCH  13  16
ENDBRANCH  10  12
BRANCH   9  24
HETATM   24  C   UNL     1      42.813 -13.645   3.747  1.00  0.00    -0.006 A 
HETATM   25  C   UNL     1      42.833 -14.766   4.595  1.00  0.00     0.042 A 
HETATM   26 CL   UNL     1      42.404 -14.691   6.266  1.00  0.00    -0.084 Cl
HETATM   27  C   UNL     1      43.192 -16.029   4.103  1.00  0.00     0.024 A 
HETATM   28  C   UNL     1      43.517 -16.200   2.760  1.00  0.00     0.002 A 
HETATM   29  C   UNL     1      43.477 -15.110   1.899  1.00  0.00     0.001 A 
HETATM   30  C   UNL     1      43.129 -13.848   2.386  1.00  0.00     0.011 A 
ENDBRANCH   9  24
TORSDOF 4
ENDMDL
MODEL 9
REMARK VINA RESULT:      -6.8     15.715     18.540
REMARK  4 active torsions:
REMARK  status: ('A' for Active; 'I' for Inactive)
REMARK    1  A    between atoms: C_9  and  C_10 
REMARK    2  A    between atoms: C_17  and  C_18 
REMARK       I    between atoms: C_18  and  N_19 
REMARK    3  A    between atoms: N_19  and  C_20 
REMARK    4  A    between atoms: C_23  and  O_24 
ROOT
HETATM    1  C   UNL     1      44.127 -34.272  -0.613  1.00  0.00     0.070 C 
HETATM    2  C   UNL     1      44.012 -32.801  -0.292  1.00  0.00     0.037 C 
HETATM    3  N   UNL     1      43.383 -32.505   0.915  1.00  0.00    -0.192 N 
HETATM    4  C   UNL     1      42.973 -31.266   1.250  1.00  0.00     0.725 A 
HETATM    5  N   UNL     1      43.329 -30.206   0.460  1.00  0.00    -0.084 N 
HETATM    6  N   UNL     1      42.747 -29.063   0.883  1.00  0.00    -0.149 NA
HETATM    7  C   UNL     1      42.103 -29.504   1.970  1.00  0.00     0.275 A 
HETATM    8  N   UNL     1      42.217 -30.846   2.230  1.00  0.00    -0.054 NA
HETATM    9  C   UNL     1      44.113 -30.332  -0.774  1.00  0.00     0.204 C 
HETATM   10  C   UNL     1      44.393 -31.792  -1.118  1.00  0.00     0.062 C 
HETATM   11  H   UNL     1      43.042 -33.284   1.474  1.00  0.00     0.184 HD
ENDROOT
BRANCH  10  12
HETATM   12  C   UNL     1      44.910 -31.994  -2.498  1.00  0.00     0.256 C 
HETATM   13  N   UNL     1      43.935 -32.091  -3.467  1.00  0.00    -0.323 N 
HETATM   14  H   UNL     1      42.973 -32.108  -3.154  1.00  0.00     0.169 HD
HETATM   15  O   UNL     1      46.121 -32.087  -2.654  1.00  0.00    -0.267 OA
BRANCH  13  16
HETATM   16  C   UNL     1      44.134 -32.099  -4.866  1.00  0.00     0.035 A 
HETATM   17  C   UNL     1      44.080 -30.959  -5.666  1.00  0.00     0.032 A 
HETATM   18  C   UNL     1      44.241 -31.055  -7.053  1.00  0.00     0.039 A 
HETATM   19  C   UNL     1      44.461 -32.288  -7.665  1.00  0.00     0.068 A 
HETATM   20  C   UNL     1      44.517 -33.434  -6.873  1.00  0.00     0.039 A 
HETATM   21  C   UNL     1      44.358 -33.337  -5.483  1.00  0.00     0.032 A 
BRANCH  19  22
HETATM   22  O   UNL     1      44.593 -32.236  -9.023  1.00  0.00    -0.356 OA
HETATM   23  C   UNL     1      45.760 -32.825  -9.582  1.00  0.00     0.210 C 
ENDBRANCH  19  22
ENDBRANCH  13  16
ENDBRANCH  10  12
BRANCH   9  24
HETATM   24  C   UNL     1      45.355 -29.441  -0.728  1.00  0.00    -0.006 A 
HETATM   25  C   UNL     1      45.769 -28.586  -1.765  1.00  0.00     0.042 A 
HETATM   26 CL   UNL     1      44.861 -28.357  -3.215  1.00  0.00    -0.084 Cl
HETATM   27  C   UNL     1      46.957 -27.850  -1.654  1.00  0.00     0.024 A 
HETATM   28  C   UNL     1      47.740 -27.937  -0.505  1.00  0.00     0.002 A 
HETATM   29  C   UNL     1      47.334 -28.755   0.543  1.00  0.00     0.001 A 
HETATM   30  C   UNL     1      46.156 -29.497   0.433  1.00  0.00     0.011 A 
ENDBRANCH   9  24
TORSDOF 4
ENDMDL
MODEL 10
REMARK VINA RESULT:      -6.7      9.960     13.740
REMARK  4 active torsions:
REMARK  status: ('A' for Active; 'I' for Inactive)
REMARK    1  A    between atoms: C_9  and  C_10 
REMARK    2  A    between atoms: C_17  and  C_18 
REMARK       I    between atoms: C_18  and  N_19 
REMARK    3  A    between atoms: N_19  and  C_20 
REMARK    4  A    between atoms: C_23  and  O_24 
ROOT
HETATM    1  C   UNL     1      42.075  -6.002   8.207  1.00  0.00     0.070 C 
HETATM    2  C   UNL     1      42.499  -7.044   9.211  1.00  0.00     0.037 C 
HETATM    3  N   UNL     1      43.771  -7.576   9.013  1.00  0.00    -0.192 N 
HETATM    4  C   UNL     1      44.219  -8.676   9.648  1.00  0.00     0.725 A 
HETATM    5  N   UNL     1      43.474  -9.216  10.661  1.00  0.00    -0.084 N 
HETATM    6  N   UNL     1      44.017 -10.368  11.110  1.00  0.00    -0.149 NA
HETATM    7  C   UNL     1      45.123 -10.425  10.359  1.00  0.00     0.275 A 
HETATM    8  N   UNL     1      45.285  -9.409   9.452  1.00  0.00    -0.054 NA
HETATM    9  C   UNL     1      42.172  -8.689  11.090  1.00  0.00     0.204 C 
HETATM   10  C   UNL     1      41.712  -7.535  10.204  1.00  0.00     0.062 C 
HETATM   11  H   UNL     1      44.305  -7.240   8.215  1.00  0.00     0.184 HD
ENDROOT
BRANCH  10  12
HETATM   12  C   UNL     1      40.283  -7.167  10.394  1.00  0.00     0.256 C 
HETATM   13  N   UNL     1      40.082  -5.985  11.074  1.00  0.00    -0.323 N 
HETATM   14  H   UNL     1      40.900  -5.527  11.457  1.00  0.00     0.169 HD
HETATM   15  O   UNL     1      39.427  -7.934   9.974  1.00  0.00    -0.267 OA
BRANCH  13  16
HETATM   16  C   UNL     1      38.855  -5.303  11.237  1.00  0.00     0.035 A 
HETATM   17  C   UNL     1      38.286  -4.483  10.264  1.00  0.00     0.032 A 
HETATM   18  C   UNL     1      37.089  -3.804  10.519  1.00  0.00     0.039 A 
HETATM   19  C   UNL     1      36.439  -3.932  11.745  1.00  0.00     0.068 A 
HETATM   20  C   UNL     1      37.001  -4.750  12.724  1.00  0.00     0.039 A 
HETATM   21  C   UNL     1      38.199  -5.433  12.469  1.00  0.00     0.032 A 
BRANCH  19  22
HETATM   22  O   UNL     1      35.287  -3.207  11.859  1.00  0.00    -0.356 OA
HETATM   23  C   UNL     1      35.316  -2.080  12.724  1.00  0.00     0.210 C 
ENDBRANCH  19  22
ENDBRANCH  13  16
ENDBRANCH  10  12
BRANCH   9  24
HETATM   24  C   UNL     1      42.173  -8.380  12.588  1.00  0.00    -0.006 A 
HETATM   25  C   UNL     1      41.299  -8.956  13.527  1.00  0.00     0.042 A 
HETATM   26 CL   UNL     1      40.153 -10.181  13.119  1.00  0.00    -0.084 Cl
HETATM   27  C   UNL     1      41.336  -8.564  14.872  1.00  0.00     0.024 A 
HETATM   28  C   UNL     1      42.253  -7.611  15.308  1.00  0.00     0.002 A 
HETATM   29  C   UNL     1      43.143  -7.050  14.401  1.00  0.00     0.001 A 
HETATM   30  C   UNL     1      43.104  -7.430  13.058  1.00  0.00     0.011 A 
ENDBRANCH   9  24
TORSDOF 4
ENDMDL
