MODEL 1
REMARK VINA RESULT:      -8.1      0.000      0.000
REMARK  2 active torsions:
REMARK  status: ('A' for Active; 'I' for Inactive)
REMARK    1  A    between atoms: C_11  and  N_12 
REMARK    2  A    between atoms: N_12  and  C_13 
ROOT
HETATM    1  C   UNL     1      43.873 -20.517   5.783  1.00  0.00     0.045 A 
HETATM    2  C   UNL     1      43.469 -19.526   6.667  1.00  0.00     0.117 A 
HETATM    3  F   UNL     1      43.198 -19.847   7.939  1.00  0.00    -0.206 F 
HETATM    4  C   UNL     1      43.348 -18.200   6.259  1.00  0.00     0.054 A 
HETATM    5  C   UNL     1      43.633 -17.829   4.934  1.00  0.00     0.001 A 
HETATM    6  C   UNL     1      43.993 -18.854   4.044  1.00  0.00     0.077 A 
HETATM    7  O   UNL     1      44.251 -18.582   2.726  1.00  0.00    -0.351 OA
HETATM    8  C   UNL     1      43.039 -18.275   2.030  1.00  0.00     0.175 C 
HETATM    9  C   UNL     1      42.776 -16.774   2.025  1.00  0.00     0.029 C 
HETATM   10  C   UNL     1      42.456 -16.200   3.409  1.00  0.00     0.032 C 
HETATM   11  C   UNL     1      43.591 -16.393   4.437  1.00  0.00     0.118 C 
HETATM   12  C   UNL     1      44.141 -20.179   4.461  1.00  0.00     0.040 A 
ENDROOT
BRANCH  11  13
HETATM   13  N   UNL     1      43.382 -15.430   5.519  1.00  0.00    -0.378 N 
HETATM   14  H   UNL     1      44.195 -15.329   6.124  1.00  0.00     0.160 HD
BRANCH  13  15
HETATM   15  C   UNL     1      42.455 -14.390   5.619  1.00  0.00     0.075 A 
HETATM   16  C   UNL     1      41.162 -14.349   5.999  1.00  0.00     0.131 A 
HETATM   17 CL   UNL     1      40.263 -15.735   6.517  1.00  0.00    -0.076 Cl
HETATM   18  C   UNL     1      40.380 -13.074   5.987  1.00  0.00     0.285 A 
HETATM   19  O   UNL     1      39.203 -13.004   6.332  1.00  0.00    -0.265 OA
HETATM   20  N   UNL     1      41.050 -11.959   5.555  1.00  0.00    -0.242 N 
HETATM   21  N   UNL     1      42.350 -11.919   5.178  1.00  0.00    -0.182 NA
HETATM   22  H   UNL     1      40.536 -11.084   5.535  1.00  0.00     0.192 HD
HETATM   23  C   UNL     1      42.985 -13.044   5.219  1.00  0.00     0.169 A 
ENDBRANCH  13  15
ENDBRANCH  11  13
TORSDOF 2
ENDMDL
MODEL 2
REMARK VINA RESULT:      -7.9      3.141      6.103
REMARK  2 active torsions:
REMARK  status: ('A' for Active; 'I' for Inactive)
REMARK    1  A    between atoms: C_11  and  N_12 
REMARK    2  A    between atoms: N_12  and  C_13 
ROOT
HETATM    1  C   UNL     1      41.832 -13.516   6.020  1.00  0.00     0.045 A 
HETATM    2  C   UNL     1      43.033 -14.191   5.847  1.00  0.00     0.117 A 
HETATM    3  F   UNL     1      44.038 -13.977   6.704  1.00  0.00    -0.206 F 
HETATM    4  C   UNL     1      43.209 -15.094   4.801  1.00  0.00     0.054 A 
HETATM    5  C   UNL     1      42.170 -15.347   3.889  1.00  0.00     0.001 A 
HETATM    6  C   UNL     1      40.980 -14.618   4.053  1.00  0.00     0.077 A 
HETATM    7  O   UNL     1      39.933 -14.777   3.185  1.00  0.00    -0.351 OA
HETATM    8  C   UNL     1      40.235 -14.182   1.919  1.00  0.00     0.175 C 
HETATM    9  C   UNL     1      40.848 -15.200   0.967  1.00  0.00     0.029 C 
HETATM   10  C   UNL     1      42.242 -15.678   1.389  1.00  0.00     0.032 C 
HETATM   11  C   UNL     1      42.267 -16.369   2.769  1.00  0.00     0.118 C 
HETATM   12  C   UNL     1      40.795 -13.733   5.118  1.00  0.00     0.040 A 
ENDROOT
BRANCH  11  13
HETATM   13  N   UNL     1      43.490 -17.171   2.844  1.00  0.00    -0.378 N 
HETATM   14  H   UNL     1      44.335 -16.603   2.868  1.00  0.00     0.160 HD
BRANCH  13  15
HETATM   15  C   UNL     1      43.667 -18.489   3.268  1.00  0.00     0.075 A 
HETATM   16  C   UNL     1      43.886 -19.039   4.479  1.00  0.00     0.131 A 
HETATM   17 CL   UNL     1      44.000 -18.129   5.948  1.00  0.00    -0.076 Cl
HETATM   18  C   UNL     1      44.068 -20.514   4.651  1.00  0.00     0.285 A 
HETATM   19  O   UNL     1      44.264 -21.045   5.741  1.00  0.00    -0.265 OA
HETATM   20  N   UNL     1      44.013 -21.266   3.506  1.00  0.00    -0.242 N 
HETATM   21  N   UNL     1      43.777 -20.788   2.261  1.00  0.00    -0.182 NA
HETATM   22  H   UNL     1      44.138 -22.269   3.600  1.00  0.00     0.192 HD
HETATM   23  C   UNL     1      43.614 -19.509   2.169  1.00  0.00     0.169 A 
ENDBRANCH  13  15
ENDBRANCH  11  13
TORSDOF 2
ENDMDL
MODEL 3
REMARK VINA RESULT:      -7.9      3.539      4.372
REMARK  2 active torsions:
REMARK  status: ('A' for Active; 'I' for Inactive)
REMARK    1  A    between atoms: C_11  and  N_12 
REMARK    2  A    between atoms: N_12  and  C_13 
ROOT
HETATM    1  C   UNL     1      41.985 -16.177   7.144  1.00  0.00     0.045 A 
HETATM    2  C   UNL     1      40.896 -15.955   6.314  1.00  0.00     0.117 A 
HETATM    3  F   UNL     1      39.732 -15.558   6.844  1.00  0.00    -0.206 F 
HETATM    4  C   UNL     1      40.991 -16.130   4.935  1.00  0.00     0.054 A 
HETATM    5  C   UNL     1      42.201 -16.538   4.346  1.00  0.00     0.001 A 
HETATM    6  C   UNL     1      43.277 -16.803   5.209  1.00  0.00     0.077 A 
HETATM    7  O   UNL     1      44.479 -17.241   4.719  1.00  0.00    -0.351 OA
HETATM    8  C   UNL     1      44.377 -18.598   4.275  1.00  0.00     0.175 C 
HETATM    9  C   UNL     1      44.036 -18.665   2.792  1.00  0.00     0.029 C 
HETATM   10  C   UNL     1      42.630 -18.156   2.459  1.00  0.00     0.032 C 
HETATM   11  C   UNL     1      42.398 -16.679   2.846  1.00  0.00     0.118 C 
HETATM   12  C   UNL     1      43.188 -16.601   6.588  1.00  0.00     0.040 A 
ENDROOT
BRANCH  11  13
HETATM   13  N   UNL     1      41.249 -16.193   2.080  1.00  0.00    -0.378 N 
HETATM   14  H   UNL     1      40.390 -16.696   2.290  1.00  0.00     0.160 HD
BRANCH  13  15
HETATM   15  C   UNL     1      41.059 -14.964   1.444  1.00  0.00     0.075 A 
HETATM   16  C   UNL     1      41.573 -13.735   1.653  1.00  0.00     0.131 A 
HETATM   17 CL   UNL     1      42.724 -13.368   2.893  1.00  0.00    -0.076 Cl
HETATM   18  C   UNL     1      41.166 -12.562   0.820  1.00  0.00     0.285 A 
HETATM   19  O   UNL     1      41.620 -11.432   0.983  1.00  0.00    -0.265 OA
HETATM   20  N   UNL     1      40.234 -12.807  -0.154  1.00  0.00    -0.242 N 
HETATM   21  N   UNL     1      39.689 -14.014  -0.436  1.00  0.00    -0.182 NA
HETATM   22  H   UNL     1      39.941 -12.023  -0.728  1.00  0.00     0.192 HD
HETATM   23  C   UNL     1      40.083 -14.998   0.304  1.00  0.00     0.169 A 
ENDBRANCH  13  15
ENDBRANCH  11  13
TORSDOF 2
ENDMDL
MODEL 4
REMARK VINA RESULT:      -7.6      3.012      3.699
REMARK  2 active torsions:
REMARK  status: ('A' for Active; 'I' for Inactive)
REMARK    1  A    between atoms: C_11  and  N_12 
REMARK    2  A    between atoms: N_12  and  C_13 
ROOT
HETATM    1  C   UNL     1      44.167 -20.529   4.079  1.00  0.00     0.045 A 
HETATM    2  C   UNL     1      43.875 -19.934   2.859  1.00  0.00     0.117 A 
HETATM    3  F   UNL     1      44.071 -20.620   1.727  1.00  0.00    -0.206 F 
HETATM    4  C   UNL     1      43.372 -18.636   2.791  1.00  0.00     0.054 A 
HETATM    5  C   UNL     1      43.147 -17.892   3.963  1.00  0.00     0.001 A 
HETATM    6  C   UNL     1      43.494 -18.496   5.183  1.00  0.00     0.077 A 
HETATM    7  O   UNL     1      43.342 -17.825   6.368  1.00  0.00    -0.351 OA
HETATM    8  C   UNL     1      44.324 -16.791   6.490  1.00  0.00     0.175 C 
HETATM    9  C   UNL     1      43.793 -15.465   5.963  1.00  0.00     0.029 C 
HETATM   10  C   UNL     1      43.562 -15.452   4.448  1.00  0.00     0.032 C 
HETATM   11  C   UNL     1      42.536 -16.502   3.969  1.00  0.00     0.118 C 
HETATM   12  C   UNL     1      43.973 -19.806   5.251  1.00  0.00     0.040 A 
ENDROOT
BRANCH  11  13
HETATM   13  N   UNL     1      42.061 -16.090   2.647  1.00  0.00    -0.378 N 
HETATM   14  H   UNL     1      42.216 -16.798   1.932  1.00  0.00     0.160 HD
BRANCH  13  15
HETATM   15  C   UNL     1      41.125 -15.114   2.300  1.00  0.00     0.075 A 
HETATM   16  C   UNL     1      40.400 -14.241   3.028  1.00  0.00     0.131 A 
HETATM   17 CL   UNL     1      40.487 -14.115   4.754  1.00  0.00    -0.076 Cl
HETATM   18  C   UNL     1      39.428 -13.301   2.389  1.00  0.00     0.285 A 
HETATM   19  O   UNL     1      38.758 -12.492   3.025  1.00  0.00    -0.265 OA
HETATM   20  N   UNL     1      39.310 -13.391   1.026  1.00  0.00    -0.242 N 
HETATM   21  N   UNL     1      40.016 -14.226   0.228  1.00  0.00    -0.182 NA
HETATM   22  H   UNL     1      38.652 -12.764   0.573  1.00  0.00     0.192 HD
HETATM   23  C   UNL     1      40.852 -15.008   0.829  1.00  0.00     0.169 A 
ENDBRANCH  13  15
ENDBRANCH  11  13
TORSDOF 2
ENDMDL
MODEL 5
REMARK VINA RESULT:      -7.3      2.732      3.723
REMARK  2 active torsions:
REMARK  status: ('A' for Active; 'I' for Inactive)
REMARK    1  A    between atoms: C_11  and  N_12 
REMARK    2  A    between atoms: N_12  and  C_13 
ROOT
HETATM    1  C   UNL     1      43.991 -18.705   3.512  1.00  0.00     0.045 A 
HETATM    2  C   UNL     1      43.287 -17.705   2.856  1.00  0.00     0.117 A 
HETATM    3  F   UNL     1      43.333 -17.633   1.520  1.00  0.00    -0.206 F 
HETATM    4  C   UNL     1      42.525 -16.776   3.562  1.00  0.00     0.054 A 
HETATM    5  C   UNL     1      42.449 -16.829   4.965  1.00  0.00     0.001 A 
HETATM    6  C   UNL     1      43.206 -17.820   5.612  1.00  0.00     0.077 A 
HETATM    7  O   UNL     1      43.218 -17.916   6.978  1.00  0.00    -0.351 OA
HETATM    8  C   UNL     1      43.962 -16.837   7.552  1.00  0.00     0.175 C 
HETATM    9  C   UNL     1      43.053 -15.665   7.896  1.00  0.00     0.029 C 
HETATM   10  C   UNL     1      42.454 -14.969   6.668  1.00  0.00     0.032 C 
HETATM   11  C   UNL     1      41.583 -15.896   5.794  1.00  0.00     0.118 C 
HETATM   12  C   UNL     1      43.948 -18.767   4.901  1.00  0.00     0.040 A 
ENDROOT
BRANCH  11  13
HETATM   13  N   UNL     1      40.719 -15.049   4.969  1.00  0.00    -0.378 N 
HETATM   14  H   UNL     1      39.843 -15.501   4.717  1.00  0.00     0.160 HD
BRANCH  13  15
HETATM   15  C   UNL     1      40.718 -13.661   4.815  1.00  0.00     0.075 A 
HETATM   16  C   UNL     1      41.491 -12.818   4.102  1.00  0.00     0.131 A 
HETATM   17 CL   UNL     1      42.803 -13.330   3.094  1.00  0.00    -0.076 Cl
HETATM   18  C   UNL     1      41.282 -11.338   4.139  1.00  0.00     0.285 A 
HETATM   19  O   UNL     1      41.966 -10.545   3.497  1.00  0.00    -0.265 OA
HETATM   20  N   UNL     1      40.270 -10.892   4.949  1.00  0.00    -0.242 N 
HETATM   21  N   UNL     1      39.441 -11.677   5.677  1.00  0.00    -0.182 NA
HETATM   22  H   UNL     1      40.113  -9.890   4.992  1.00  0.00     0.192 HD
HETATM   23  C   UNL     1      39.656 -12.949   5.600  1.00  0.00     0.169 A 
ENDBRANCH  13  15
ENDBRANCH  11  13
TORSDOF 2
ENDMDL
MODEL 6
REMARK VINA RESULT:      -7.1      3.928      6.633
REMARK  2 active torsions:
REMARK  status: ('A' for Active; 'I' for Inactive)
REMARK    1  A    between atoms: C_11  and  N_12 
REMARK    2  A    between atoms: N_12  and  C_13 
ROOT
HETATM    1  C   UNL     1      40.171 -13.777  -0.768  1.00  0.00     0.045 A 
HETATM    2  C   UNL     1      39.837 -14.908  -0.035  1.00  0.00     0.117 A 
HETATM    3  F   UNL     1      39.169 -15.905  -0.628  1.00  0.00    -0.206 F 
HETATM    4  C   UNL     1      40.193 -15.030   1.307  1.00  0.00     0.054 A 
HETATM    5  C   UNL     1      40.902 -14.005   1.957  1.00  0.00     0.001 A 
HETATM    6  C   UNL     1      41.188 -12.850   1.211  1.00  0.00     0.077 A 
HETATM    7  O   UNL     1      41.843 -11.789   1.780  1.00  0.00    -0.351 OA
HETATM    8  C   UNL     1      40.984 -11.101   2.695  1.00  0.00     0.175 C 
HETATM    9  C   UNL     1      41.151 -11.638   4.111  1.00  0.00     0.029 C 
HETATM   10  C   UNL     1      40.651 -13.076   4.288  1.00  0.00     0.032 C 
HETATM   11  C   UNL     1      41.384 -14.100   3.394  1.00  0.00     0.118 C 
HETATM   12  C   UNL     1      40.855 -12.740  -0.142  1.00  0.00     0.040 A 
ENDROOT
BRANCH  11  13
HETATM   13  N   UNL     1      41.171 -15.428   3.973  1.00  0.00    -0.378 N 
HETATM   14  H   UNL     1      40.274 -15.834   3.714  1.00  0.00     0.160 HD
BRANCH  13  15
HETATM   15  C   UNL     1      42.103 -16.347   4.460  1.00  0.00     0.075 A 
HETATM   16  C   UNL     1      42.989 -17.161   3.853  1.00  0.00     0.131 A 
HETATM   17 CL   UNL     1      43.202 -17.251   2.137  1.00  0.00    -0.076 Cl
HETATM   18  C   UNL     1      43.869 -18.085   4.634  1.00  0.00     0.285 A 
HETATM   19  O   UNL     1      44.690 -18.834   4.110  1.00  0.00    -0.265 OA
HETATM   20  N   UNL     1      43.711 -18.063   5.995  1.00  0.00    -0.242 N 
HETATM   21  N   UNL     1      42.858 -17.261   6.675  1.00  0.00    -0.182 NA
HETATM   22  H   UNL     1      44.296 -18.686   6.543  1.00  0.00     0.192 HD
HETATM   23  C   UNL     1      42.129 -16.472   5.955  1.00  0.00     0.169 A 
ENDBRANCH  13  15
ENDBRANCH  11  13
TORSDOF 2
ENDMDL
MODEL 7
REMARK VINA RESULT:      -7.1      2.958      4.146
REMARK  2 active torsions:
REMARK  status: ('A' for Active; 'I' for Inactive)
REMARK    1  A    between atoms: C_11  and  N_12 
REMARK    2  A    between atoms: N_12  and  C_13 
ROOT
HETATM    1  C   UNL     1      43.573 -17.612   2.649  1.00  0.00     0.045 A 
HETATM    2  C   UNL     1      43.326 -16.292   2.297  1.00  0.00     0.117 A 
HETATM    3  F   UNL     1      43.549 -15.892   1.039  1.00  0.00    -0.206 F 
HETATM    4  C   UNL     1      42.841 -15.375   3.227  1.00  0.00     0.054 A 
HETATM    5  C   UNL     1      42.588 -15.765   4.553  1.00  0.00     0.001 A 
HETATM    6  C   UNL     1      42.890 -17.093   4.901  1.00  0.00     0.077 A 
HETATM    7  O   UNL     1      42.709 -17.543   6.182  1.00  0.00    -0.351 OA
HETATM    8  C   UNL     1      43.699 -16.989   7.054  1.00  0.00     0.175 C 
HETATM    9  C   UNL     1      43.199 -15.706   7.705  1.00  0.00     0.029 C 
HETATM   10  C   UNL     1      43.016 -14.546   6.720  1.00  0.00     0.032 C 
HETATM   11  C   UNL     1      41.993 -14.840   5.601  1.00  0.00     0.118 C 
HETATM   12  C   UNL     1      43.351 -18.017   3.960  1.00  0.00     0.040 A 
ENDROOT
BRANCH  11  13
HETATM   13  N   UNL     1      41.565 -13.557   5.040  1.00  0.00    -0.378 N 
HETATM   14  H   UNL     1      41.298 -13.622   4.060  1.00  0.00     0.160 HD
BRANCH  13  15
HETATM   15  C   UNL     1      41.104 -12.410   5.690  1.00  0.00     0.075 A 
HETATM   16  C   UNL     1      41.698 -11.249   6.029  1.00  0.00     0.131 A 
HETATM   17 CL   UNL     1      43.353 -10.873   5.685  1.00  0.00    -0.076 Cl
HETATM   18  C   UNL     1      40.960 -10.173   6.761  1.00  0.00     0.285 A 
HETATM   19  O   UNL     1      41.472  -9.103   7.079  1.00  0.00    -0.265 OA
HETATM   20  N   UNL     1      39.654 -10.445   7.077  1.00  0.00    -0.242 N 
HETATM   21  N   UNL     1      38.985 -11.577   6.753  1.00  0.00    -0.182 NA
HETATM   22  H   UNL     1      39.137  -9.729   7.577  1.00  0.00     0.192 HD
HETATM   23  C   UNL     1      39.664 -12.469   6.110  1.00  0.00     0.169 A 
ENDBRANCH  13  15
ENDBRANCH  11  13
TORSDOF 2
ENDMDL
MODEL 8
REMARK VINA RESULT:      -7.0      4.143      5.150
REMARK  2 active torsions:
REMARK  status: ('A' for Active; 'I' for Inactive)
REMARK    1  A    between atoms: C_11  and  N_12 
REMARK    2  A    between atoms: N_12  and  C_13 
ROOT
HETATM    1  C   UNL     1      43.589 -17.940   4.472  1.00  0.00     0.045 A 
HETATM    2  C   UNL     1      43.564 -17.677   3.109  1.00  0.00     0.117 A 
HETATM    3  F   UNL     1      43.932 -18.632   2.246  1.00  0.00    -0.206 F 
HETATM    4  C   UNL     1      43.154 -16.438   2.619  1.00  0.00     0.054 A 
HETATM    5  C   UNL     1      42.754 -15.417   3.498  1.00  0.00     0.001 A 
HETATM    6  C   UNL     1      42.832 -15.688   4.875  1.00  0.00     0.077 A 
HETATM    7  O   UNL     1      42.496 -14.734   5.799  1.00  0.00    -0.351 OA
HETATM    8  C   UNL     1      43.492 -13.708   5.847  1.00  0.00     0.175 C 
HETATM    9  C   UNL     1      43.142 -12.559   4.909  1.00  0.00     0.029 C 
HETATM   10  C   UNL     1      43.202 -12.936   3.425  1.00  0.00     0.032 C 
HETATM   11  C   UNL     1      42.228 -14.069   3.034  1.00  0.00     0.118 C 
HETATM   12  C   UNL     1      43.216 -16.939   5.363  1.00  0.00     0.040 A 
ENDROOT
BRANCH  11  13
HETATM   13  N   UNL     1      42.035 -14.010   1.584  1.00  0.00    -0.378 N 
HETATM   14  H   UNL     1      42.680 -14.609   1.073  1.00  0.00     0.160 HD
BRANCH  13  15
HETATM   15  C   UNL     1      40.918 -13.605   0.851  1.00  0.00     0.075 A 
HETATM   16  C   UNL     1      40.147 -12.500   0.891  1.00  0.00     0.131 A 
HETATM   17 CL   UNL     1      40.409 -11.179   1.981  1.00  0.00    -0.076 Cl
HETATM   18  C   UNL     1      38.969 -12.330  -0.013  1.00  0.00     0.285 A 
HETATM   19  O   UNL     1      38.251 -11.333  -0.004  1.00  0.00    -0.265 OA
HETATM   20  N   UNL     1      38.712 -13.368  -0.872  1.00  0.00    -0.242 N 
HETATM   21  N   UNL     1      39.451 -14.497  -0.983  1.00  0.00    -0.182 NA
HETATM   22  H   UNL     1      37.914 -13.274  -1.491  1.00  0.00     0.192 HD
HETATM   23  C   UNL     1      40.466 -14.589  -0.188  1.00  0.00     0.169 A 
ENDBRANCH  13  15
ENDBRANCH  11  13
TORSDOF 2
ENDMDL
MODEL 9
REMARK VINA RESULT:      -7.0      3.148      6.127
REMARK  2 active torsions:
REMARK  status: ('A' for Active; 'I' for Inactive)
REMARK    1  A    between atoms: C_11  and  N_12 
REMARK    2  A    between atoms: N_12  and  C_13 
ROOT
HETATM    1  C   UNL     1      40.579 -11.867   5.164  1.00  0.00     0.045 A 
HETATM    2  C   UNL     1      41.827 -12.367   5.512  1.00  0.00     0.117 A 
HETATM    3  F   UNL     1      42.535 -11.762   6.473  1.00  0.00    -0.206 F 
HETATM    4  C   UNL     1      42.353 -13.494   4.884  1.00  0.00     0.054 A 
HETATM    5  C   UNL     1      41.630 -14.157   3.877  1.00  0.00     0.001 A 
HETATM    6  C   UNL     1      40.392 -13.607   3.508  1.00  0.00     0.077 A 
HETATM    7  O   UNL     1      39.642 -14.170   2.509  1.00  0.00    -0.351 OA
HETATM    8  C   UNL     1      40.239 -13.925   1.232  1.00  0.00     0.175 C 
HETATM    9  C   UNL     1      41.166 -15.065   0.833  1.00  0.00     0.029 C 
HETATM   10  C   UNL     1      42.419 -15.177   1.709  1.00  0.00     0.032 C 
HETATM   11  C   UNL     1      42.109 -15.430   3.201  1.00  0.00     0.118 C 
HETATM   12  C   UNL     1      39.853 -12.493   4.157  1.00  0.00     0.040 A 
ENDROOT
BRANCH  11  13
HETATM   13  N   UNL     1      43.319 -15.975   3.820  1.00  0.00    -0.378 N 
HETATM   14  H   UNL     1      44.045 -15.275   3.956  1.00  0.00     0.160 HD
BRANCH  13  15
HETATM   15  C   UNL     1      43.486 -17.135   4.579  1.00  0.00     0.075 A 
HETATM   16  C   UNL     1      43.834 -18.397   4.258  1.00  0.00     0.131 A 
HETATM   17 CL   UNL     1      44.203 -18.918   2.648  1.00  0.00    -0.076 Cl
HETATM   18  C   UNL     1      43.914 -19.477   5.290  1.00  0.00     0.285 A 
HETATM   19  O   UNL     1      44.232 -20.634   5.029  1.00  0.00    -0.265 OA
HETATM   20  N   UNL     1      43.601 -19.109   6.573  1.00  0.00    -0.242 N 
HETATM   21  N   UNL     1      43.263 -17.861   6.974  1.00  0.00    -0.182 NA
HETATM   22  H   UNL     1      43.645 -19.829   7.288  1.00  0.00     0.192 HD
HETATM   23  C   UNL     1      43.221 -16.962   6.046  1.00  0.00     0.169 A 
ENDBRANCH  13  15
ENDBRANCH  11  13
TORSDOF 2
ENDMDL
MODEL 10
REMARK VINA RESULT:      -6.9      2.864      3.936
REMARK  2 active torsions:
REMARK  status: ('A' for Active; 'I' for Inactive)
REMARK    1  A    between atoms: C_11  and  N_12 
REMARK    2  A    between atoms: N_12  and  C_13 
ROOT
HETATM    1  C   UNL     1      43.693 -17.934   2.815  1.00  0.00     0.045 A 
HETATM    2  C   UNL     1      43.205 -16.767   2.245  1.00  0.00     0.117 A 
HETATM    3  F   UNL     1      43.331 -16.574   0.926  1.00  0.00    -0.206 F 
HETATM    4  C   UNL     1      42.577 -15.793   3.018  1.00  0.00     0.054 A 
HETATM    5  C   UNL     1      42.421 -15.969   4.404  1.00  0.00     0.001 A 
HETATM    6  C   UNL     1      42.964 -17.135   4.968  1.00  0.00     0.077 A 
HETATM    7  O   UNL     1      42.888 -17.365   6.317  1.00  0.00    -0.351 OA
HETATM    8  C   UNL     1      43.776 -16.495   7.026  1.00  0.00     0.175 C 
HETATM    9  C   UNL     1      43.063 -15.221   7.460  1.00  0.00     0.029 C 
HETATM   10  C   UNL     1      42.656 -14.314   6.293  1.00  0.00     0.032 C 
HETATM   11  C   UNL     1      41.685 -14.984   5.297  1.00  0.00     0.118 C 
HETATM   12  C   UNL     1      43.569 -18.123   4.188  1.00  0.00     0.040 A 
ENDROOT
BRANCH  11  13
HETATM   13  N   UNL     1      41.023 -13.922   4.538  1.00  0.00    -0.378 N 
HETATM   14  H   UNL     1      40.041 -14.119   4.355  1.00  0.00     0.160 HD
BRANCH  13  15
HETATM   15  C   UNL     1      41.383 -12.582   4.380  1.00  0.00     0.075 A 
HETATM   16  C   UNL     1      41.030 -11.457   5.032  1.00  0.00     0.131 A 
HETATM   17 CL   UNL     1      39.933 -11.419   6.372  1.00  0.00    -0.076 Cl
HETATM   18  C   UNL     1      41.559 -10.117   4.630  1.00  0.00     0.285 A 
HETATM   19  O   UNL     1      41.260  -9.075   5.207  1.00  0.00    -0.265 OA
HETATM   20  N   UNL     1      42.409 -10.102   3.554  1.00  0.00    -0.242 N 
HETATM   21  N   UNL     1      42.823 -11.191   2.863  1.00  0.00    -0.182 NA
HETATM   22  H   UNL     1      42.776  -9.202   3.262  1.00  0.00     0.192 HD
HETATM   23  C   UNL     1      42.347 -12.325   3.259  1.00  0.00     0.169 A 
ENDBRANCH  13  15
ENDBRANCH  11  13
TORSDOF 2
ENDMDL
