MODEL 1
REMARK VINA RESULT:      -8.4      0.000      0.000
REMARK  4 active torsions:
REMARK  status: ('A' for Active; 'I' for Inactive)
REMARK    1  A    between atoms: C_4  and  C_5 
REMARK    2  A    between atoms: C_6  and  C_7 
REMARK       I    between atoms: C_7  and  N_8 
REMARK    3  A    between atoms: N_8  and  C_9 
REMARK    4  A    between atoms: C_11  and  C_12 
ROOT
HETATM    1  C   UNL     1      41.560 -15.355   3.700  1.00  0.00     0.035 A 
HETATM    2  C   UNL     1      41.939 -16.701   3.747  1.00  0.00     0.042 A 
HETATM    3  C   UNL     1      42.894 -17.229   2.858  1.00  0.00    -0.021 A 
HETATM    4  C   UNL     1      43.433 -16.381   1.882  1.00  0.00     0.012 A 
HETATM    5  C   UNL     1      43.026 -15.049   1.793  1.00  0.00     0.003 A 
HETATM    6  C   UNL     1      42.091 -14.542   2.694  1.00  0.00     0.029 A 
ENDROOT
BRANCH   1   7
HETATM    7  N   UNL     1      40.629 -14.754   4.570  1.00  0.00    -0.324 N 
HETATM    8  C   UNL     1      40.754 -14.098   5.762  1.00  0.00     0.245 C 
HETATM    9  O   UNL     1      39.748 -13.866   6.432  1.00  0.00    -0.268 OA
HETATM   10  H   UNL     1      39.654 -14.833   4.305  1.00  0.00     0.169 HD
BRANCH   8  11
HETATM   11  C   UNL     1      42.077 -13.603   6.193  1.00  0.00     0.077 C 
HETATM   12  C   UNL     1      42.314 -12.284   6.223  1.00  0.00     0.042 C 
BRANCH  12  13
HETATM   13  C   UNL     1      43.568 -11.790   6.672  1.00  0.00     0.075 A 
HETATM   14  O   UNL     1      43.770 -11.213   7.909  1.00  0.00    -0.316 OA
HETATM   15  C   UNL     1      45.068 -10.823   7.998  1.00  0.00     0.050 A 
HETATM   16  C   UNL     1      45.471 -10.170   9.259  1.00  0.00     0.076 C 
HETATM   17  C   UNL     1      45.737 -11.145   6.843  1.00  0.00     0.035 A 
HETATM   18  C   UNL     1      44.780 -11.754   5.995  1.00  0.00     0.039 A 
ENDBRANCH  12  13
ENDBRANCH   8  11
ENDBRANCH   1   7
BRANCH   3  19
HETATM   19  C   UNL     1      43.326 -18.621   2.941  1.00  0.00     0.010 A 
HETATM   20  C   UNL     1      43.189 -19.691   2.020  1.00  0.00     0.152 A 
HETATM   21  N   UNL     1      43.732 -20.831   2.454  1.00  0.00    -0.187 NA
HETATM   22  N   UNL     1      44.224 -20.503   3.658  1.00  0.00    -0.289 N 
HETATM   23  H   UNL     1      44.696 -21.220   4.198  1.00  0.00     0.188 HD
HETATM   24  C   UNL     1      44.013 -19.196   3.992  1.00  0.00     0.123 A 
ENDBRANCH   3  19
TORSDOF 4
ENDMDL
MODEL 2
REMARK VINA RESULT:      -8.0      3.190      7.570
REMARK  4 active torsions:
REMARK  status: ('A' for Active; 'I' for Inactive)
REMARK    1  A    between atoms: C_4  and  C_5 
REMARK    2  A    between atoms: C_6  and  C_7 
REMARK       I    between atoms: C_7  and  N_8 
REMARK    3  A    between atoms: N_8  and  C_9 
REMARK    4  A    between atoms: C_11  and  C_12 
ROOT
HETATM    1  C   UNL     1      42.301 -14.019   4.370  1.00  0.00     0.035 A 
HETATM    2  C   UNL     1      43.143 -13.022   4.876  1.00  0.00     0.042 A 
HETATM    3  C   UNL     1      43.591 -13.044   6.210  1.00  0.00    -0.021 A 
HETATM    4  C   UNL     1      43.136 -14.070   7.047  1.00  0.00     0.012 A 
HETATM    5  C   UNL     1      42.256 -15.042   6.569  1.00  0.00     0.003 A 
HETATM    6  C   UNL     1      41.838 -15.011   5.239  1.00  0.00     0.029 A 
ENDROOT
BRANCH   1   7
HETATM    7  N   UNL     1      41.832 -14.074   3.043  1.00  0.00    -0.324 N 
HETATM    8  C   UNL     1      41.802 -15.066   2.103  1.00  0.00     0.245 C 
HETATM    9  O   UNL     1      41.540 -14.783   0.935  1.00  0.00    -0.268 OA
HETATM   10  H   UNL     1      41.464 -13.209   2.664  1.00  0.00     0.169 HD
BRANCH   8  11
HETATM   11  C   UNL     1      42.001 -16.470   2.513  1.00  0.00     0.077 C 
HETATM   12  C   UNL     1      43.188 -17.060   2.309  1.00  0.00     0.042 C 
BRANCH  12  13
HETATM   13  C   UNL     1      43.409 -18.397   2.732  1.00  0.00     0.075 A 
HETATM   14  O   UNL     1      43.817 -18.744   4.003  1.00  0.00    -0.316 OA
HETATM   15  C   UNL     1      43.963 -20.093   4.058  1.00  0.00     0.050 A 
HETATM   16  C   UNL     1      44.410 -20.654   5.348  1.00  0.00     0.076 C 
HETATM   17  C   UNL     1      43.644 -20.652   2.844  1.00  0.00     0.035 A 
HETATM   18  C   UNL     1      43.298 -19.570   1.997  1.00  0.00     0.039 A 
ENDBRANCH  12  13
ENDBRANCH   8  11
ENDBRANCH   1   7
BRANCH   3  19
HETATM   19  C   UNL     1      44.511 -12.032   6.721  1.00  0.00     0.010 A 
HETATM   20  C   UNL     1      44.540 -11.349   7.964  1.00  0.00     0.152 A 
HETATM   21  N   UNL     1      45.559 -10.491   8.069  1.00  0.00    -0.187 NA
HETATM   22  N   UNL     1      46.194 -10.618   6.895  1.00  0.00    -0.289 N 
HETATM   23  H   UNL     1      47.021 -10.054   6.731  1.00  0.00     0.188 HD
HETATM   24  C   UNL     1      45.613 -11.527   6.058  1.00  0.00     0.123 A 
ENDBRANCH   3  19
TORSDOF 4
ENDMDL
MODEL 3
REMARK VINA RESULT:      -7.7      2.390      3.906
REMARK  4 active torsions:
REMARK  status: ('A' for Active; 'I' for Inactive)
REMARK    1  A    between atoms: C_4  and  C_5 
REMARK    2  A    between atoms: C_6  and  C_7 
REMARK       I    between atoms: C_7  and  N_8 
REMARK    3  A    between atoms: N_8  and  C_9 
REMARK    4  A    between atoms: C_11  and  C_12 
ROOT
HETATM    1  C   UNL     1      43.127 -17.562   4.876  1.00  0.00     0.035 A 
HETATM    2  C   UNL     1      42.305 -16.653   4.198  1.00  0.00     0.042 A 
HETATM    3  C   UNL     1      42.185 -16.674   2.796  1.00  0.00    -0.021 A 
HETATM    4  C   UNL     1      42.948 -17.603   2.078  1.00  0.00     0.012 A 
HETATM    5  C   UNL     1      43.808 -18.482   2.738  1.00  0.00     0.003 A 
HETATM    6  C   UNL     1      43.899 -18.456   4.128  1.00  0.00     0.029 A 
ENDROOT
BRANCH   1   7
HETATM    7  N   UNL     1      43.278 -17.615   6.275  1.00  0.00    -0.324 N 
HETATM    8  C   UNL     1      43.872 -16.786   7.183  1.00  0.00     0.245 C 
HETATM    9  O   UNL     1      44.059 -17.183   8.333  1.00  0.00    -0.268 OA
HETATM   10  H   UNL     1      42.908 -18.441   6.732  1.00  0.00     0.169 HD
BRANCH   8  11
HETATM   11  C   UNL     1      44.207 -15.399   6.800  1.00  0.00     0.077 C 
HETATM   12  C   UNL     1      43.388 -14.397   7.151  1.00  0.00     0.042 C 
BRANCH  12  13
HETATM   13  C   UNL     1      43.714 -13.055   6.826  1.00  0.00     0.075 A 
HETATM   14  O   UNL     1      44.300 -12.169   7.707  1.00  0.00    -0.316 OA
HETATM   15  C   UNL     1      44.442 -10.970   7.086  1.00  0.00     0.050 A 
HETATM   16  C   UNL     1      45.046  -9.885   7.884  1.00  0.00     0.076 C 
HETATM   17  C   UNL     1      43.972 -11.047   5.798  1.00  0.00     0.035 A 
HETATM   18  C   UNL     1      43.502 -12.373   5.634  1.00  0.00     0.039 A 
ENDBRANCH  12  13
ENDBRANCH   8  11
ENDBRANCH   1   7
BRANCH   3  19
HETATM   19  C   UNL     1      41.289 -15.759   2.095  1.00  0.00     0.010 A 
HETATM   20  C   UNL     1      41.553 -14.790   1.093  1.00  0.00     0.152 A 
HETATM   21  N   UNL     1      40.456 -14.147   0.682  1.00  0.00    -0.187 NA
HETATM   22  N   UNL     1      39.479 -14.700   1.415  1.00  0.00    -0.289 N 
HETATM   23  H   UNL     1      38.529 -14.369   1.280  1.00  0.00     0.188 HD
HETATM   24  C   UNL     1      39.922 -15.669   2.268  1.00  0.00     0.123 A 
ENDBRANCH   3  19
TORSDOF 4
ENDMDL
MODEL 4
REMARK VINA RESULT:      -7.6      3.773      5.816
REMARK  4 active torsions:
REMARK  status: ('A' for Active; 'I' for Inactive)
REMARK    1  A    between atoms: C_4  and  C_5 
REMARK    2  A    between atoms: C_6  and  C_7 
REMARK       I    between atoms: C_7  and  N_8 
REMARK    3  A    between atoms: N_8  and  C_9 
REMARK    4  A    between atoms: C_11  and  C_12 
ROOT
HETATM    1  C   UNL     1      44.601 -11.438   6.570  1.00  0.00     0.035 A 
HETATM    2  C   UNL     1      44.603 -12.817   6.808  1.00  0.00     0.042 A 
HETATM    3  C   UNL     1      43.473 -13.612   6.537  1.00  0.00    -0.021 A 
HETATM    4  C   UNL     1      42.317 -12.982   6.060  1.00  0.00     0.012 A 
HETATM    5  C   UNL     1      42.287 -11.601   5.866  1.00  0.00     0.003 A 
HETATM    6  C   UNL     1      43.422 -10.835   6.124  1.00  0.00     0.029 A 
ENDROOT
BRANCH   1   7
HETATM    7  N   UNL     1      45.700 -10.586   6.795  1.00  0.00    -0.324 N 
HETATM    8  C   UNL     1      46.057  -9.776   7.837  1.00  0.00     0.245 C 
HETATM    9  O   UNL     1      46.962  -8.957   7.683  1.00  0.00    -0.268 OA
HETATM   10  H   UNL     1      46.368 -10.509   6.037  1.00  0.00     0.169 HD
BRANCH   8  11
HETATM   11  C   UNL     1      45.411  -9.948   9.154  1.00  0.00     0.077 C 
HETATM   12  C   UNL     1      44.464  -9.084   9.546  1.00  0.00     0.042 C 
BRANCH  12  13
HETATM   13  C   UNL     1      43.805  -9.258  10.792  1.00  0.00     0.075 A 
HETATM   14  O   UNL     1      43.635  -8.251  11.720  1.00  0.00    -0.316 OA
HETATM   15  C   UNL     1      42.998  -8.764  12.804  1.00  0.00     0.050 A 
HETATM   16  C   UNL     1      42.737  -7.828  13.916  1.00  0.00     0.076 C 
HETATM   17  C   UNL     1      42.728 -10.096  12.606  1.00  0.00     0.035 A 
HETATM   18  C   UNL     1      43.249 -10.412  11.327  1.00  0.00     0.039 A 
ENDBRANCH  12  13
ENDBRANCH   8  11
ENDBRANCH   1   7
BRANCH   3  19
HETATM   19  C   UNL     1      43.493 -15.058   6.737  1.00  0.00     0.010 A 
HETATM   20  C   UNL     1      44.117 -16.090   5.989  1.00  0.00     0.152 A 
HETATM   21  N   UNL     1      43.915 -17.306   6.502  1.00  0.00    -0.187 NA
HETATM   22  N   UNL     1      43.162 -17.067   7.585  1.00  0.00    -0.289 N 
HETATM   23  H   UNL     1      42.871 -17.855   8.154  1.00  0.00     0.188 HD
HETATM   24  C   UNL     1      42.887 -15.742   7.773  1.00  0.00     0.123 A 
ENDBRANCH   3  19
TORSDOF 4
ENDMDL
MODEL 5
REMARK VINA RESULT:      -7.6      1.552      2.102
REMARK  4 active torsions:
REMARK  status: ('A' for Active; 'I' for Inactive)
REMARK    1  A    between atoms: C_4  and  C_5 
REMARK    2  A    between atoms: C_6  and  C_7 
REMARK       I    between atoms: C_7  and  N_8 
REMARK    3  A    between atoms: N_8  and  C_9 
REMARK    4  A    between atoms: C_11  and  C_12 
ROOT
HETATM    1  C   UNL     1      42.821 -15.436   4.460  1.00  0.00     0.035 A 
HETATM    2  C   UNL     1      42.917 -16.611   3.705  1.00  0.00     0.042 A 
HETATM    3  C   UNL     1      43.614 -17.737   4.183  1.00  0.00    -0.021 A 
HETATM    4  C   UNL     1      44.257 -17.643   5.423  1.00  0.00     0.012 A 
HETATM    5  C   UNL     1      44.210 -16.460   6.162  1.00  0.00     0.003 A 
HETATM    6  C   UNL     1      43.500 -15.363   5.679  1.00  0.00     0.029 A 
ENDROOT
BRANCH   1   7
HETATM    7  N   UNL     1      42.122 -14.281   4.057  1.00  0.00    -0.324 N 
HETATM    8  C   UNL     1      42.169 -12.974   4.454  1.00  0.00     0.245 C 
HETATM    9  O   UNL     1      41.283 -12.201   4.091  1.00  0.00    -0.268 OA
HETATM   10  H   UNL     1      41.408 -14.416   3.351  1.00  0.00     0.169 HD
BRANCH   8  11
HETATM   11  C   UNL     1      43.320 -12.487   5.240  1.00  0.00     0.077 C 
HETATM   12  C   UNL     1      43.121 -11.609   6.233  1.00  0.00     0.042 C 
BRANCH  12  13
HETATM   13  C   UNL     1      44.211 -11.160   7.025  1.00  0.00     0.075 A 
HETATM   14  O   UNL     1      44.081 -10.677   8.311  1.00  0.00    -0.316 OA
HETATM   15  C   UNL     1      45.309 -10.307   8.760  1.00  0.00     0.050 A 
HETATM   16  C   UNL     1      45.366  -9.751  10.126  1.00  0.00     0.076 C 
HETATM   17  C   UNL     1      46.257 -10.550   7.797  1.00  0.00     0.035 A 
HETATM   18  C   UNL     1      45.557 -11.087   6.689  1.00  0.00     0.039 A 
ENDBRANCH  12  13
ENDBRANCH   8  11
ENDBRANCH   1   7
BRANCH   3  19
HETATM   19  C   UNL     1      43.671 -18.979   3.417  1.00  0.00     0.010 A 
HETATM   20  C   UNL     1      43.987 -20.302   3.820  1.00  0.00     0.152 A 
HETATM   21  N   UNL     1      43.918 -21.186   2.821  1.00  0.00    -0.187 NA
HETATM   22  N   UNL     1      43.554 -20.438   1.768  1.00  0.00    -0.289 N 
HETATM   23  H   UNL     1      43.434 -20.895   0.871  1.00  0.00     0.188 HD
HETATM   24  C   UNL     1      43.389 -19.117   2.073  1.00  0.00     0.123 A 
ENDBRANCH   3  19
TORSDOF 4
ENDMDL
MODEL 6
REMARK VINA RESULT:      -7.5      2.495      4.189
REMARK  4 active torsions:
REMARK  status: ('A' for Active; 'I' for Inactive)
REMARK    1  A    between atoms: C_4  and  C_5 
REMARK    2  A    between atoms: C_6  and  C_7 
REMARK       I    between atoms: C_7  and  N_8 
REMARK    3  A    between atoms: N_8  and  C_9 
REMARK    4  A    between atoms: C_11  and  C_12 
ROOT
HETATM    1  C   UNL     1      40.936 -15.962   3.735  1.00  0.00     0.035 A 
HETATM    2  C   UNL     1      40.480 -15.145   2.694  1.00  0.00     0.042 A 
HETATM    3  C   UNL     1      41.146 -15.090   1.455  1.00  0.00    -0.021 A 
HETATM    4  C   UNL     1      42.316 -15.844   1.296  1.00  0.00     0.012 A 
HETATM    5  C   UNL     1      42.809 -16.623   2.343  1.00  0.00     0.003 A 
HETATM    6  C   UNL     1      42.124 -16.677   3.556  1.00  0.00     0.029 A 
ENDROOT
BRANCH   1   7
HETATM    7  N   UNL     1      40.309 -16.084   4.990  1.00  0.00    -0.324 N 
HETATM    8  C   UNL     1      40.518 -15.488   6.201  1.00  0.00     0.245 C 
HETATM    9  O   UNL     1      39.967 -15.945   7.203  1.00  0.00    -0.268 OA
HETATM   10  H   UNL     1      39.566 -16.771   5.052  1.00  0.00     0.169 HD
BRANCH   8  11
HETATM   11  C   UNL     1      41.331 -14.258   6.282  1.00  0.00     0.077 C 
HETATM   12  C   UNL     1      42.658 -14.349   6.449  1.00  0.00     0.042 C 
BRANCH  12  13
HETATM   13  C   UNL     1      43.460 -13.178   6.489  1.00  0.00     0.075 A 
HETATM   14  O   UNL     1      43.905 -12.590   7.655  1.00  0.00    -0.316 OA
HETATM   15  C   UNL     1      44.614 -11.476   7.335  1.00  0.00     0.050 A 
HETATM   16  C   UNL     1      45.165 -10.702   8.465  1.00  0.00     0.076 C 
HETATM   17  C   UNL     1      44.658 -11.321   5.971  1.00  0.00     0.035 A 
HETATM   18  C   UNL     1      43.917 -12.401   5.432  1.00  0.00     0.039 A 
ENDBRANCH  12  13
ENDBRANCH   8  11
ENDBRANCH   1   7
BRANCH   3  19
HETATM   19  C   UNL     1      40.640 -14.277   0.353  1.00  0.00     0.010 A 
HETATM   20  C   UNL     1      40.929 -12.940  -0.021  1.00  0.00     0.152 A 
HETATM   21  N   UNL     1      40.268 -12.544  -1.112  1.00  0.00    -0.187 NA
HETATM   22  N   UNL     1      39.550 -13.625  -1.449  1.00  0.00    -0.289 N 
HETATM   23  H   UNL     1      38.951 -13.571  -2.266  1.00  0.00     0.188 HD
HETATM   24  C   UNL     1      39.740 -14.687  -0.611  1.00  0.00     0.123 A 
ENDBRANCH   3  19
TORSDOF 4
ENDMDL
MODEL 7
REMARK VINA RESULT:      -7.3     14.902     16.494
REMARK  4 active torsions:
REMARK  status: ('A' for Active; 'I' for Inactive)
REMARK    1  A    between atoms: C_4  and  C_5 
REMARK    2  A    between atoms: C_6  and  C_7 
REMARK       I    between atoms: C_7  and  N_8 
REMARK    3  A    between atoms: N_8  and  C_9 
REMARK    4  A    between atoms: C_11  and  C_12 
ROOT
HETATM    1  C   UNL     1      44.272 -28.931  -0.943  1.00  0.00     0.035 A 
HETATM    2  C   UNL     1      43.966 -29.854  -1.949  1.00  0.00     0.042 A 
HETATM    3  C   UNL     1      44.577 -29.792  -3.216  1.00  0.00    -0.021 A 
HETATM    4  C   UNL     1      45.476 -28.748  -3.468  1.00  0.00     0.012 A 
HETATM    5  C   UNL     1      45.753 -27.793  -2.490  1.00  0.00     0.003 A 
HETATM    6  C   UNL     1      45.150 -27.883  -1.236  1.00  0.00     0.029 A 
ENDROOT
BRANCH   1   7
HETATM    7  N   UNL     1      43.718 -28.946   0.353  1.00  0.00    -0.324 N 
HETATM    8  C   UNL     1      44.156 -29.436   1.551  1.00  0.00     0.245 C 
HETATM    9  O   UNL     1      43.370 -29.517   2.494  1.00  0.00    -0.268 OA
HETATM   10  H   UNL     1      42.791 -28.547   0.446  1.00  0.00     0.169 HD
BRANCH   8  11
HETATM   11  C   UNL     1      45.581 -29.784   1.724  1.00  0.00     0.077 C 
HETATM   12  C   UNL     1      46.412 -28.907   2.305  1.00  0.00     0.042 C 
BRANCH  12  13
HETATM   13  C   UNL     1      47.776 -29.240   2.515  1.00  0.00     0.075 A 
HETATM   14  O   UNL     1      48.564 -29.883   1.582  1.00  0.00    -0.316 OA
HETATM   15  C   UNL     1      49.798 -30.076   2.117  1.00  0.00     0.050 A 
HETATM   16  C   UNL     1      50.783 -30.765   1.261  1.00  0.00     0.076 C 
HETATM   17  C   UNL     1      49.847 -29.558   3.388  1.00  0.00     0.035 A 
HETATM   18  C   UNL     1      48.557 -29.033   3.645  1.00  0.00     0.039 A 
ENDBRANCH  12  13
ENDBRANCH   8  11
ENDBRANCH   1   7
BRANCH   3  19
HETATM   19  C   UNL     1      44.294 -30.785  -4.248  1.00  0.00     0.010 A 
HETATM   20  C   UNL     1      43.958 -30.629  -5.617  1.00  0.00     0.152 A 
HETATM   21  N   UNL     1      43.783 -31.791  -6.251  1.00  0.00    -0.187 NA
HETATM   22  N   UNL     1      44.007 -32.704  -5.295  1.00  0.00    -0.289 N 
HETATM   23  H   UNL     1      43.932 -33.686  -5.538  1.00  0.00     0.188 HD
HETATM   24  C   UNL     1      44.321 -32.156  -4.084  1.00  0.00     0.123 A 
ENDBRANCH   3  19
TORSDOF 4
ENDMDL
MODEL 8
REMARK VINA RESULT:      -7.3      2.650      3.384
REMARK  4 active torsions:
REMARK  status: ('A' for Active; 'I' for Inactive)
REMARK    1  A    between atoms: C_4  and  C_5 
REMARK    2  A    between atoms: C_6  and  C_7 
REMARK       I    between atoms: C_7  and  N_8 
REMARK    3  A    between atoms: N_8  and  C_9 
REMARK    4  A    between atoms: C_11  and  C_12 
ROOT
HETATM    1  C   UNL     1      42.880 -15.181   2.256  1.00  0.00     0.035 A 
HETATM    2  C   UNL     1      42.958 -15.385   3.638  1.00  0.00     0.042 A 
HETATM    3  C   UNL     1      43.303 -16.638   4.179  1.00  0.00    -0.021 A 
HETATM    4  C   UNL     1      43.526 -17.703   3.297  1.00  0.00     0.012 A 
HETATM    5  C   UNL     1      43.402 -17.524   1.918  1.00  0.00     0.003 A 
HETATM    6  C   UNL     1      43.076 -16.271   1.404  1.00  0.00     0.029 A 
ENDROOT
BRANCH   1   7
HETATM    7  N   UNL     1      42.564 -13.951   1.645  1.00  0.00    -0.324 N 
HETATM    8  C   UNL     1      42.265 -12.712   2.138  1.00  0.00     0.245 C 
HETATM    9  O   UNL     1      41.802 -11.857   1.383  1.00  0.00    -0.268 OA
HETATM   10  H   UNL     1      42.507 -13.958   0.633  1.00  0.00     0.169 HD
BRANCH   8  11
HETATM   11  C   UNL     1      42.575 -12.388   3.544  1.00  0.00     0.077 C 
HETATM   12  C   UNL     1      43.774 -11.876   3.859  1.00  0.00     0.042 C 
BRANCH  12  13
HETATM   13  C   UNL     1      44.075 -11.522   5.200  1.00  0.00     0.075 A 
HETATM   14  O   UNL     1      45.322 -11.117   5.628  1.00  0.00    -0.316 OA
HETATM   15  C   UNL     1      45.268 -10.890   6.966  1.00  0.00     0.050 A 
HETATM   16  C   UNL     1      46.524 -10.455   7.609  1.00  0.00     0.076 C 
HETATM   17  C   UNL     1      43.998 -11.124   7.434  1.00  0.00     0.035 A 
HETATM   18  C   UNL     1      43.240 -11.534   6.310  1.00  0.00     0.039 A 
ENDBRANCH  12  13
ENDBRANCH   8  11
ENDBRANCH   1   7
BRANCH   3  19
HETATM   19  C   UNL     1      43.435 -16.836   5.619  1.00  0.00     0.010 A 
HETATM   20  C   UNL     1      43.733 -15.918   6.658  1.00  0.00     0.152 A 
HETATM   21  N   UNL     1      43.754 -16.482   7.869  1.00  0.00    -0.187 NA
HETATM   22  N   UNL     1      43.466 -17.767   7.618  1.00  0.00    -0.289 N 
HETATM   23  H   UNL     1      43.422 -18.413   8.399  1.00  0.00     0.188 HD
HETATM   24  C   UNL     1      43.261 -18.029   6.293  1.00  0.00     0.123 A 
ENDBRANCH   3  19
TORSDOF 4
ENDMDL
MODEL 9
REMARK VINA RESULT:      -7.1      4.498      7.194
REMARK  4 active torsions:
REMARK  status: ('A' for Active; 'I' for Inactive)
REMARK    1  A    between atoms: C_4  and  C_5 
REMARK    2  A    between atoms: C_6  and  C_7 
REMARK       I    between atoms: C_7  and  N_8 
REMARK    3  A    between atoms: N_8  and  C_9 
REMARK    4  A    between atoms: C_11  and  C_12 
ROOT
HETATM    1  C   UNL     1      40.843 -11.279   1.594  1.00  0.00     0.035 A 
HETATM    2  C   UNL     1      40.604 -11.922   0.374  1.00  0.00     0.042 A 
HETATM    3  C   UNL     1      39.295 -12.156  -0.090  1.00  0.00    -0.021 A 
HETATM    4  C   UNL     1      38.223 -11.768   0.723  1.00  0.00     0.012 A 
HETATM    5  C   UNL     1      38.449 -11.171   1.963  1.00  0.00     0.003 A 
HETATM    6  C   UNL     1      39.752 -10.933   2.396  1.00  0.00     0.029 A 
ENDROOT
BRANCH   1   7
HETATM    7  N   UNL     1      42.122 -10.992   2.110  1.00  0.00    -0.324 N 
HETATM    8  C   UNL     1      42.969 -11.670   2.941  1.00  0.00     0.245 C 
HETATM    9  O   UNL     1      43.942 -11.088   3.418  1.00  0.00    -0.268 OA
HETATM   10  H   UNL     1      42.512 -10.090   1.859  1.00  0.00     0.169 HD
BRANCH   8  11
HETATM   11  C   UNL     1      42.755 -13.110   3.189  1.00  0.00     0.077 C 
HETATM   12  C   UNL     1      43.333 -14.015   2.386  1.00  0.00     0.042 C 
BRANCH  12  13
HETATM   13  C   UNL     1      43.171 -15.404   2.633  1.00  0.00     0.075 A 
HETATM   14  O   UNL     1      43.633 -16.043   3.765  1.00  0.00    -0.316 OA
HETATM   15  C   UNL     1      43.340 -17.366   3.665  1.00  0.00     0.050 A 
HETATM   16  C   UNL     1      43.772 -18.220   4.789  1.00  0.00     0.076 C 
HETATM   17  C   UNL     1      42.676 -17.614   2.489  1.00  0.00     0.035 A 
HETATM   18  C   UNL     1      42.574 -16.365   1.828  1.00  0.00     0.039 A 
ENDBRANCH  12  13
ENDBRANCH   8  11
ENDBRANCH   1   7
BRANCH   3  19
HETATM   19  C   UNL     1      39.047 -12.782  -1.386  1.00  0.00     0.010 A 
HETATM   20  C   UNL     1      39.864 -13.629  -2.178  1.00  0.00     0.152 A 
HETATM   21  N   UNL     1      39.276 -14.015  -3.313  1.00  0.00    -0.187 NA
HETATM   22  N   UNL     1      38.075 -13.421  -3.259  1.00  0.00    -0.289 N 
HETATM   23  H   UNL     1      37.430 -13.566  -4.028  1.00  0.00     0.188 HD
HETATM   24  C   UNL     1      37.887 -12.679  -2.128  1.00  0.00     0.123 A 
ENDBRANCH   3  19
TORSDOF 4
ENDMDL
MODEL 10
REMARK VINA RESULT:      -7.1      2.049      2.736
REMARK  4 active torsions:
REMARK  status: ('A' for Active; 'I' for Inactive)
REMARK    1  A    between atoms: C_4  and  C_5 
REMARK    2  A    between atoms: C_6  and  C_7 
REMARK       I    between atoms: C_7  and  N_8 
REMARK    3  A    between atoms: N_8  and  C_9 
REMARK    4  A    between atoms: C_11  and  C_12 
ROOT
HETATM    1  C   UNL     1      41.956 -13.993   3.184  1.00  0.00     0.035 A 
HETATM    2  C   UNL     1      42.735 -15.155   3.142  1.00  0.00     0.042 A 
HETATM    3  C   UNL     1      42.425 -16.277   3.933  1.00  0.00    -0.021 A 
HETATM    4  C   UNL     1      41.335 -16.193   4.808  1.00  0.00     0.012 A 
HETATM    5  C   UNL     1      40.580 -15.022   4.895  1.00  0.00     0.003 A 
HETATM    6  C   UNL     1      40.894 -13.928   4.091  1.00  0.00     0.029 A 
ENDROOT
BRANCH   1   7
HETATM    7  N   UNL     1      42.193 -12.842   2.406  1.00  0.00    -0.324 N 
HETATM    8  C   UNL     1      42.425 -11.533   2.721  1.00  0.00     0.245 C 
HETATM    9  O   UNL     1      42.376 -10.681   1.834  1.00  0.00    -0.268 OA
HETATM   10  H   UNL     1      42.160 -12.969   1.401  1.00  0.00     0.169 HD
BRANCH   8  11
HETATM   11  C   UNL     1      42.812 -11.167   4.098  1.00  0.00     0.077 C 
HETATM   12  C   UNL     1      43.916 -11.701   4.641  1.00  0.00     0.042 C 
BRANCH  12  13
HETATM   13  C   UNL     1      44.325 -11.330   5.949  1.00  0.00     0.075 A 
HETATM   14  O   UNL     1      45.358 -10.455   6.214  1.00  0.00    -0.316 OA
HETATM   15  C   UNL     1      45.503 -10.350   7.560  1.00  0.00     0.050 A 
HETATM   16  C   UNL     1      46.577  -9.458   8.037  1.00  0.00     0.076 C 
HETATM   17  C   UNL     1      44.570 -11.133   8.197  1.00  0.00     0.035 A 
HETATM   18  C   UNL     1      43.825 -11.763   7.171  1.00  0.00     0.039 A 
ENDBRANCH  12  13
ENDBRANCH   8  11
ENDBRANCH   1   7
BRANCH   3  19
HETATM   19  C   UNL     1      43.208 -17.507   3.851  1.00  0.00     0.010 A 
HETATM   20  C   UNL     1      43.901 -18.233   4.853  1.00  0.00     0.152 A 
HETATM   21  N   UNL     1      44.499 -19.333   4.387  1.00  0.00    -0.187 NA
HETATM   22  N   UNL     1      44.192 -19.324   3.081  1.00  0.00    -0.289 N 
HETATM   23  H   UNL     1      44.541 -20.077   2.499  1.00  0.00     0.188 HD
HETATM   24  C   UNL     1      43.420 -18.259   2.713  1.00  0.00     0.123 A 
ENDBRANCH   3  19
TORSDOF 4
ENDMDL
