MODEL 1
REMARK VINA RESULT:     -10.0      0.000      0.000
REMARK  9 active torsions:
REMARK  status: ('A' for Active; 'I' for Inactive)
REMARK    1  A    between atoms: C_4  and  S_5 
REMARK    2  A    between atoms: S_5  and  C_6 
REMARK    3  A    between atoms: C_6  and  C_7 
REMARK       I    between atoms: C_7  and  N_8 
REMARK    4  A    between atoms: N_8  and  C_9 
REMARK    5  A    between atoms: C_9  and  C_10 
REMARK    6  A    between atoms: C_20  and  C_21 
REMARK    7  A    between atoms: C_26  and  C_27 
REMARK       I    between atoms: C_27  and  N_28 
REMARK    8  A    between atoms: N_28  and  C_29 
REMARK    9  A    between atoms: C_31  and  C_32 
ROOT
HETATM    1  C   UNL     1      44.025 -13.806   6.729  1.00  0.00     0.069 C 
HETATM    2  C   UNL     1      42.864 -13.019   6.168  1.00  0.00     0.019 C 
HETATM    3  N   UNL     1      42.779 -11.697   6.593  1.00  0.00    -0.353 N 
HETATM    4  C   UNL     1      41.647 -10.904   6.451  1.00  0.00     0.087 C 
HETATM    5  C   UNL     1      40.660 -11.331   5.631  1.00  0.00     0.057 C 
HETATM    6  C   UNL     1      39.303 -10.657   5.509  1.00  0.00     0.019 C 
HETATM    7  N   UNL     1      38.179 -10.097   5.409  1.00  0.00    -0.096 N 
HETATM    8  C   UNL     1      40.847 -12.589   4.779  1.00  0.00     0.129 C 
HETATM    9  C   UNL     1      41.938 -13.512   5.312  1.00  0.00     0.048 C 
HETATM   10  H   UNL     1      43.342 -11.472   7.412  1.00  0.00     0.166 HD
ENDROOT
BRANCH   4  11
HETATM   11  S   UNL     1      41.501  -9.387   7.328  1.00  0.00    -0.102 SA
BRANCH  11  12
HETATM   12  C   UNL     1      43.146  -9.344   8.107  1.00  0.00     0.183 C 
BRANCH  12  13
HETATM   13  C   UNL     1      43.260 -10.063   9.438  1.00  0.00     0.227 C 
HETATM   14  N   UNL     1      42.492  -9.616  10.482  1.00  0.00    -0.356 N 
HETATM   15  H   UNL     1      41.987  -8.742  10.380  1.00  0.00     0.162 HD
HETATM   16  O   UNL     1      44.051 -10.999   9.562  1.00  0.00    -0.273 OA
BRANCH  14  17
HETATM   17  C   UNL     1      42.662 -10.175  11.806  1.00  0.00     0.161 C 
BRANCH  17  18
HETATM   18  C   UNL     1      42.525  -9.152  12.901  1.00  0.00    -0.041 A 
HETATM   19  C   UNL     1      41.635  -9.341  13.969  1.00  0.00     0.009 A 
HETATM   20  C   UNL     1      41.567  -8.414  15.011  1.00  0.00     0.001 A 
HETATM   21  C   UNL     1      42.398  -7.296  15.007  1.00  0.00     0.000 A 
HETATM   22  C   UNL     1      43.298  -7.103  13.962  1.00  0.00     0.001 A 
HETATM   23  C   UNL     1      43.364  -8.026  12.916  1.00  0.00     0.009 A 
ENDBRANCH  17  18
ENDBRANCH  14  17
ENDBRANCH  12  13
ENDBRANCH  11  12
ENDBRANCH   4  11
BRANCH   8  24
HETATM   24  C   UNL     1      41.084 -12.215   3.334  1.00  0.00     0.066 A 
HETATM   25  O   UNL     1      40.503 -13.018   2.396  1.00  0.00    -0.326 OA
HETATM   26  C   UNL     1      40.848 -12.520   1.180  1.00  0.00     0.142 A 
HETATM   27  C   UNL     1      41.665 -11.424   1.323  1.00  0.00     0.027 A 
HETATM   28  C   UNL     1      41.823 -11.226   2.714  1.00  0.00     0.035 A 
ENDBRANCH   8  24
BRANCH   9  29
HETATM   29  C   UNL     1      41.885 -14.983   4.995  1.00  0.00     0.255 C 
HETATM   30  N   UNL     1      42.958 -15.475   4.284  1.00  0.00    -0.323 N 
HETATM   31  H   UNL     1      43.688 -14.832   4.002  1.00  0.00     0.169 HD
HETATM   32  O   UNL     1      40.898 -15.636   5.324  1.00  0.00    -0.268 OA
BRANCH  30  33
HETATM   33  C   UNL     1      43.181 -16.809   3.876  1.00  0.00     0.035 A 
HETATM   34  C   UNL     1      43.453 -17.864   4.750  1.00  0.00     0.045 A 
HETATM   35  C   UNL     1      43.684 -19.164   4.263  1.00  0.00     0.050 A 
HETATM   36  C   UNL     1      43.629 -19.396   2.881  1.00  0.00     0.016 A 
HETATM   37  C   UNL     1      43.355 -18.351   2.003  1.00  0.00     0.003 A 
HETATM   38  C   UNL     1      43.139 -17.064   2.499  1.00  0.00     0.029 A 
BRANCH  35  39
HETATM   39  C   UNL     1      44.015 -20.299   5.201  1.00  0.00     0.417 C 
HETATM   40  F   UNL     1      43.739 -20.039   6.508  1.00  0.00    -0.166 F 
HETATM   41  F   UNL     1      43.335 -21.440   4.897  1.00  0.00    -0.166 F 
HETATM   42  F   UNL     1      45.335 -20.633   5.158  1.00  0.00    -0.166 F 
ENDBRANCH  35  39
ENDBRANCH  30  33
ENDBRANCH   9  29
TORSDOF 9
ENDMDL
MODEL 2
REMARK VINA RESULT:      -9.9      4.412      5.550
REMARK  9 active torsions:
REMARK  status: ('A' for Active; 'I' for Inactive)
REMARK    1  A    between atoms: C_4  and  S_5 
REMARK    2  A    between atoms: S_5  and  C_6 
REMARK    3  A    between atoms: C_6  and  C_7 
REMARK       I    between atoms: C_7  and  N_8 
REMARK    4  A    between atoms: N_8  and  C_9 
REMARK    5  A    between atoms: C_9  and  C_10 
REMARK    6  A    between atoms: C_20  and  C_21 
REMARK    7  A    between atoms: C_26  and  C_27 
REMARK       I    between atoms: C_27  and  N_28 
REMARK    8  A    between atoms: N_28  and  C_29 
REMARK    9  A    between atoms: C_31  and  C_32 
ROOT
HETATM    1  C   UNL     1      43.396 -12.569   2.978  1.00  0.00     0.069 C 
HETATM    2  C   UNL     1      42.076 -12.363   2.272  1.00  0.00     0.019 C 
HETATM    3  N   UNL     1      41.791 -11.050   1.912  1.00  0.00    -0.353 N 
HETATM    4  C   UNL     1      40.529 -10.600   1.542  1.00  0.00     0.087 C 
HETATM    5  C   UNL     1      39.576 -11.516   1.259  1.00  0.00     0.057 C 
HETATM    6  C   UNL     1      38.116 -11.175   1.006  1.00  0.00     0.019 C 
HETATM    7  N   UNL     1      36.906 -10.891   0.797  1.00  0.00    -0.096 N 
HETATM    8  C   UNL     1      39.919 -13.007   1.217  1.00  0.00     0.129 C 
HETATM    9  C   UNL     1      41.191 -13.348   1.986  1.00  0.00     0.048 C 
HETATM   10  H   UNL     1      42.363 -10.344   2.372  1.00  0.00     0.166 HD
ENDROOT
BRANCH   4  11
HETATM   11  S   UNL     1      40.182  -8.878   1.456  1.00  0.00    -0.102 SA
BRANCH  11  12
HETATM   12  C   UNL     1      40.266  -8.478   3.231  1.00  0.00     0.183 C 
BRANCH  12  13
HETATM   13  C   UNL     1      39.566  -9.457   4.156  1.00  0.00     0.227 C 
HETATM   14  N   UNL     1      40.340 -10.273   4.940  1.00  0.00    -0.356 N 
HETATM   15  H   UNL     1      41.341 -10.304   4.777  1.00  0.00     0.162 HD
HETATM   16  O   UNL     1      38.335  -9.520   4.162  1.00  0.00    -0.273 OA
BRANCH  14  17
HETATM   17  C   UNL     1      39.729 -11.316   5.735  1.00  0.00     0.161 C 
BRANCH  17  18
HETATM   18  C   UNL     1      40.645 -12.485   5.981  1.00  0.00    -0.041 A 
HETATM   19  C   UNL     1      42.017 -12.301   6.205  1.00  0.00     0.009 A 
HETATM   20  C   UNL     1      42.843 -13.389   6.497  1.00  0.00     0.001 A 
HETATM   21  C   UNL     1      42.303 -14.671   6.583  1.00  0.00     0.000 A 
HETATM   22  C   UNL     1      40.940 -14.867   6.379  1.00  0.00     0.001 A 
HETATM   23  C   UNL     1      40.114 -13.781   6.082  1.00  0.00     0.009 A 
ENDBRANCH  17  18
ENDBRANCH  14  17
ENDBRANCH  12  13
ENDBRANCH  11  12
ENDBRANCH   4  11
BRANCH   8  24
HETATM   24  C   UNL     1      39.979 -13.493  -0.213  1.00  0.00     0.066 A 
HETATM   25  O   UNL     1      40.558 -12.649  -1.117  1.00  0.00    -0.326 OA
HETATM   26  C   UNL     1      40.498 -13.264  -2.326  1.00  0.00     0.142 A 
HETATM   27  C   UNL     1      39.864 -14.479  -2.218  1.00  0.00     0.027 A 
HETATM   28  C   UNL     1      39.524 -14.628  -0.854  1.00  0.00     0.035 A 
ENDBRANCH   8  24
BRANCH   9  29
HETATM   29  C   UNL     1      41.375 -14.736   2.539  1.00  0.00     0.255 C 
HETATM   30  N   UNL     1      42.672 -15.203   2.548  1.00  0.00    -0.323 N 
HETATM   31  H   UNL     1      43.403 -14.611   2.171  1.00  0.00     0.169 HD
HETATM   32  O   UNL     1      40.392 -15.382   2.887  1.00  0.00    -0.268 OA
BRANCH  30  33
HETATM   33  C   UNL     1      43.135 -16.448   3.029  1.00  0.00     0.035 A 
HETATM   34  C   UNL     1      42.999 -17.656   2.340  1.00  0.00     0.045 A 
HETATM   35  C   UNL     1      43.468 -18.860   2.897  1.00  0.00     0.050 A 
HETATM   36  C   UNL     1      44.087 -18.836   4.155  1.00  0.00     0.016 A 
HETATM   37  C   UNL     1      44.229 -17.636   4.846  1.00  0.00     0.003 A 
HETATM   38  C   UNL     1      43.748 -16.451   4.288  1.00  0.00     0.029 A 
BRANCH  35  39
HETATM   39  C   UNL     1      43.292 -20.173   2.174  1.00  0.00     0.417 C 
HETATM   40  F   UNL     1      44.052 -20.296   1.051  1.00  0.00    -0.166 F 
HETATM   41  F   UNL     1      43.606 -21.244   2.956  1.00  0.00    -0.166 F 
HETATM   42  F   UNL     1      42.005 -20.371   1.775  1.00  0.00    -0.166 F 
ENDBRANCH  35  39
ENDBRANCH  30  33
ENDBRANCH   9  29
TORSDOF 9
ENDMDL
MODEL 3
REMARK VINA RESULT:      -9.5      4.300      9.733
REMARK  9 active torsions:
REMARK  status: ('A' for Active; 'I' for Inactive)
REMARK    1  A    between atoms: C_4  and  S_5 
REMARK    2  A    between atoms: S_5  and  C_6 
REMARK    3  A    between atoms: C_6  and  C_7 
REMARK       I    between atoms: C_7  and  N_8 
REMARK    4  A    between atoms: N_8  and  C_9 
REMARK    5  A    between atoms: C_9  and  C_10 
REMARK    6  A    between atoms: C_20  and  C_21 
REMARK    7  A    between atoms: C_26  and  C_27 
REMARK       I    between atoms: C_27  and  N_28 
REMARK    8  A    between atoms: N_28  and  C_29 
REMARK    9  A    between atoms: C_31  and  C_32 
ROOT
HETATM    1  C   UNL     1      41.743 -14.534   6.593  1.00  0.00     0.069 C 
HETATM    2  C   UNL     1      41.566 -13.487   5.518  1.00  0.00     0.019 C 
HETATM    3  N   UNL     1      40.764 -13.862   4.446  1.00  0.00    -0.353 N 
HETATM    4  C   UNL     1      40.720 -13.188   3.231  1.00  0.00     0.087 C 
HETATM    5  C   UNL     1      41.277 -11.958   3.158  1.00  0.00     0.057 C 
HETATM    6  C   UNL     1      41.451 -11.179   1.864  1.00  0.00     0.019 C 
HETATM    7  N   UNL     1      41.595 -10.535   0.790  1.00  0.00    -0.096 N 
HETATM    8  C   UNL     1      41.819 -11.273   4.414  1.00  0.00     0.129 C 
HETATM    9  C   UNL     1      42.127 -12.254   5.541  1.00  0.00     0.048 C 
HETATM   10  H   UNL     1      40.588 -14.863   4.369  1.00  0.00     0.166 HD
ENDROOT
BRANCH   4  11
HETATM   11  S   UNL     1      39.967 -13.926   1.824  1.00  0.00    -0.102 SA
BRANCH  11  12
HETATM   12  C   UNL     1      41.469 -14.450   0.936  1.00  0.00     0.183 C 
BRANCH  12  13
HETATM   13  C   UNL     1      42.580 -15.012   1.803  1.00  0.00     0.227 C 
HETATM   14  N   UNL     1      42.321 -16.142   2.534  1.00  0.00    -0.356 N 
HETATM   15  H   UNL     1      41.368 -16.483   2.589  1.00  0.00     0.162 HD
HETATM   16  O   UNL     1      43.666 -14.432   1.857  1.00  0.00    -0.273 OA
BRANCH  14  17
HETATM   17  C   UNL     1      43.296 -16.640   3.480  1.00  0.00     0.161 C 
BRANCH  17  18
HETATM   18  C   UNL     1      43.444 -18.137   3.445  1.00  0.00    -0.041 A 
HETATM   19  C   UNL     1      43.173 -18.869   2.279  1.00  0.00     0.009 A 
HETATM   20  C   UNL     1      43.378 -20.249   2.242  1.00  0.00     0.001 A 
HETATM   21  C   UNL     1      43.871 -20.913   3.364  1.00  0.00     0.000 A 
HETATM   22  C   UNL     1      44.161 -20.197   4.523  1.00  0.00     0.001 A 
HETATM   23  C   UNL     1      43.951 -18.817   4.564  1.00  0.00     0.009 A 
ENDBRANCH  17  18
ENDBRANCH  14  17
ENDBRANCH  12  13
ENDBRANCH  11  12
ENDBRANCH   4  11
BRANCH   8  24
HETATM   24  C   UNL     1      40.880 -10.178   4.864  1.00  0.00     0.066 A 
HETATM   25  O   UNL     1      41.458  -9.070   5.413  1.00  0.00    -0.326 OA
HETATM   26  C   UNL     1      40.449  -8.227   5.757  1.00  0.00     0.142 A 
HETATM   27  C   UNL     1      39.230  -8.789   5.461  1.00  0.00     0.027 A 
HETATM   28  C   UNL     1      39.504 -10.052   4.888  1.00  0.00     0.035 A 
ENDBRANCH   8  24
BRANCH   9  29
HETATM   29  C   UNL     1      43.156 -11.893   6.578  1.00  0.00     0.255 C 
HETATM   30  N   UNL     1      42.797 -10.881   7.443  1.00  0.00    -0.323 N 
HETATM   31  H   UNL     1      41.897 -10.434   7.318  1.00  0.00     0.169 HD
HETATM   32  O   UNL     1      44.246 -12.457   6.568  1.00  0.00    -0.268 OA
BRANCH  30  33
HETATM   33  C   UNL     1      43.551 -10.360   8.518  1.00  0.00     0.035 A 
HETATM   34  C   UNL     1      43.003  -9.948   9.735  1.00  0.00     0.045 A 
HETATM   35  C   UNL     1      43.821  -9.421  10.752  1.00  0.00     0.050 A 
HETATM   36  C   UNL     1      45.203  -9.319  10.535  1.00  0.00     0.016 A 
HETATM   37  C   UNL     1      45.756  -9.730   9.326  1.00  0.00     0.003 A 
HETATM   38  C   UNL     1      44.933 -10.241   8.322  1.00  0.00     0.029 A 
BRANCH  35  39
HETATM   39  C   UNL     1      43.230  -8.941  12.055  1.00  0.00     0.417 C 
HETATM   40  F   UNL     1      44.068  -8.160  12.791  1.00  0.00    -0.166 F 
HETATM   41  F   UNL     1      42.097  -8.206  11.874  1.00  0.00    -0.166 F 
HETATM   42  F   UNL     1      42.874  -9.974  12.869  1.00  0.00    -0.166 F 
ENDBRANCH  35  39
ENDBRANCH  30  33
ENDBRANCH   9  29
TORSDOF 9
ENDMDL
MODEL 4
REMARK VINA RESULT:      -9.5      4.776      8.898
REMARK  9 active torsions:
REMARK  status: ('A' for Active; 'I' for Inactive)
REMARK    1  A    between atoms: C_4  and  S_5 
REMARK    2  A    between atoms: S_5  and  C_6 
REMARK    3  A    between atoms: C_6  and  C_7 
REMARK       I    between atoms: C_7  and  N_8 
REMARK    4  A    between atoms: N_8  and  C_9 
REMARK    5  A    between atoms: C_9  and  C_10 
REMARK    6  A    between atoms: C_20  and  C_21 
REMARK    7  A    between atoms: C_26  and  C_27 
REMARK       I    between atoms: C_27  and  N_28 
REMARK    8  A    between atoms: N_28  and  C_29 
REMARK    9  A    between atoms: C_31  and  C_32 
ROOT
HETATM    1  C   UNL     1      39.799 -15.365   0.369  1.00  0.00     0.069 C 
HETATM    2  C   UNL     1      39.968 -13.986   0.962  1.00  0.00     0.019 C 
HETATM    3  N   UNL     1      39.021 -13.046   0.569  1.00  0.00    -0.353 N 
HETATM    4  C   UNL     1      39.163 -11.675   0.743  1.00  0.00     0.087 C 
HETATM    5  C   UNL     1      40.139 -11.229   1.567  1.00  0.00     0.057 C 
HETATM    6  C   UNL     1      40.517  -9.765   1.722  1.00  0.00     0.019 C 
HETATM    7  N   UNL     1      40.830  -8.551   1.849  1.00  0.00    -0.096 N 
HETATM    8  C   UNL     1      40.974 -12.213   2.388  1.00  0.00     0.129 C 
HETATM    9  C   UNL     1      40.954 -13.629   1.820  1.00  0.00     0.048 C 
HETATM   10  H   UNL     1      38.475 -13.304  -0.252  1.00  0.00     0.166 HD
ENDROOT
BRANCH   4  11
HETATM   11  S   UNL     1      38.104 -10.551  -0.098  1.00  0.00    -0.102 SA
BRANCH  11  12
HETATM   12  C   UNL     1      38.106 -11.330  -1.744  1.00  0.00     0.183 C 
BRANCH  12  13
HETATM   13  C   UNL     1      39.331 -11.057  -2.596  1.00  0.00     0.227 C 
HETATM   14  N   UNL     1      39.654  -9.752  -2.866  1.00  0.00    -0.356 N 
HETATM   15  H   UNL     1      38.995  -9.022  -2.617  1.00  0.00     0.162 HD
HETATM   16  O   UNL     1      39.984 -11.999  -3.048  1.00  0.00    -0.273 OA
BRANCH  14  17
HETATM   17  C   UNL     1      40.728  -9.440  -3.784  1.00  0.00     0.161 C 
BRANCH  17  18
HETATM   18  C   UNL     1      41.739  -8.486  -3.209  1.00  0.00    -0.041 A 
HETATM   19  C   UNL     1      42.231  -7.406  -3.956  1.00  0.00     0.009 A 
HETATM   20  C   UNL     1      43.119  -6.492  -3.387  1.00  0.00     0.001 A 
HETATM   21  C   UNL     1      43.514  -6.636  -2.058  1.00  0.00     0.000 A 
HETATM   22  C   UNL     1      43.021  -7.694  -1.298  1.00  0.00     0.001 A 
HETATM   23  C   UNL     1      42.137  -8.613  -1.868  1.00  0.00     0.009 A 
ENDBRANCH  17  18
ENDBRANCH  14  17
ENDBRANCH  12  13
ENDBRANCH  11  12
ENDBRANCH   4  11
BRANCH   8  24
HETATM   24  C   UNL     1      40.548 -12.184   3.837  1.00  0.00     0.066 A 
HETATM   25  O   UNL     1      41.389 -11.547   4.704  1.00  0.00    -0.326 OA
HETATM   26  C   UNL     1      40.833 -11.647   5.939  1.00  0.00     0.142 A 
HETATM   27  C   UNL     1      39.661 -12.363   5.884  1.00  0.00     0.027 A 
HETATM   28  C   UNL     1      39.476 -12.716   4.527  1.00  0.00     0.035 A 
ENDBRANCH   8  24
BRANCH   9  29
HETATM   29  C   UNL     1      42.104 -14.559   2.104  1.00  0.00     0.255 C 
HETATM   30  N   UNL     1      41.795 -15.669   2.861  1.00  0.00    -0.323 N 
HETATM   31  H   UNL     1      40.845 -15.780   3.193  1.00  0.00     0.169 HD
HETATM   32  O   UNL     1      43.229 -14.264   1.712  1.00  0.00    -0.268 OA
BRANCH  30  33
HETATM   33  C   UNL     1      42.665 -16.711   3.253  1.00  0.00     0.035 A 
HETATM   34  C   UNL     1      42.740 -17.953   2.618  1.00  0.00     0.045 A 
HETATM   35  C   UNL     1      43.619 -18.949   3.083  1.00  0.00     0.050 A 
HETATM   36  C   UNL     1      44.432 -18.678   4.193  1.00  0.00     0.016 A 
HETATM   37  C   UNL     1      44.365 -17.442   4.830  1.00  0.00     0.003 A 
HETATM   38  C   UNL     1      43.480 -16.468   4.365  1.00  0.00     0.029 A 
BRANCH  35  39
HETATM   39  C   UNL     1      43.679 -20.305   2.423  1.00  0.00     0.417 C 
HETATM   40  F   UNL     1      44.660 -20.425   1.487  1.00  0.00    -0.166 F 
HETATM   41  F   UNL     1      43.893 -21.310   3.317  1.00  0.00    -0.166 F 
HETATM   42  F   UNL     1      42.517 -20.618   1.786  1.00  0.00    -0.166 F 
ENDBRANCH  35  39
ENDBRANCH  30  33
ENDBRANCH   9  29
TORSDOF 9
ENDMDL
MODEL 5
REMARK VINA RESULT:      -9.2      3.301      4.317
REMARK  9 active torsions:
REMARK  status: ('A' for Active; 'I' for Inactive)
REMARK    1  A    between atoms: C_4  and  S_5 
REMARK    2  A    between atoms: S_5  and  C_6 
REMARK    3  A    between atoms: C_6  and  C_7 
REMARK       I    between atoms: C_7  and  N_8 
REMARK    4  A    between atoms: N_8  and  C_9 
REMARK    5  A    between atoms: C_9  and  C_10 
REMARK    6  A    between atoms: C_20  and  C_21 
REMARK    7  A    between atoms: C_26  and  C_27 
REMARK       I    between atoms: C_27  and  N_28 
REMARK    8  A    between atoms: N_28  and  C_29 
REMARK    9  A    between atoms: C_31  and  C_32 
ROOT
HETATM    1  C   UNL     1      43.578 -12.592   3.737  1.00  0.00     0.069 C 
HETATM    2  C   UNL     1      42.275 -12.318   3.024  1.00  0.00     0.019 C 
HETATM    3  N   UNL     1      42.017 -10.980   2.746  1.00  0.00    -0.353 N 
HETATM    4  C   UNL     1      40.769 -10.486   2.386  1.00  0.00     0.087 C 
HETATM    5  C   UNL     1      39.806 -11.365   2.029  1.00  0.00     0.057 C 
HETATM    6  C   UNL     1      38.357 -10.983   1.775  1.00  0.00     0.019 C 
HETATM    7  N   UNL     1      37.155 -10.666   1.566  1.00  0.00    -0.096 N 
HETATM    8  C   UNL     1      40.125 -12.856   1.895  1.00  0.00     0.129 C 
HETATM    9  C   UNL     1      41.379 -13.267   2.661  1.00  0.00     0.048 C 
HETATM   10  H   UNL     1      42.593 -10.316   3.259  1.00  0.00     0.166 HD
ENDROOT
BRANCH   4  11
HETATM   11  S   UNL     1      40.452  -8.756   2.406  1.00  0.00    -0.102 SA
BRANCH  11  12
HETATM   12  C   UNL     1      39.757  -8.610   4.083  1.00  0.00     0.183 C 
BRANCH  12  13
HETATM   13  C   UNL     1      40.269  -9.619   5.094  1.00  0.00     0.227 C 
HETATM   14  N   UNL     1      41.520  -9.429   5.622  1.00  0.00    -0.356 N 
HETATM   15  H   UNL     1      42.117  -8.713   5.222  1.00  0.00     0.162 HD
HETATM   16  O   UNL     1      39.575 -10.593   5.392  1.00  0.00    -0.273 OA
BRANCH  14  17
HETATM   17  C   UNL     1      42.111 -10.431   6.482  1.00  0.00     0.161 C 
BRANCH  17  18
HETATM   18  C   UNL     1      43.364  -9.957   7.167  1.00  0.00    -0.041 A 
HETATM   19  C   UNL     1      43.372  -8.794   7.951  1.00  0.00     0.009 A 
HETATM   20  C   UNL     1      44.526  -8.403   8.634  1.00  0.00     0.001 A 
HETATM   21  C   UNL     1      45.681  -9.178   8.553  1.00  0.00     0.000 A 
HETATM   22  C   UNL     1      45.683 -10.345   7.792  1.00  0.00     0.001 A 
HETATM   23  C   UNL     1      44.532 -10.734   7.105  1.00  0.00     0.009 A 
ENDBRANCH  17  18
ENDBRANCH  14  17
ENDBRANCH  12  13
ENDBRANCH  11  12
ENDBRANCH   4  11
BRANCH   8  24
HETATM   24  C   UNL     1      40.203 -13.249   0.438  1.00  0.00     0.066 A 
HETATM   25  O   UNL     1      40.686 -12.305  -0.421  1.00  0.00    -0.326 OA
HETATM   26  C   UNL     1      40.659 -12.851  -1.664  1.00  0.00     0.142 A 
HETATM   27  C   UNL     1      40.139 -14.123  -1.621  1.00  0.00     0.027 A 
HETATM   28  C   UNL     1      39.838 -14.381  -0.264  1.00  0.00     0.035 A 
ENDBRANCH   8  24
BRANCH   9  29
HETATM   29  C   UNL     1      41.531 -14.691   3.125  1.00  0.00     0.255 C 
HETATM   30  N   UNL     1      42.795 -15.226   2.992  1.00  0.00    -0.323 N 
HETATM   31  H   UNL     1      43.521 -14.655   2.579  1.00  0.00     0.169 HD
HETATM   32  O   UNL     1      40.547 -15.302   3.531  1.00  0.00    -0.268 OA
BRANCH  30  33
HETATM   33  C   UNL     1      43.225 -16.518   3.367  1.00  0.00     0.035 A 
HETATM   34  C   UNL     1      43.078 -17.657   2.571  1.00  0.00     0.045 A 
HETATM   35  C   UNL     1      43.516 -18.915   3.025  1.00  0.00     0.050 A 
HETATM   36  C   UNL     1      44.114 -19.016   4.289  1.00  0.00     0.016 A 
HETATM   37  C   UNL     1      44.266 -17.886   5.087  1.00  0.00     0.003 A 
HETATM   38  C   UNL     1      43.818 -16.646   4.629  1.00  0.00     0.029 A 
BRANCH  35  39
HETATM   39  C   UNL     1      43.326 -20.155   2.185  1.00  0.00     0.417 C 
HETATM   40  F   UNL     1      42.045 -20.355   1.770  1.00  0.00    -0.166 F 
HETATM   41  F   UNL     1      44.085 -20.138   1.053  1.00  0.00    -0.166 F 
HETATM   42  F   UNL     1      43.683 -21.287   2.852  1.00  0.00    -0.166 F 
ENDBRANCH  35  39
ENDBRANCH  30  33
ENDBRANCH   9  29
TORSDOF 9
ENDMDL
MODEL 6
REMARK VINA RESULT:      -9.1      4.233     10.042
REMARK  9 active torsions:
REMARK  status: ('A' for Active; 'I' for Inactive)
REMARK    1  A    between atoms: C_4  and  S_5 
REMARK    2  A    between atoms: S_5  and  C_6 
REMARK    3  A    between atoms: C_6  and  C_7 
REMARK       I    between atoms: C_7  and  N_8 
REMARK    4  A    between atoms: N_8  and  C_9 
REMARK    5  A    between atoms: C_9  and  C_10 
REMARK    6  A    between atoms: C_20  and  C_21 
REMARK    7  A    between atoms: C_26  and  C_27 
REMARK       I    between atoms: C_27  and  N_28 
REMARK    8  A    between atoms: N_28  and  C_29 
REMARK    9  A    between atoms: C_31  and  C_32 
ROOT
HETATM    1  C   UNL     1      39.655  -8.101   5.275  1.00  0.00     0.069 C 
HETATM    2  C   UNL     1      40.140  -9.529   5.357  1.00  0.00     0.019 C 
HETATM    3  N   UNL     1      39.818 -10.333   4.268  1.00  0.00    -0.353 N 
HETATM    4  C   UNL     1      39.892 -11.720   4.273  1.00  0.00     0.087 C 
HETATM    5  C   UNL     1      40.556 -12.325   5.284  1.00  0.00     0.057 C 
HETATM    6  C   UNL     1      40.575 -13.828   5.509  1.00  0.00     0.019 C 
HETATM    7  N   UNL     1      40.590 -15.075   5.695  1.00  0.00    -0.096 N 
HETATM    8  C   UNL     1      41.318 -11.496   6.320  1.00  0.00     0.129 C 
HETATM    9  C   UNL     1      40.841 -10.049   6.393  1.00  0.00     0.048 C 
HETATM   10  H   UNL     1      39.091  -9.960   3.659  1.00  0.00     0.166 HD
ENDROOT
BRANCH   4  11
HETATM   11  S   UNL     1      39.131 -12.663   2.998  1.00  0.00    -0.102 SA
BRANCH  11  12
HETATM   12  C   UNL     1      40.588 -12.949   1.943  1.00  0.00     0.183 C 
BRANCH  12  13
HETATM   13  C   UNL     1      40.991 -14.401   1.763  1.00  0.00     0.227 C 
HETATM   14  N   UNL     1      42.328 -14.707   1.775  1.00  0.00    -0.356 N 
HETATM   15  H   UNL     1      43.004 -13.952   1.757  1.00  0.00     0.162 HD
HETATM   16  O   UNL     1      40.125 -15.258   1.581  1.00  0.00    -0.273 OA
BRANCH  14  17
HETATM   17  C   UNL     1      42.772 -16.050   1.471  1.00  0.00     0.161 C 
BRANCH  17  18
HETATM   18  C   UNL     1      43.289 -16.788   2.676  1.00  0.00    -0.041 A 
HETATM   19  C   UNL     1      43.418 -16.154   3.920  1.00  0.00     0.009 A 
HETATM   20  C   UNL     1      43.837 -16.870   5.044  1.00  0.00     0.001 A 
HETATM   21  C   UNL     1      44.118 -18.230   4.940  1.00  0.00     0.000 A 
HETATM   22  C   UNL     1      43.979 -18.878   3.715  1.00  0.00     0.001 A 
HETATM   23  C   UNL     1      43.565 -18.162   2.589  1.00  0.00     0.009 A 
ENDBRANCH  17  18
ENDBRANCH  14  17
ENDBRANCH  12  13
ENDBRANCH  11  12
ENDBRANCH   4  11
BRANCH   8  24
HETATM   24  C   UNL     1      42.806 -11.585   6.073  1.00  0.00     0.066 A 
HETATM   25  O   UNL     1      43.577 -11.960   7.136  1.00  0.00    -0.326 OA
HETATM   26  C   UNL     1      44.866 -11.963   6.708  1.00  0.00     0.142 A 
HETATM   27  C   UNL     1      44.938 -11.569   5.393  1.00  0.00     0.027 A 
HETATM   28  C   UNL     1      43.609 -11.320   4.981  1.00  0.00     0.035 A 
ENDBRANCH   8  24
BRANCH   9  29
HETATM   29  C   UNL     1      41.028  -9.269   7.667  1.00  0.00     0.255 C 
HETATM   30  N   UNL     1      40.330  -9.741   8.758  1.00  0.00    -0.323 N 
HETATM   31  H   UNL     1      39.730 -10.547   8.638  1.00  0.00     0.169 HD
HETATM   32  O   UNL     1      41.721  -8.256   7.658  1.00  0.00    -0.268 OA
BRANCH  30  33
HETATM   33  C   UNL     1      40.338  -9.224  10.073  1.00  0.00     0.035 A 
HETATM   34  C   UNL     1      41.370  -9.428  10.992  1.00  0.00     0.045 A 
HETATM   35  C   UNL     1      41.294  -8.896  12.292  1.00  0.00     0.050 A 
HETATM   36  C   UNL     1      40.168  -8.144  12.659  1.00  0.00     0.016 A 
HETATM   37  C   UNL     1      39.137  -7.934  11.748  1.00  0.00     0.003 A 
HETATM   38  C   UNL     1      39.220  -8.477  10.465  1.00  0.00     0.029 A 
BRANCH  35  39
HETATM   39  C   UNL     1      42.390  -9.143  13.300  1.00  0.00     0.417 C 
HETATM   40  F   UNL     1      43.430  -8.269  13.217  1.00  0.00    -0.166 F 
HETATM   41  F   UNL     1      41.942  -9.069  14.585  1.00  0.00    -0.166 F 
HETATM   42  F   UNL     1      42.936 -10.384  13.171  1.00  0.00    -0.166 F 
ENDBRANCH  35  39
ENDBRANCH  30  33
ENDBRANCH   9  29
TORSDOF 9
ENDMDL
MODEL 7
REMARK VINA RESULT:      -9.1      4.066      5.288
REMARK  9 active torsions:
REMARK  status: ('A' for Active; 'I' for Inactive)
REMARK    1  A    between atoms: C_4  and  S_5 
REMARK    2  A    between atoms: S_5  and  C_6 
REMARK    3  A    between atoms: C_6  and  C_7 
REMARK       I    between atoms: C_7  and  N_8 
REMARK    4  A    between atoms: N_8  and  C_9 
REMARK    5  A    between atoms: C_9  and  C_10 
REMARK    6  A    between atoms: C_20  and  C_21 
REMARK    7  A    between atoms: C_26  and  C_27 
REMARK       I    between atoms: C_27  and  N_28 
REMARK    8  A    between atoms: N_28  and  C_29 
REMARK    9  A    between atoms: C_31  and  C_32 
ROOT
HETATM    1  C   UNL     1      43.266 -11.727   3.013  1.00  0.00     0.069 C 
HETATM    2  C   UNL     1      42.009 -11.508   2.204  1.00  0.00     0.019 C 
HETATM    3  N   UNL     1      41.789 -10.200   1.785  1.00  0.00    -0.353 N 
HETATM    4  C   UNL     1      40.572  -9.728   1.309  1.00  0.00     0.087 C 
HETATM    5  C   UNL     1      39.616 -10.628   0.983  1.00  0.00     0.057 C 
HETATM    6  C   UNL     1      38.190 -10.256   0.612  1.00  0.00     0.019 C 
HETATM    7  N   UNL     1      37.007  -9.946   0.304  1.00  0.00    -0.096 N 
HETATM    8  C   UNL     1      39.917 -12.128   1.010  1.00  0.00     0.129 C 
HETATM    9  C   UNL     1      41.119 -12.478   1.882  1.00  0.00     0.048 C 
HETATM   10  H   UNL     1      42.346  -9.496   2.265  1.00  0.00     0.166 HD
ENDROOT
BRANCH   4  11
HETATM   11  S   UNL     1      40.282  -8.001   1.147  1.00  0.00    -0.102 SA
BRANCH  11  12
HETATM   12  C   UNL     1      40.619  -7.490   2.862  1.00  0.00     0.183 C 
BRANCH  12  13
HETATM   13  C   UNL     1      40.036  -8.387   3.939  1.00  0.00     0.227 C 
HETATM   14  N   UNL     1      40.892  -8.928   4.864  1.00  0.00    -0.356 N 
HETATM   15  H   UNL     1      41.892  -8.835   4.720  1.00  0.00     0.162 HD
HETATM   16  O   UNL     1      38.829  -8.634   3.942  1.00  0.00    -0.273 OA
BRANCH  14  17
HETATM   17  C   UNL     1      40.412  -9.897   5.825  1.00  0.00     0.161 C 
BRANCH  17  18
HETATM   18  C   UNL     1      41.373 -11.033   6.049  1.00  0.00    -0.041 A 
HETATM   19  C   UNL     1      42.669 -10.807   6.535  1.00  0.00     0.009 A 
HETATM   20  C   UNL     1      43.526 -11.877   6.800  1.00  0.00     0.001 A 
HETATM   21  C   UNL     1      43.094 -13.186   6.597  1.00  0.00     0.000 A 
HETATM   22  C   UNL     1      41.804 -13.426   6.130  1.00  0.00     0.001 A 
HETATM   23  C   UNL     1      40.947 -12.357   5.859  1.00  0.00     0.009 A 
ENDBRANCH  17  18
ENDBRANCH  14  17
ENDBRANCH  12  13
ENDBRANCH  11  12
ENDBRANCH   4  11
BRANCH   8  24
HETATM   24  C   UNL     1      40.069 -12.659  -0.396  1.00  0.00     0.066 A 
HETATM   25  O   UNL     1      39.421 -13.827  -0.677  1.00  0.00    -0.326 OA
HETATM   26  C   UNL     1      39.698 -14.131  -1.972  1.00  0.00     0.142 A 
HETATM   27  C   UNL     1      40.536 -13.190  -2.520  1.00  0.00     0.027 A 
HETATM   28  C   UNL     1      40.783 -12.239  -1.502  1.00  0.00     0.035 A 
ENDBRANCH   8  24
BRANCH   9  29
HETATM   29  C   UNL     1      41.222 -13.852   2.488  1.00  0.00     0.255 C 
HETATM   30  N   UNL     1      42.455 -14.458   2.376  1.00  0.00    -0.323 N 
HETATM   31  H   UNL     1      43.193 -13.968   1.886  1.00  0.00     0.169 HD
HETATM   32  O   UNL     1      40.224 -14.370   2.981  1.00  0.00    -0.268 OA
BRANCH  30  33
HETATM   33  C   UNL     1      42.838 -15.725   2.871  1.00  0.00     0.035 A 
HETATM   34  C   UNL     1      42.980 -16.029   4.227  1.00  0.00     0.045 A 
HETATM   35  C   UNL     1      43.386 -17.312   4.640  1.00  0.00     0.050 A 
HETATM   36  C   UNL     1      43.642 -18.293   3.671  1.00  0.00     0.016 A 
HETATM   37  C   UNL     1      43.500 -17.998   2.318  1.00  0.00     0.003 A 
HETATM   38  C   UNL     1      43.108 -16.719   1.922  1.00  0.00     0.029 A 
BRANCH  35  39
HETATM   39  C   UNL     1      43.575 -17.636   6.101  1.00  0.00     0.417 C 
HETATM   40  F   UNL     1      42.563 -17.202   6.903  1.00  0.00    -0.166 F 
HETATM   41  F   UNL     1      43.681 -18.975   6.329  1.00  0.00    -0.166 F 
HETATM   42  F   UNL     1      44.713 -17.083   6.607  1.00  0.00    -0.166 F 
ENDBRANCH  35  39
ENDBRANCH  30  33
ENDBRANCH   9  29
TORSDOF 9
ENDMDL
MODEL 8
REMARK VINA RESULT:      -9.0      4.673     10.814
REMARK  9 active torsions:
REMARK  status: ('A' for Active; 'I' for Inactive)
REMARK    1  A    between atoms: C_4  and  S_5 
REMARK    2  A    between atoms: S_5  and  C_6 
REMARK    3  A    between atoms: C_6  and  C_7 
REMARK       I    between atoms: C_7  and  N_8 
REMARK    4  A    between atoms: N_8  and  C_9 
REMARK    5  A    between atoms: C_9  and  C_10 
REMARK    6  A    between atoms: C_20  and  C_21 
REMARK    7  A    between atoms: C_26  and  C_27 
REMARK       I    between atoms: C_27  and  N_28 
REMARK    8  A    between atoms: N_28  and  C_29 
REMARK    9  A    between atoms: C_31  and  C_32 
ROOT
HETATM    1  C   UNL     1      40.931  -7.742   6.139  1.00  0.00     0.069 C 
HETATM    2  C   UNL     1      41.769  -8.986   6.309  1.00  0.00     0.019 C 
HETATM    3  N   UNL     1      42.031  -9.694   5.140  1.00  0.00    -0.353 N 
HETATM    4  C   UNL     1      42.506 -10.999   5.108  1.00  0.00     0.087 C 
HETATM    5  C   UNL     1      42.993 -11.535   6.251  1.00  0.00     0.057 C 
HETATM    6  C   UNL     1      43.388 -12.994   6.405  1.00  0.00     0.019 C 
HETATM    7  N   UNL     1      43.715 -14.205   6.531  1.00  0.00    -0.096 N 
HETATM    8  C   UNL     1      43.140 -10.679   7.510  1.00  0.00     0.129 C 
HETATM    9  C   UNL     1      42.257  -9.434   7.491  1.00  0.00     0.048 C 
HETATM   10  H   UNL     1      41.438  -9.451   4.349  1.00  0.00     0.166 HD
ENDROOT
BRANCH   4  11
HETATM   11  S   UNL     1      42.465 -11.932   3.618  1.00  0.00    -0.102 SA
BRANCH  11  12
HETATM   12  C   UNL     1      40.685 -12.313   3.567  1.00  0.00     0.183 C 
BRANCH  12  13
HETATM   13  C   UNL     1      40.332 -13.788   3.505  1.00  0.00     0.227 C 
HETATM   14  N   UNL     1      40.835 -14.614   4.477  1.00  0.00    -0.356 N 
HETATM   15  H   UNL     1      41.535 -14.251   5.115  1.00  0.00     0.162 HD
HETATM   16  O   UNL     1      39.639 -14.213   2.580  1.00  0.00    -0.273 OA
BRANCH  14  17
HETATM   17  C   UNL     1      40.645 -16.046   4.389  1.00  0.00     0.161 C 
BRANCH  17  18
HETATM   18  C   UNL     1      41.883 -16.780   3.949  1.00  0.00    -0.041 A 
HETATM   19  C   UNL     1      42.869 -17.164   4.869  1.00  0.00     0.009 A 
HETATM   20  C   UNL     1      43.980 -17.902   4.456  1.00  0.00     0.001 A 
HETATM   21  C   UNL     1      44.110 -18.279   3.121  1.00  0.00     0.000 A 
HETATM   22  C   UNL     1      43.131 -17.920   2.199  1.00  0.00     0.001 A 
HETATM   23  C   UNL     1      42.022 -17.177   2.609  1.00  0.00     0.009 A 
ENDBRANCH  17  18
ENDBRANCH  14  17
ENDBRANCH  12  13
ENDBRANCH  11  12
ENDBRANCH   4  11
BRANCH   8  24
HETATM   24  C   UNL     1      44.592 -10.334   7.747  1.00  0.00     0.066 A 
HETATM   25  O   UNL     1      44.873  -9.636   8.886  1.00  0.00    -0.326 OA
HETATM   26  C   UNL     1      46.214  -9.421   8.897  1.00  0.00     0.142 A 
HETATM   27  C   UNL     1      46.796  -9.947   7.768  1.00  0.00     0.027 A 
HETATM   28  C   UNL     1      45.749 -10.533   7.020  1.00  0.00     0.035 A 
ENDBRANCH   8  24
BRANCH   9  29
HETATM   29  C   UNL     1      41.825  -8.810   8.790  1.00  0.00     0.255 C 
HETATM   30  N   UNL     1      42.717  -7.916   9.344  1.00  0.00    -0.323 N 
HETATM   31  H   UNL     1      43.597  -7.754   8.870  1.00  0.00     0.169 HD
HETATM   32  O   UNL     1      40.766  -9.157   9.304  1.00  0.00    -0.268 OA
BRANCH  30  33
HETATM   33  C   UNL     1      42.561  -7.171  10.534  1.00  0.00     0.035 A 
HETATM   34  C   UNL     1      42.606  -7.721  11.818  1.00  0.00     0.045 A 
HETATM   35  C   UNL     1      42.421  -6.914  12.955  1.00  0.00     0.050 A 
HETATM   36  C   UNL     1      42.198  -5.539  12.789  1.00  0.00     0.016 A 
HETATM   37  C   UNL     1      42.155  -4.983  11.514  1.00  0.00     0.003 A 
HETATM   38  C   UNL     1      42.329  -5.797  10.394  1.00  0.00     0.029 A 
BRANCH  35  39
HETATM   39  C   UNL     1      42.431  -7.509  14.342  1.00  0.00     0.417 C 
HETATM   40  F   UNL     1      42.613  -8.858  14.367  1.00  0.00    -0.166 F 
HETATM   41  F   UNL     1      43.416  -6.986  15.125  1.00  0.00    -0.166 F 
HETATM   42  F   UNL     1      41.267  -7.278  15.009  1.00  0.00    -0.166 F 
ENDBRANCH  35  39
ENDBRANCH  30  33
ENDBRANCH   9  29
TORSDOF 9
ENDMDL
MODEL 9
REMARK VINA RESULT:      -8.9      5.088     10.403
REMARK  9 active torsions:
REMARK  status: ('A' for Active; 'I' for Inactive)
REMARK    1  A    between atoms: C_4  and  S_5 
REMARK    2  A    between atoms: S_5  and  C_6 
REMARK    3  A    between atoms: C_6  and  C_7 
REMARK       I    between atoms: C_7  and  N_8 
REMARK    4  A    between atoms: N_8  and  C_9 
REMARK    5  A    between atoms: C_9  and  C_10 
REMARK    6  A    between atoms: C_20  and  C_21 
REMARK    7  A    between atoms: C_26  and  C_27 
REMARK       I    between atoms: C_27  and  N_28 
REMARK    8  A    between atoms: N_28  and  C_29 
REMARK    9  A    between atoms: C_31  and  C_32 
ROOT
HETATM    1  C   UNL     1      39.440  -8.318   5.607  1.00  0.00     0.069 C 
HETATM    2  C   UNL     1      39.992  -9.721   5.513  1.00  0.00     0.019 C 
HETATM    3  N   UNL     1      39.778 -10.367   4.300  1.00  0.00    -0.353 N 
HETATM    4  C   UNL     1      39.923 -11.735   4.109  1.00  0.00     0.087 C 
HETATM    5  C   UNL     1      40.554 -12.455   5.064  1.00  0.00     0.057 C 
HETATM    6  C   UNL     1      40.637 -13.973   5.070  1.00  0.00     0.019 C 
HETATM    7  N   UNL     1      40.705 -15.231   5.073  1.00  0.00    -0.096 N 
HETATM    8  C   UNL     1      41.209 -11.757   6.258  1.00  0.00     0.129 C 
HETATM    9  C   UNL     1      40.655 -10.359   6.508  1.00  0.00     0.048 C 
HETATM   10  H   UNL     1      39.071  -9.939   3.705  1.00  0.00     0.166 HD
ENDROOT
BRANCH   4  11
HETATM   11  S   UNL     1      39.290 -12.510   2.663  1.00  0.00    -0.102 SA
BRANCH  11  12
HETATM   12  C   UNL     1      40.837 -12.659   1.715  1.00  0.00     0.183 C 
BRANCH  12  13
HETATM   13  C   UNL     1      41.206 -14.066   1.280  1.00  0.00     0.227 C 
HETATM   14  N   UNL     1      42.269 -14.676   1.894  1.00  0.00    -0.356 N 
HETATM   15  H   UNL     1      42.861 -14.127   2.508  1.00  0.00     0.162 HD
HETATM   16  O   UNL     1      40.572 -14.612   0.375  1.00  0.00    -0.273 OA
BRANCH  14  17
HETATM   17  C   UNL     1      42.747 -15.958   1.424  1.00  0.00     0.161 C 
BRANCH  17  18
HETATM   18  C   UNL     1      43.253 -16.842   2.532  1.00  0.00    -0.041 A 
HETATM   19  C   UNL     1      43.570 -16.321   3.795  1.00  0.00     0.009 A 
HETATM   20  C   UNL     1      43.974 -17.164   4.832  1.00  0.00     0.001 A 
HETATM   21  C   UNL     1      44.052 -18.539   4.624  1.00  0.00     0.000 A 
HETATM   22  C   UNL     1      43.725 -19.073   3.380  1.00  0.00     0.001 A 
HETATM   23  C   UNL     1      43.325 -18.231   2.340  1.00  0.00     0.009 A 
ENDBRANCH  17  18
ENDBRANCH  14  17
ENDBRANCH  12  13
ENDBRANCH  11  12
ENDBRANCH   4  11
BRANCH   8  24
HETATM   24  C   UNL     1      42.712 -11.747   6.102  1.00  0.00     0.066 A 
HETATM   25  O   UNL     1      43.442 -11.993   7.229  1.00  0.00    -0.326 OA
HETATM   26  C   UNL     1      44.752 -11.923   6.875  1.00  0.00     0.142 A 
HETATM   27  C   UNL     1      44.875 -11.610   5.542  1.00  0.00     0.027 A 
HETATM   28  C   UNL     1      43.559 -11.490   5.040  1.00  0.00     0.035 A 
ENDBRANCH   8  24
BRANCH   9  29
HETATM   29  C   UNL     1      40.725  -9.768   7.891  1.00  0.00     0.255 C 
HETATM   30  N   UNL     1      41.996  -9.539   8.375  1.00  0.00    -0.323 N 
HETATM   31  H   UNL     1      42.787  -9.797   7.797  1.00  0.00     0.169 HD
HETATM   32  O   UNL     1      39.688  -9.581   8.520  1.00  0.00    -0.268 OA
BRANCH  30  33
HETATM   33  C   UNL     1      42.353  -8.976   9.620  1.00  0.00     0.035 A 
HETATM   34  C   UNL     1      42.097  -7.652   9.986  1.00  0.00     0.045 A 
HETATM   35  C   UNL     1      42.504  -7.160  11.240  1.00  0.00     0.050 A 
HETATM   36  C   UNL     1      43.167  -8.018  12.129  1.00  0.00     0.016 A 
HETATM   37  C   UNL     1      43.424  -9.339  11.773  1.00  0.00     0.003 A 
HETATM   38  C   UNL     1      43.024  -9.811  10.522  1.00  0.00     0.029 A 
BRANCH  35  39
HETATM   39  C   UNL     1      42.263  -5.721  11.627  1.00  0.00     0.417 C 
HETATM   40  F   UNL     1      42.927  -4.818  10.853  1.00  0.00    -0.166 F 
HETATM   41  F   UNL     1      40.947  -5.376  11.554  1.00  0.00    -0.166 F 
HETATM   42  F   UNL     1      42.642  -5.463  12.909  1.00  0.00    -0.166 F 
ENDBRANCH  35  39
ENDBRANCH  30  33
ENDBRANCH   9  29
TORSDOF 9
ENDMDL
MODEL 10
REMARK VINA RESULT:      -8.7      5.381      6.482
REMARK  9 active torsions:
REMARK  status: ('A' for Active; 'I' for Inactive)
REMARK    1  A    between atoms: C_4  and  S_5 
REMARK    2  A    between atoms: S_5  and  C_6 
REMARK    3  A    between atoms: C_6  and  C_7 
REMARK       I    between atoms: C_7  and  N_8 
REMARK    4  A    between atoms: N_8  and  C_9 
REMARK    5  A    between atoms: C_9  and  C_10 
REMARK    6  A    between atoms: C_20  and  C_21 
REMARK    7  A    between atoms: C_26  and  C_27 
REMARK       I    between atoms: C_27  and  N_28 
REMARK    8  A    between atoms: N_28  and  C_29 
REMARK    9  A    between atoms: C_31  and  C_32 
ROOT
HETATM    1  C   UNL     1      43.767 -12.080   3.413  1.00  0.00     0.069 C 
HETATM    2  C   UNL     1      42.419 -11.916   2.751  1.00  0.00     0.019 C 
HETATM    3  N   UNL     1      42.132 -10.636   2.291  1.00  0.00    -0.353 N 
HETATM    4  C   UNL     1      40.860 -10.200   1.940  1.00  0.00     0.087 C 
HETATM    5  C   UNL     1      39.885 -11.123   1.780  1.00  0.00     0.057 C 
HETATM    6  C   UNL     1      38.419 -10.784   1.563  1.00  0.00     0.019 C 
HETATM    7  N   UNL     1      37.204 -10.501   1.384  1.00  0.00    -0.096 N 
HETATM    8  C   UNL     1      40.209 -12.617   1.852  1.00  0.00     0.129 C 
HETATM    9  C   UNL     1      41.511 -12.909   2.590  1.00  0.00     0.048 C 
HETATM   10  H   UNL     1      42.732  -9.901   2.662  1.00  0.00     0.166 HD
ENDROOT
BRANCH   4  11
HETATM   11  S   UNL     1      40.528  -8.487   1.720  1.00  0.00    -0.102 SA
BRANCH  11  12
HETATM   12  C   UNL     1      40.553  -7.963   3.464  1.00  0.00     0.183 C 
BRANCH  12  13
HETATM   13  C   UNL     1      40.794  -6.484   3.700  1.00  0.00     0.227 C 
HETATM   14  N   UNL     1      42.056  -5.991   3.488  1.00  0.00    -0.356 N 
HETATM   15  H   UNL     1      42.815  -6.644   3.324  1.00  0.00     0.162 HD
HETATM   16  O   UNL     1      39.873  -5.771   4.102  1.00  0.00    -0.273 OA
BRANCH  14  17
HETATM   17  C   UNL     1      42.373  -4.622   3.829  1.00  0.00     0.161 C 
BRANCH  17  18
HETATM   18  C   UNL     1      43.523  -4.065   3.033  1.00  0.00    -0.041 A 
HETATM   19  C   UNL     1      44.381  -3.096   3.571  1.00  0.00     0.009 A 
HETATM   20  C   UNL     1      45.482  -2.637   2.845  1.00  0.00     0.001 A 
HETATM   21  C   UNL     1      45.746  -3.154   1.578  1.00  0.00     0.000 A 
HETATM   22  C   UNL     1      44.912  -4.129   1.037  1.00  0.00     0.001 A 
HETATM   23  C   UNL     1      43.808  -4.584   1.760  1.00  0.00     0.009 A 
ENDBRANCH  17  18
ENDBRANCH  14  17
ENDBRANCH  12  13
ENDBRANCH  11  12
ENDBRANCH   4  11
BRANCH   8  24
HETATM   24  C   UNL     1      40.199 -13.225   0.468  1.00  0.00     0.066 A 
HETATM   25  O   UNL     1      40.546 -12.398  -0.561  1.00  0.00    -0.326 OA
HETATM   26  C   UNL     1      40.460 -13.129  -1.702  1.00  0.00     0.142 A 
HETATM   27  C   UNL     1      40.036 -14.407  -1.425  1.00  0.00     0.027 A 
HETATM   28  C   UNL     1      39.862 -14.471  -0.023  1.00  0.00     0.035 A 
ENDBRANCH   8  24
BRANCH   9  29
HETATM   29  C   UNL     1      41.705 -14.247   3.253  1.00  0.00     0.255 C 
HETATM   30  N   UNL     1      42.752 -15.002   2.769  1.00  0.00    -0.323 N 
HETATM   31  H   UNL     1      43.300 -14.634   2.000  1.00  0.00     0.169 HD
HETATM   32  O   UNL     1      40.916 -14.611   4.120  1.00  0.00    -0.268 OA
BRANCH  30  33
HETATM   33  C   UNL     1      43.175 -16.273   3.217  1.00  0.00     0.035 A 
HETATM   34  C   UNL     1      43.025 -17.454   2.486  1.00  0.00     0.045 A 
HETATM   35  C   UNL     1      43.455 -18.687   3.011  1.00  0.00     0.050 A 
HETATM   36  C   UNL     1      44.048 -18.719   4.282  1.00  0.00     0.016 A 
HETATM   37  C   UNL     1      44.203 -17.546   5.015  1.00  0.00     0.003 A 
HETATM   38  C   UNL     1      43.762 -16.332   4.487  1.00  0.00     0.029 A 
BRANCH  35  39
HETATM   39  C   UNL     1      43.264 -19.971   2.241  1.00  0.00     0.417 C 
HETATM   40  F   UNL     1      43.511 -21.096   2.966  1.00  0.00    -0.166 F 
HETATM   41  F   UNL     1      41.995 -20.107   1.763  1.00  0.00    -0.166 F 
HETATM   42  F   UNL     1      44.079 -20.043   1.152  1.00  0.00    -0.166 F 
ENDBRANCH  35  39
ENDBRANCH  30  33
ENDBRANCH   9  29
TORSDOF 9
ENDMDL
