MODEL 1
REMARK VINA RESULT:      -8.6      0.000      0.000
REMARK  10 active torsions:
REMARK  status: ('A' for Active; 'I' for Inactive)
REMARK    1  A    between atoms: C_1  and  C_17 
REMARK    2  A    between atoms: C_4  and  C_5 
REMARK    3  A    between atoms: C_5  and  O_18 
REMARK    4  A    between atoms: C_6  and  C_11 
REMARK    5  A    between atoms: C_6  and  C_14 
REMARK    6  A    between atoms: C_6  and  N_15 
REMARK    7  A    between atoms: C_8  and  O_20 
REMARK    8  A    between atoms: C_11  and  O_34 
REMARK    9  A    between atoms: C_13  and  C_14 
REMARK       I    between atoms: N_15  and  C_16 
REMARK   10  A    between atoms: C_16  and  C_17 
ROOT
HETATM    1  C           1      42.386 -13.995   4.977  0.00  0.00     0.056 C 
HETATM    2  C           1      41.106 -14.064   4.072  0.00  0.00    -0.030 C 
HETATM    3  C           1      39.859 -13.948   4.977  0.00  0.00     0.016 C 
HETATM    4  C           1      40.301 -13.005   1.722  0.00  0.00     0.008 C 
HETATM    5  C           1      41.189 -12.917   3.011  0.00  0.00     0.012 C 
HETATM    6  C           1      40.378 -14.441   1.162  0.00  0.00     0.128 C 
HETATM    7  C           1      41.090 -15.433   3.349  0.00  0.00     0.013 C 
HETATM    8  C           1      44.013 -10.427   7.607  0.00  0.00     0.017 A 
HETATM    9  C           1      40.898 -12.057   0.643  0.00  0.00     0.020 C 
HETATM   10  C           1      40.079 -15.512   2.203  0.00  0.00     0.033 C 
HETATM   11  C           1      41.172 -11.527   3.686  0.00  0.00     0.054 C 
HETATM   12  C           1      42.079 -11.492   4.882  0.00  0.00     0.010 A 
HETATM   13  C           1      42.606 -12.581   5.447  0.00  0.00     0.054 A 
HETATM   14  N           1      43.312 -12.282   6.448  0.00  0.00    -0.244 NA
HETATM   15  C           1      43.318 -11.025   6.611  0.00  0.00     0.110 A 
HETATM   16  C           1      44.760 -11.153   8.468  0.00  0.00     0.130 A 
HETATM   17  N           1      45.441 -10.699   9.434  0.00  0.00    -0.272 NA
HETATM   18  C           1      45.435  -9.449   9.624  0.00  0.00     0.116 A 
HETATM   19  C           1      44.746  -8.598   8.851  0.00  0.00     0.020 A 
HETATM   20  C           1      44.030  -9.097   7.832  0.00  0.00     0.017 A 
HETATM   21  S           1      42.495 -10.301   5.626  0.00  0.00    -0.072 SA
ENDROOT
BRANCH   1  22
HETATM   22  C           1      42.425 -14.991   6.157  0.00  0.00     0.114 C 
BRANCH  22  23
HETATM   23  C           1      43.537 -16.033   6.129  0.00  0.00     0.218 C 
HETATM   24  N           1      43.170 -17.202   5.520  0.00  0.00    -0.354 N 
HETATM   25  H           1      42.203 -17.288   5.205  0.00  0.00     0.162 HD
HETATM   26  O           1      44.636 -15.838   6.587  0.00  0.00    -0.274 OA
BRANCH  24  27
HETATM   27  C           1      44.035 -18.384   5.404  0.00  0.00     0.108 C 
BRANCH  27  28
HETATM   28  C           1      43.456 -19.630   6.081  0.00  0.00     0.189 C 
BRANCH  28  29
HETATM   29  O           1      44.127 -20.783   5.613  0.00  0.00    -0.399 OA
HETATM   30  H           1      44.132 -21.451   6.303  0.00  0.00     0.209 HD
ENDBRANCH  28  29
ENDBRANCH  27  28
BRANCH  27  31
HETATM   31  C           1      44.454 -18.654   3.947  0.00  0.00     0.031 C 
BRANCH  31  32
HETATM   32  C           1      43.346 -18.592   2.874  0.00  0.00    -0.021 C 
HETATM   33  C           1      43.274 -19.885   2.043  0.00  0.00     0.009 C 
HETATM   34  C           1      43.432 -17.371   1.944  0.00  0.00     0.009 C 
ENDBRANCH  31  32
ENDBRANCH  27  31
ENDBRANCH  24  27
ENDBRANCH  22  23
ENDBRANCH   1  22
BRANCH   4  35
HETATM   35  C           1      38.836 -12.577   1.942  0.00  0.00     0.176 C 
BRANCH  35  36
HETATM   36  O           1      38.197 -12.244   0.723  0.00  0.00    -0.400 OA
HETATM   37  H           1      37.249 -12.191   0.854  0.00  0.00     0.209 HD
ENDBRANCH  35  36
ENDBRANCH   4  35
BRANCH   6  38
HETATM   38  O           1      39.487 -14.616   0.087  0.00  0.00    -0.395 OA
HETATM   39  H           1      38.598 -14.760   0.415  0.00  0.00     0.210 HD
ENDBRANCH   6  38
TORSDOF 10
ENDMDL
MODEL 2
REMARK VINA RESULT:      -8.4      3.474      7.872
REMARK  10 active torsions:
REMARK  status: ('A' for Active; 'I' for Inactive)
REMARK    1  A    between atoms: C_1  and  C_17 
REMARK    2  A    between atoms: C_4  and  C_5 
REMARK    3  A    between atoms: C_5  and  O_18 
REMARK    4  A    between atoms: C_6  and  C_11 
REMARK    5  A    between atoms: C_6  and  C_14 
REMARK    6  A    between atoms: C_6  and  N_15 
REMARK    7  A    between atoms: C_8  and  O_20 
REMARK    8  A    between atoms: C_11  and  O_34 
REMARK    9  A    between atoms: C_13  and  C_14 
REMARK       I    between atoms: N_15  and  C_16 
REMARK   10  A    between atoms: C_16  and  C_17 
ROOT
HETATM    1  C           1      41.603 -14.153   2.345  0.00  0.00     0.056 C 
HETATM    2  C           1      41.129 -13.012   3.313  0.00  0.00    -0.030 C 
HETATM    3  C           1      39.900 -13.517   4.101  0.00  0.00     0.016 C 
HETATM    4  C           1      42.297 -11.251   4.994  0.00  0.00     0.008 C 
HETATM    5  C           1      42.326 -12.628   4.244  0.00  0.00     0.012 C 
HETATM    6  C           1      41.840 -10.157   4.006  0.00  0.00     0.128 C 
HETATM    7  C           1      40.725 -11.783   2.462  0.00  0.00     0.013 C 
HETATM    8  C           1      43.378 -18.408   3.362  0.00  0.00     0.017 A 
HETATM    9  C           1      43.745 -10.897   5.436  0.00  0.00     0.020 C 
HETATM   10  C           1      40.548 -10.502   3.278  0.00  0.00     0.033 C 
HETATM   11  C           1      42.742 -13.816   5.141  0.00  0.00     0.054 C 
HETATM   12  C           1      42.800 -15.095   4.356  0.00  0.00     0.010 A 
HETATM   13  C           1      42.294 -15.238   3.130  0.00  0.00     0.054 A 
HETATM   14  N           1      42.453 -16.413   2.701  0.00  0.00    -0.244 NA
HETATM   15  C           1      43.062 -17.109   3.569  0.00  0.00     0.110 A 
HETATM   16  C           1      43.076 -19.022   2.197  0.00  0.00     0.130 A 
HETATM   17  N           1      43.319 -20.230   1.903  0.00  0.00    -0.272 NA
HETATM   18  C           1      43.903 -20.942   2.769  0.00  0.00     0.116 A 
HETATM   19  C           1      44.270 -20.474   3.970  0.00  0.00     0.020 A 
HETATM   20  C           1      44.004 -19.192   4.264  0.00  0.00     0.017 A 
HETATM   21  S           1      43.371 -16.367   4.804  0.00  0.00    -0.072 SA
ENDROOT
BRANCH   1  22
HETATM   22  C           1      40.513 -14.738   1.418  0.00  0.00     0.114 C 
BRANCH  22  23
HETATM   23  C           1      40.366 -14.086   0.049  0.00  0.00     0.218 C 
HETATM   24  N           1      39.268 -14.520  -0.644  0.00  0.00    -0.354 N 
HETATM   25  H           1      38.703 -15.256  -0.220  0.00  0.00     0.162 HD
HETATM   26  O           1      41.135 -13.259  -0.375  0.00  0.00    -0.274 OA
BRANCH  24  27
HETATM   27  C           1      38.923 -14.089  -2.005  0.00  0.00     0.108 C 
BRANCH  27  28
HETATM   28  C           1      38.630 -15.255  -2.955  0.00  0.00     0.189 C 
BRANCH  28  29
HETATM   29  O           1      38.339 -16.419  -2.208  0.00  0.00    -0.399 OA
HETATM   30  H           1      38.598 -16.284  -1.294  0.00  0.00     0.209 HD
ENDBRANCH  28  29
ENDBRANCH  27  28
BRANCH  27  31
HETATM   31  C           1      37.800 -13.037  -2.012  0.00  0.00     0.031 C 
BRANCH  31  32
HETATM   32  C           1      38.226 -11.552  -2.026  0.00  0.00    -0.021 C 
HETATM   33  C           1      39.479 -11.320  -2.888  0.00  0.00     0.009 C 
HETATM   34  C           1      38.421 -10.936  -0.632  0.00  0.00     0.009 C 
ENDBRANCH  31  32
ENDBRANCH  27  31
ENDBRANCH  24  27
ENDBRANCH  22  23
ENDBRANCH   1  22
BRANCH   4  35
HETATM   35  C           1      41.421 -11.247   6.262  0.00  0.00     0.176 C 
BRANCH  35  36
HETATM   36  O           1      41.999 -10.474   7.299  0.00  0.00    -0.400 OA
HETATM   37  H           1      42.955 -10.508   7.238  0.00  0.00     0.209 HD
ENDBRANCH  35  36
ENDBRANCH   4  35
BRANCH   6  38
HETATM   38  O           1      41.659  -8.924   4.661  0.00  0.00    -0.395 OA
HETATM   39  H           1      40.818  -8.539   4.409  0.00  0.00     0.210 HD
ENDBRANCH   6  38
TORSDOF 10
ENDMDL
MODEL 3
REMARK VINA RESULT:      -8.0      2.945      6.157
REMARK  10 active torsions:
REMARK  status: ('A' for Active; 'I' for Inactive)
REMARK    1  A    between atoms: C_1  and  C_17 
REMARK    2  A    between atoms: C_4  and  C_5 
REMARK    3  A    between atoms: C_5  and  O_18 
REMARK    4  A    between atoms: C_6  and  C_11 
REMARK    5  A    between atoms: C_6  and  C_14 
REMARK    6  A    between atoms: C_6  and  N_15 
REMARK    7  A    between atoms: C_8  and  O_20 
REMARK    8  A    between atoms: C_11  and  O_34 
REMARK    9  A    between atoms: C_13  and  C_14 
REMARK       I    between atoms: N_15  and  C_16 
REMARK   10  A    between atoms: C_16  and  C_17 
ROOT
HETATM    1  C           1      42.672 -12.081   5.521  0.00  0.00     0.056 C 
HETATM    2  C           1      42.127 -13.243   4.617  0.00  0.00    -0.030 C 
HETATM    3  C           1      41.218 -14.148   5.478  0.00  0.00     0.016 C 
HETATM    4  C           1      41.111 -13.484   2.127  0.00  0.00     0.008 C 
HETATM    5  C           1      41.372 -12.610   3.403  0.00  0.00     0.012 C 
HETATM    6  C           1      42.401 -14.258   1.784  0.00  0.00     0.128 C 
HETATM    7  C           1      43.331 -14.067   4.101  0.00  0.00     0.013 C 
HETATM    8  C           1      40.325  -8.566   7.628  0.00  0.00     0.017 A 
HETATM    9  C           1      40.808 -12.538   0.931  0.00  0.00     0.020 C 
HETATM   10  C           1      42.977 -15.028   2.964  0.00  0.00     0.033 C 
HETATM   11  C           1      40.137 -11.805   3.868  0.00  0.00     0.054 C 
HETATM   12  C           1      40.463 -10.951   5.059  0.00  0.00     0.010 A 
HETATM   13  C           1      41.577 -11.080   5.784  0.00  0.00     0.054 A 
HETATM   14  N           1      41.600 -10.259   6.741  0.00  0.00    -0.244 NA
HETATM   15  C           1      40.553  -9.543   6.720  0.00  0.00     0.110 A 
HETATM   16  C           1      41.228  -8.291   8.595  0.00  0.00     0.130 A 
HETATM   17  N           1      41.113  -7.407   9.495  0.00  0.00    -0.272 NA
HETATM   18  C           1      40.063  -6.704   9.501  0.00  0.00     0.116 A 
HETATM   19  C           1      39.079  -6.855   8.603  0.00  0.00     0.020 A 
HETATM   20  C           1      39.218  -7.797   7.658  0.00  0.00     0.017 A 
HETATM   21  S           1      39.626  -9.892   5.628  0.00  0.00    -0.072 SA
ENDROOT
BRANCH   1  22
HETATM   22  C           1      43.357 -12.521   6.834  0.00  0.00     0.114 C 
BRANCH  22  23
HETATM   23  C           1      44.609 -11.751   7.235  0.00  0.00     0.218 C 
HETATM   24  N           1      44.465 -11.050   8.402  0.00  0.00    -0.354 N 
HETATM   25  H           1      43.547 -11.059   8.848  0.00  0.00     0.162 HD
HETATM   26  O           1      45.631 -11.771   6.594  0.00  0.00    -0.274 OA
BRANCH  24  27
HETATM   27  C           1      45.501 -10.187   8.984  0.00  0.00     0.108 C 
BRANCH  27  28
HETATM   28  C           1      45.637  -8.836   8.273  0.00  0.00     0.189 C 
BRANCH  28  29
HETATM   29  O           1      46.774  -8.852   7.432  0.00  0.00    -0.399 OA
HETATM   30  H           1      46.791  -8.050   6.905  0.00  0.00     0.209 HD
ENDBRANCH  28  29
ENDBRANCH  27  28
BRANCH  27  31
HETATM   31  C           1      45.335 -10.028  10.507  0.00  0.00     0.031 C 
BRANCH  31  32
HETATM   32  C           1      43.893  -9.930  11.050  0.00  0.00    -0.021 C 
HETATM   33  C           1      43.619  -8.571  11.720  0.00  0.00     0.009 C 
HETATM   34  C           1      43.492 -11.075  11.995  0.00  0.00     0.009 C 
ENDBRANCH  31  32
ENDBRANCH  27  31
ENDBRANCH  24  27
ENDBRANCH  22  23
ENDBRANCH   1  22
BRANCH   4  35
HETATM   35  C           1      39.912 -14.445   2.262  0.00  0.00     0.176 C 
BRANCH  35  36
HETATM   36  O           1      39.498 -14.948   1.005  0.00  0.00    -0.400 OA
HETATM   37  H           1      39.296 -15.882   1.076  0.00  0.00     0.209 HD
ENDBRANCH  35  36
ENDBRANCH   4  35
BRANCH   6  38
HETATM   38  O           1      42.183 -15.169   0.732  0.00  0.00    -0.395 OA
HETATM   39  H           1      42.834 -15.036   0.042  0.00  0.00     0.210 HD
ENDBRANCH   6  38
TORSDOF 10
ENDMDL
MODEL 4
REMARK VINA RESULT:      -7.9      3.488      7.022
REMARK  10 active torsions:
REMARK  status: ('A' for Active; 'I' for Inactive)
REMARK    1  A    between atoms: C_1  and  C_17 
REMARK    2  A    between atoms: C_4  and  C_5 
REMARK    3  A    between atoms: C_5  and  O_18 
REMARK    4  A    between atoms: C_6  and  C_11 
REMARK    5  A    between atoms: C_6  and  C_14 
REMARK    6  A    between atoms: C_6  and  N_15 
REMARK    7  A    between atoms: C_8  and  O_20 
REMARK    8  A    between atoms: C_11  and  O_34 
REMARK    9  A    between atoms: C_13  and  C_14 
REMARK       I    between atoms: N_15  and  C_16 
REMARK   10  A    between atoms: C_16  and  C_17 
ROOT
HETATM    1  C           1      41.314 -13.984   2.824  0.00  0.00     0.056 C 
HETATM    2  C           1      41.980 -12.855   3.687  0.00  0.00    -0.030 C 
HETATM    3  C           1      43.152 -12.250   2.882  0.00  0.00     0.016 C 
HETATM    4  C           1      41.136 -10.811   5.237  0.00  0.00     0.008 C 
HETATM    5  C           1      40.885 -11.796   4.043  0.00  0.00     0.012 C 
HETATM    6  C           1      41.709 -11.608   6.427  0.00  0.00     0.128 C 
HETATM    7  C           1      42.525 -13.490   4.989  0.00  0.00     0.013 C 
HETATM    8  C           1      38.988 -13.655  -1.272  0.00  0.00     0.017 A 
HETATM    9  C           1      39.770 -10.223   5.690  0.00  0.00     0.020 C 
HETATM   10  C           1      42.912 -12.465   6.058  0.00  0.00     0.033 C 
HETATM   11  C           1      40.336 -11.108   2.773  0.00  0.00     0.054 C 
HETATM   12  C           1      40.068 -12.109   1.686  0.00  0.00     0.010 A 
HETATM   13  C           1      40.504 -13.370   1.712  0.00  0.00     0.054 A 
HETATM   14  N           1      40.164 -13.995   0.672  0.00  0.00    -0.244 NA
HETATM   15  C           1      39.493 -13.234  -0.089  0.00  0.00     0.110 A 
HETATM   16  C           1      39.157 -14.929  -1.688  0.00  0.00     0.130 A 
HETATM   17  N           1      38.734 -15.424  -2.774  0.00  0.00    -0.272 NA
HETATM   18  C           1      38.086 -14.668  -3.553  0.00  0.00     0.116 A 
HETATM   19  C           1      37.832 -13.382  -3.277  0.00  0.00     0.020 A 
HETATM   20  C           1      38.289 -12.875  -2.122  0.00  0.00     0.017 A 
HETATM   21  S           1      39.337 -11.867   0.439  0.00  0.00    -0.072 SA
ENDROOT
BRANCH   1  22
HETATM   22  C           1      42.276 -15.068   2.286  0.00  0.00     0.114 C 
BRANCH  22  23
HETATM   23  C           1      42.192 -16.437   2.947  0.00  0.00     0.218 C 
HETATM   24  N           1      43.139 -17.317   2.497  0.00  0.00    -0.354 N 
HETATM   25  H           1      43.753 -17.005   1.744  0.00  0.00     0.162 HD
HETATM   26  O           1      41.379 -16.713   3.795  0.00  0.00    -0.274 OA
BRANCH  24  27
HETATM   27  C           1      43.246 -18.715   2.934  0.00  0.00     0.108 C 
BRANCH  27  28
HETATM   28  C           1      43.090 -19.723   1.789  0.00  0.00     0.189 C 
BRANCH  28  29
HETATM   29  O           1      43.976 -20.807   1.984  0.00  0.00    -0.399 OA
HETATM   30  H           1      44.251 -21.151   1.131  0.00  0.00     0.209 HD
ENDBRANCH  28  29
ENDBRANCH  27  28
BRANCH  27  31
HETATM   31  C           1      44.520 -18.967   3.761  0.00  0.00     0.031 C 
BRANCH  31  32
HETATM   32  C           1      44.331 -19.356   5.243  0.00  0.00    -0.021 C 
HETATM   33  C           1      43.811 -20.796   5.401  0.00  0.00     0.009 C 
HETATM   34  C           1      43.450 -18.385   6.046  0.00  0.00     0.009 C 
ENDBRANCH  31  32
ENDBRANCH  27  31
ENDBRANCH  24  27
ENDBRANCH  22  23
ENDBRANCH   1  22
BRANCH   4  35
HETATM   35  C           1      42.049  -9.620   4.882  0.00  0.00     0.176 C 
BRANCH  35  36
HETATM   36  O           1      41.766  -8.485   5.680  0.00  0.00    -0.400 OA
HETATM   37  H           1      41.411  -8.760   6.527  0.00  0.00     0.209 HD
ENDBRANCH  35  36
ENDBRANCH   4  35
BRANCH   6  38
HETATM   38  O           1      42.088 -10.751   7.478  0.00  0.00    -0.395 OA
HETATM   39  H           1      42.828 -10.206   7.206  0.00  0.00     0.210 HD
ENDBRANCH   6  38
TORSDOF 10
ENDMDL
MODEL 5
REMARK VINA RESULT:      -7.8      2.935      6.719
REMARK  10 active torsions:
REMARK  status: ('A' for Active; 'I' for Inactive)
REMARK    1  A    between atoms: C_1  and  C_17 
REMARK    2  A    between atoms: C_4  and  C_5 
REMARK    3  A    between atoms: C_5  and  O_18 
REMARK    4  A    between atoms: C_6  and  C_11 
REMARK    5  A    between atoms: C_6  and  C_14 
REMARK    6  A    between atoms: C_6  and  N_15 
REMARK    7  A    between atoms: C_8  and  O_20 
REMARK    8  A    between atoms: C_11  and  O_34 
REMARK    9  A    between atoms: C_13  and  C_14 
REMARK       I    between atoms: N_15  and  C_16 
REMARK   10  A    between atoms: C_16  and  C_17 
ROOT
HETATM    1  C           1      43.114 -12.589   5.333  0.00  0.00     0.056 C 
HETATM    2  C           1      42.627 -14.056   5.058  0.00  0.00    -0.030 C 
HETATM    3  C           1      41.277 -14.267   5.777  0.00  0.00     0.016 C 
HETATM    4  C           1      42.496 -15.716   2.932  0.00  0.00     0.008 C 
HETATM    5  C           1      42.524 -14.259   3.510  0.00  0.00     0.012 C 
HETATM    6  C           1      43.576 -16.555   3.647  0.00  0.00     0.128 C 
HETATM    7  C           1      43.676 -15.037   5.636  0.00  0.00     0.013 C 
HETATM    8  C           1      41.193  -8.489   3.994  0.00  0.00     0.017 A 
HETATM    9  C           1      42.877 -15.660   1.426  0.00  0.00     0.020 C 
HETATM   10  C           1      43.492 -16.481   5.165  0.00  0.00     0.033 C 
HETATM   11  C           1      41.461 -13.323   2.892  0.00  0.00     0.054 C 
HETATM   12  C           1      41.572 -11.933   3.446  0.00  0.00     0.010 A 
HETATM   13  C           1      42.297 -11.617   4.522  0.00  0.00     0.054 A 
HETATM   14  N           1      42.205 -10.389   4.794  0.00  0.00    -0.244 NA
HETATM   15  C           1      41.454  -9.816   3.948  0.00  0.00     0.110 A 
HETATM   16  C           1      41.750  -7.702   4.941  0.00  0.00     0.130 A 
HETATM   17  N           1      41.571  -6.456   5.079  0.00  0.00    -0.272 NA
HETATM   18  C           1      40.803  -5.877   4.258  0.00  0.00     0.116 A 
HETATM   19  C           1      40.182  -6.521   3.261  0.00  0.00     0.020 A 
HETATM   20  C           1      40.384  -7.841   3.131  0.00  0.00     0.017 A 
HETATM   21  S           1      40.898 -10.735   2.939  0.00  0.00    -0.072 SA
ENDROOT
BRANCH   1  22
HETATM   22  C           1      43.171 -12.172   6.819  0.00  0.00     0.114 C 
BRANCH  22  23
HETATM   23  C           1      44.485 -11.575   7.306  0.00  0.00     0.218 C 
HETATM   24  N           1      44.356 -10.844   8.456  0.00  0.00    -0.354 N 
HETATM   25  H           1      43.417 -10.720   8.834  0.00  0.00     0.162 HD
HETATM   26  O           1      45.537 -11.743   6.740  0.00  0.00    -0.274 OA
BRANCH  24  27
HETATM   27  C           1      45.458 -10.121   9.107  0.00  0.00     0.108 C 
BRANCH  27  28
HETATM   28  C           1      45.766  -8.769   8.456  0.00  0.00     0.189 C 
BRANCH  28  29
HETATM   29  O           1      46.773  -8.929   7.477  0.00  0.00    -0.399 OA
HETATM   30  H           1      47.606  -8.595   7.818  0.00  0.00     0.209 HD
ENDBRANCH  28  29
ENDBRANCH  27  28
BRANCH  27  31
HETATM   31  C           1      45.252 -10.001  10.628  0.00  0.00     0.031 C 
BRANCH  31  32
HETATM   32  C           1      43.799  -9.864  11.133  0.00  0.00    -0.021 C 
HETATM   33  C           1      43.524  -8.472  11.729  0.00  0.00     0.009 C 
HETATM   34  C           1      43.366 -10.958  12.122  0.00  0.00     0.009 C 
ENDBRANCH  31  32
ENDBRANCH  27  31
ENDBRANCH  24  27
ENDBRANCH  22  23
ENDBRANCH   1  22
BRANCH   4  35
HETATM   35  C           1      41.116 -16.399   3.027  0.00  0.00     0.176 C 
BRANCH  35  36
HETATM   36  O           1      40.418 -16.346   1.796  0.00  0.00    -0.400 OA
HETATM   37  H           1      41.024 -16.497   1.069  0.00  0.00     0.209 HD
ENDBRANCH  35  36
ENDBRANCH   4  35
BRANCH   6  38
HETATM   38  O           1      43.500 -17.909   3.270  0.00  0.00    -0.395 OA
HETATM   39  H           1      44.375 -18.245   3.071  0.00  0.00     0.210 HD
ENDBRANCH   6  38
TORSDOF 10
ENDMDL
MODEL 6
REMARK VINA RESULT:      -7.8      2.215      3.580
REMARK  10 active torsions:
REMARK  status: ('A' for Active; 'I' for Inactive)
REMARK    1  A    between atoms: C_1  and  C_17 
REMARK    2  A    between atoms: C_4  and  C_5 
REMARK    3  A    between atoms: C_5  and  O_18 
REMARK    4  A    between atoms: C_6  and  C_11 
REMARK    5  A    between atoms: C_6  and  C_14 
REMARK    6  A    between atoms: C_6  and  N_15 
REMARK    7  A    between atoms: C_8  and  O_20 
REMARK    8  A    between atoms: C_11  and  O_34 
REMARK    9  A    between atoms: C_13  and  C_14 
REMARK       I    between atoms: N_15  and  C_16 
REMARK   10  A    between atoms: C_16  and  C_17 
ROOT
HETATM    1  C           1      40.856 -14.354   1.731  0.00  0.00     0.056 C 
HETATM    2  C           1      39.996 -13.766   0.557  0.00  0.00    -0.030 C 
HETATM    3  C           1      38.758 -13.066   1.161  0.00  0.00     0.016 C 
HETATM    4  C           1      40.459 -12.405  -1.728  0.00  0.00     0.008 C 
HETATM    5  C           1      40.894 -12.791  -0.272  0.00  0.00     0.012 C 
HETATM    6  C           1      40.000 -13.680  -2.464  0.00  0.00     0.128 C 
HETATM    7  C           1      39.535 -14.935  -0.347  0.00  0.00     0.013 C 
HETATM    8  C           1      43.184 -12.104   5.167  0.00  0.00     0.017 A 
HETATM    9  C           1      41.700 -11.856  -2.487  0.00  0.00     0.020 C 
HETATM   10  C           1      38.961 -14.483  -1.692  0.00  0.00     0.033 C 
HETATM   11  C           1      41.351 -11.586   0.582  0.00  0.00     0.054 C 
HETATM   12  C           1      41.802 -12.025   1.944  0.00  0.00     0.010 A 
HETATM   13  C           1      41.578 -13.242   2.445  0.00  0.00     0.054 A 
HETATM   14  N           1      42.039 -13.349   3.614  0.00  0.00    -0.244 NA
HETATM   15  C           1      42.592 -12.262   3.961  0.00  0.00     0.110 A 
HETATM   16  C           1      43.235 -13.120   6.057  0.00  0.00     0.130 A 
HETATM   17  N           1      43.757 -13.079   7.210  0.00  0.00    -0.272 NA
HETATM   18  C           1      44.289 -11.993   7.578  0.00  0.00     0.116 A 
HETATM   19  C           1      44.322 -10.898   6.805  0.00  0.00     0.020 A 
HETATM   20  C           1      43.764 -10.960   5.587  0.00  0.00     0.017 A 
HETATM   21  S           1      42.510 -11.208   2.933  0.00  0.00    -0.072 SA
ENDROOT
BRANCH   1  22
HETATM   22  C           1      40.097 -15.261   2.726  0.00  0.00     0.114 C 
BRANCH  22  23
HETATM   23  C           1      40.953 -16.147   3.623  0.00  0.00     0.218 C 
HETATM   24  N           1      42.062 -16.646   2.995  0.00  0.00    -0.354 N 
HETATM   25  H           1      42.178 -16.435   2.004  0.00  0.00     0.162 HD
HETATM   26  O           1      40.684 -16.374   4.777  0.00  0.00    -0.274 OA
BRANCH  24  27
HETATM   27  C           1      43.024 -17.565   3.618  0.00  0.00     0.108 C 
BRANCH  27  28
HETATM   28  C           1      43.844 -18.366   2.601  0.00  0.00     0.189 C 
BRANCH  28  29
HETATM   29  O           1      43.081 -19.457   2.125  0.00  0.00    -0.399 OA
HETATM   30  H           1      43.611 -19.973   1.514  0.00  0.00     0.209 HD
ENDBRANCH  28  29
ENDBRANCH  27  28
BRANCH  27  31
HETATM   31  C           1      43.915 -16.856   4.654  0.00  0.00     0.031 C 
BRANCH  31  32
HETATM   32  C           1      43.976 -17.471   6.069  0.00  0.00    -0.021 C 
HETATM   33  C           1      43.492 -18.932   6.084  0.00  0.00     0.009 C 
HETATM   34  C           1      43.238 -16.659   7.145  0.00  0.00     0.009 C 
ENDBRANCH  31  32
ENDBRANCH  27  31
ENDBRANCH  24  27
ENDBRANCH  22  23
ENDBRANCH   1  22
BRANCH   4  35
HETATM   35  C           1      39.371 -11.313  -1.787  0.00  0.00     0.176 C 
BRANCH  35  36
HETATM   36  O           1      39.303 -10.707  -3.065  0.00  0.00    -0.400 OA
HETATM   37  H           1      38.906  -9.837  -2.994  0.00  0.00     0.209 HD
ENDBRANCH  35  36
ENDBRANCH   4  35
BRANCH   6  38
HETATM   38  O           1      39.463 -13.372  -3.728  0.00  0.00    -0.395 OA
HETATM   39  H           1      39.857 -13.932  -4.399  0.00  0.00     0.210 HD
ENDBRANCH   6  38
TORSDOF 10
ENDMDL
MODEL 7
REMARK VINA RESULT:      -7.7      2.603      7.581
REMARK  10 active torsions:
REMARK  status: ('A' for Active; 'I' for Inactive)
REMARK    1  A    between atoms: C_1  and  C_17 
REMARK    2  A    between atoms: C_4  and  C_5 
REMARK    3  A    between atoms: C_5  and  O_18 
REMARK    4  A    between atoms: C_6  and  C_11 
REMARK    5  A    between atoms: C_6  and  C_14 
REMARK    6  A    between atoms: C_6  and  N_15 
REMARK    7  A    between atoms: C_8  and  O_20 
REMARK    8  A    between atoms: C_11  and  O_34 
REMARK    9  A    between atoms: C_13  and  C_14 
REMARK       I    between atoms: N_15  and  C_16 
REMARK   10  A    between atoms: C_16  and  C_17 
ROOT
HETATM    1  C           1      42.579 -12.840   5.024  0.00  0.00     0.056 C 
HETATM    2  C           1      42.190 -11.525   4.261  0.00  0.00    -0.030 C 
HETATM    3  C           1      43.321 -11.181   3.267  0.00  0.00     0.016 C 
HETATM    4  C           1      39.974 -10.513   3.094  0.00  0.00     0.008 C 
HETATM    5  C           1      40.815 -11.755   3.551  0.00  0.00     0.012 C 
HETATM    6  C           1      39.975  -9.468   4.229  0.00  0.00     0.128 C 
HETATM    7  C           1      42.049 -10.381   5.295  0.00  0.00     0.013 C 
HETATM    8  C           1      43.128 -17.225   3.360  0.00  0.00     0.017 A 
HETATM    9  C           1      38.501 -10.962   2.881  0.00  0.00     0.020 C 
HETATM   10  C           1      41.369  -9.129   4.738  0.00  0.00     0.033 C 
HETATM   11  C           1      40.915 -12.867   2.482  0.00  0.00     0.054 C 
HETATM   12  C           1      41.686 -14.048   2.996  0.00  0.00     0.010 A 
HETATM   13  C           1      42.419 -14.028   4.112  0.00  0.00     0.054 A 
HETATM   14  N           1      42.983 -15.138   4.310  0.00  0.00    -0.244 NA
HETATM   15  C           1      42.672 -15.951   3.387  0.00  0.00     0.110 A 
HETATM   16  C           1      43.925 -17.700   4.342  0.00  0.00     0.130 A 
HETATM   17  N           1      44.410 -18.868   4.411  0.00  0.00    -0.272 NA
HETATM   18  C           1      44.129 -19.680   3.484  0.00  0.00     0.116 A 
HETATM   19  C           1      43.347 -19.357   2.445  0.00  0.00     0.020 A 
HETATM   20  C           1      42.842 -18.115   2.387  0.00  0.00     0.017 A 
HETATM   21  S           1      41.788 -15.365   2.363  0.00  0.00    -0.072 SA
ENDROOT
BRANCH   1  22
HETATM   22  C           1      43.969 -12.834   5.699  0.00  0.00     0.114 C 
BRANCH  22  23
HETATM   23  C           1      44.032 -12.279   7.116  0.00  0.00     0.218 C 
HETATM   24  N           1      44.558 -11.017   7.183  0.00  0.00    -0.354 N 
HETATM   25  H           1      44.902 -10.603   6.316  0.00  0.00     0.162 HD
HETATM   26  O           1      43.642 -12.888   8.082  0.00  0.00    -0.274 OA
BRANCH  24  27
HETATM   27  C           1      44.776 -10.274   8.431  0.00  0.00     0.108 C 
BRANCH  27  28
HETATM   28  C           1      45.975  -9.322   8.370  0.00  0.00     0.189 C 
BRANCH  28  29
HETATM   29  O           1      45.521  -7.985   8.311  0.00  0.00    -0.399 OA
HETATM   30  H           1      45.374  -7.739   7.395  0.00  0.00     0.209 HD
ENDBRANCH  28  29
ENDBRANCH  27  28
BRANCH  27  31
HETATM   31  C           1      43.496  -9.568   8.915  0.00  0.00     0.031 C 
BRANCH  31  32
HETATM   32  C           1      43.167  -9.662  10.421  0.00  0.00    -0.021 C 
HETATM   33  C           1      43.359  -8.314  11.139  0.00  0.00     0.009 C 
HETATM   34  C           1      43.926 -10.771  11.167  0.00  0.00     0.009 C 
ENDBRANCH  31  32
ENDBRANCH  27  31
ENDBRANCH  24  27
ENDBRANCH  22  23
ENDBRANCH   1  22
BRANCH   4  35
HETATM   35  C           1      40.455  -9.887   1.769  0.00  0.00     0.176 C 
BRANCH  35  36
HETATM   36  O           1      39.387  -9.298   1.049  0.00  0.00    -0.400 OA
HETATM   37  H           1      38.566  -9.748   1.255  0.00  0.00     0.209 HD
ENDBRANCH  35  36
ENDBRANCH   4  35
BRANCH   6  38
HETATM   38  O           1      39.355  -8.272   3.820  0.00  0.00    -0.395 OA
HETATM   39  H           1      39.903  -7.822   3.175  0.00  0.00     0.210 HD
ENDBRANCH   6  38
TORSDOF 10
ENDMDL
MODEL 8
REMARK VINA RESULT:      -7.7      3.175      8.313
REMARK  10 active torsions:
REMARK  status: ('A' for Active; 'I' for Inactive)
REMARK    1  A    between atoms: C_1  and  C_17 
REMARK    2  A    between atoms: C_4  and  C_5 
REMARK    3  A    between atoms: C_5  and  O_18 
REMARK    4  A    between atoms: C_6  and  C_11 
REMARK    5  A    between atoms: C_6  and  C_14 
REMARK    6  A    between atoms: C_6  and  N_15 
REMARK    7  A    between atoms: C_8  and  O_20 
REMARK    8  A    between atoms: C_11  and  O_34 
REMARK    9  A    between atoms: C_13  and  C_14 
REMARK       I    between atoms: N_15  and  C_16 
REMARK   10  A    between atoms: C_16  and  C_17 
ROOT
HETATM    1  C           1      42.079 -13.328   3.787  0.00  0.00     0.056 C 
HETATM    2  C           1      42.219 -14.349   4.970  0.00  0.00    -0.030 C 
HETATM    3  C           1      40.820 -14.583   5.583  0.00  0.00     0.016 C 
HETATM    4  C           1      43.518 -16.674   5.417  0.00  0.00     0.008 C 
HETATM    5  C           1      42.860 -15.663   4.414  0.00  0.00     0.012 C 
HETATM    6  C           1      44.377 -15.884   6.426  0.00  0.00     0.128 C 
HETATM    7  C           1      43.152 -13.734   6.041  0.00  0.00     0.013 C 
HETATM    8  C           1      39.807 -13.792  -0.326  0.00  0.00     0.017 A 
HETATM    9  C           1      44.478 -17.605   4.623  0.00  0.00     0.020 C 
HETATM   10  C           1      43.627 -14.739   7.093  0.00  0.00     0.033 C 
HETATM   11  C           1      41.945 -16.334   3.365  0.00  0.00     0.054 C 
HETATM   12  C           1      41.388 -15.323   2.405  0.00  0.00     0.010 A 
HETATM   13  C           1      41.446 -14.003   2.599  0.00  0.00     0.054 A 
HETATM   14  N           1      40.887 -13.377   1.658  0.00  0.00    -0.244 NA
HETATM   15  C           1      40.442 -14.196   0.798  0.00  0.00     0.110 A 
HETATM   16  C           1      39.639 -12.479  -0.597  0.00  0.00     0.130 A 
HETATM   17  N           1      39.057 -11.993  -1.612  0.00  0.00    -0.272 NA
HETATM   18  C           1      38.587 -12.800  -2.464  0.00  0.00     0.116 A 
HETATM   19  C           1      38.680 -14.131  -2.338  0.00  0.00     0.020 A 
HETATM   20  C           1      39.300 -14.627  -1.256  0.00  0.00     0.017 A 
HETATM   21  S           1      40.679 -15.606   1.155  0.00  0.00    -0.072 SA
ENDROOT
BRANCH   1  22
HETATM   22  C           1      41.360 -12.004   4.129  0.00  0.00     0.114 C 
BRANCH  22  23
HETATM   23  C           1      42.170 -10.974   4.907  0.00  0.00     0.218 C 
HETATM   24  N           1      41.729 -10.793   6.190  0.00  0.00    -0.354 N 
HETATM   25  H           1      40.892 -11.301   6.477  0.00  0.00     0.162 HD
HETATM   26  O           1      43.116 -10.388   4.441  0.00  0.00    -0.274 OA
BRANCH  24  27
HETATM   27  C           1      42.301  -9.824   7.134  0.00  0.00     0.108 C 
BRANCH  27  28
HETATM   28  C           1      41.247  -9.125   8.001  0.00  0.00     0.189 C 
BRANCH  28  29
HETATM   29  O           1      41.284  -9.651   9.313  0.00  0.00    -0.399 OA
HETATM   30  H           1      40.422 -10.008   9.536  0.00  0.00     0.209 HD
ENDBRANCH  28  29
ENDBRANCH  27  28
BRANCH  27  31
HETATM   31  C           1      43.434 -10.437   7.977  0.00  0.00     0.031 C 
BRANCH  31  32
HETATM   32  C           1      44.878 -10.016   7.626  0.00  0.00    -0.021 C 
HETATM   33  C           1      45.672 -11.164   6.978  0.00  0.00     0.009 C 
HETATM   34  C           1      45.670  -9.425   8.804  0.00  0.00     0.009 C 
ENDBRANCH  31  32
ENDBRANCH  27  31
ENDBRANCH  24  27
ENDBRANCH  22  23
ENDBRANCH   1  22
BRANCH   4  35
HETATM   35  C           1      42.506 -17.580   6.146  0.00  0.00     0.176 C 
BRANCH  35  36
HETATM   36  O           1      43.116 -18.757   6.643  0.00  0.00    -0.400 OA
HETATM   37  H           1      44.020 -18.814   6.330  0.00  0.00     0.209 HD
ENDBRANCH  35  36
ENDBRANCH   4  35
BRANCH   6  38
HETATM   38  O           1      44.877 -16.727   7.437  0.00  0.00    -0.395 OA
HETATM   39  H           1      45.426 -17.412   7.053  0.00  0.00     0.210 HD
ENDBRANCH   6  38
TORSDOF 10
ENDMDL
MODEL 9
REMARK VINA RESULT:      -7.4      3.620      7.061
REMARK  10 active torsions:
REMARK  status: ('A' for Active; 'I' for Inactive)
REMARK    1  A    between atoms: C_1  and  C_17 
REMARK    2  A    between atoms: C_4  and  C_5 
REMARK    3  A    between atoms: C_5  and  O_18 
REMARK    4  A    between atoms: C_6  and  C_11 
REMARK    5  A    between atoms: C_6  and  C_14 
REMARK    6  A    between atoms: C_6  and  N_15 
REMARK    7  A    between atoms: C_8  and  O_20 
REMARK    8  A    between atoms: C_11  and  O_34 
REMARK    9  A    between atoms: C_13  and  C_14 
REMARK       I    between atoms: N_15  and  C_16 
REMARK   10  A    between atoms: C_16  and  C_17 
ROOT
HETATM    1  C           1      41.405 -12.804   2.771  0.00  0.00     0.056 C 
HETATM    2  C           1      41.527 -11.576   3.741  0.00  0.00    -0.030 C 
HETATM    3  C           1      42.153 -10.398   2.963  0.00  0.00     0.016 C 
HETATM    4  C           1      39.973 -10.376   5.594  0.00  0.00     0.008 C 
HETATM    5  C           1      40.102 -11.243   4.294  0.00  0.00     0.012 C 
HETATM    6  C           1      40.992 -10.884   6.634  0.00  0.00     0.128 C 
HETATM    7  C           1      42.456 -11.969   4.915  0.00  0.00     0.013 C 
HETATM    8  C           1      38.769 -13.313  -1.113  0.00  0.00     0.017 A 
HETATM    9  C           1      38.555 -10.592   6.195  0.00  0.00     0.020 C 
HETATM   10  C           1      42.411 -10.988   6.089  0.00  0.00     0.033 C 
HETATM   11  C           1      39.147 -10.810   3.159  0.00  0.00     0.054 C 
HETATM   12  C           1      39.281 -11.708   1.964  0.00  0.00     0.010 A 
HETATM   13  C           1      40.279 -12.579   1.797  0.00  0.00     0.054 A 
HETATM   14  N           1      40.172 -13.195   0.701  0.00  0.00    -0.244 NA
HETATM   15  C           1      39.134 -12.805   0.087  0.00  0.00     0.110 A 
HETATM   16  C           1      39.491 -14.289  -1.705  0.00  0.00     0.130 A 
HETATM   17  N           1      39.245 -14.829  -2.823  0.00  0.00    -0.272 NA
HETATM   18  C           1      38.226 -14.432  -3.458  0.00  0.00     0.116 A 
HETATM   19  C           1      37.408 -13.474  -2.999  0.00  0.00     0.020 A 
HETATM   20  C           1      37.686 -12.913  -1.812  0.00  0.00     0.017 A 
HETATM   21  S           1      38.390 -11.752   0.802  0.00  0.00    -0.072 SA
ENDROOT
BRANCH   1  22
HETATM   22  C           1      42.706 -13.209   2.041  0.00  0.00     0.114 C 
BRANCH  22  23
HETATM   23  C           1      43.239 -14.607   2.332  0.00  0.00     0.218 C 
HETATM   24  N           1      43.004 -15.021   3.615  0.00  0.00    -0.354 N 
HETATM   25  H           1      42.563 -14.357   4.252  0.00  0.00     0.162 HD
HETATM   26  O           1      43.799 -15.285   1.507  0.00  0.00    -0.274 OA
BRANCH  24  27
HETATM   27  C           1      43.458 -16.304   4.168  0.00  0.00     0.108 C 
BRANCH  27  28
HETATM   28  C           1      43.290 -16.404   5.688  0.00  0.00     0.189 C 
BRANCH  28  29
HETATM   29  O           1      44.558 -16.510   6.303  0.00  0.00    -0.399 OA
HETATM   30  H           1      44.892 -15.632   6.499  0.00  0.00     0.209 HD
ENDBRANCH  28  29
ENDBRANCH  27  28
BRANCH  27  31
HETATM   31  C           1      42.833 -17.504   3.434  0.00  0.00     0.031 C 
BRANCH  31  32
HETATM   32  C           1      43.776 -18.666   3.053  0.00  0.00    -0.021 C 
HETATM   33  C           1      43.119 -19.643   2.062  0.00  0.00     0.009 C 
HETATM   34  C           1      44.350 -19.436   4.253  0.00  0.00     0.009 C 
ENDBRANCH  31  32
ENDBRANCH  27  31
ENDBRANCH  24  27
ENDBRANCH  22  23
ENDBRANCH   1  22
BRANCH   4  35
HETATM   35  C           1      40.139  -8.861   5.354  0.00  0.00     0.176 C 
BRANCH  35  36
HETATM   36  O           1      39.381  -8.097   6.275  0.00  0.00    -0.400 OA
HETATM   37  H           1      39.573  -7.165   6.163  0.00  0.00     0.209 HD
ENDBRANCH  35  36
ENDBRANCH   4  35
BRANCH   6  38
HETATM   38  O           1      41.020 -10.051   7.768  0.00  0.00    -0.395 OA
HETATM   39  H           1      40.738 -10.540   8.543  0.00  0.00     0.210 HD
ENDBRANCH   6  38
TORSDOF 10
ENDMDL
MODEL 10
REMARK VINA RESULT:      -7.4      5.548      9.747
REMARK  10 active torsions:
REMARK  status: ('A' for Active; 'I' for Inactive)
REMARK    1  A    between atoms: C_1  and  C_17 
REMARK    2  A    between atoms: C_4  and  C_5 
REMARK    3  A    between atoms: C_5  and  O_18 
REMARK    4  A    between atoms: C_6  and  C_11 
REMARK    5  A    between atoms: C_6  and  C_14 
REMARK    6  A    between atoms: C_6  and  N_15 
REMARK    7  A    between atoms: C_8  and  O_20 
REMARK    8  A    between atoms: C_11  and  O_34 
REMARK    9  A    between atoms: C_13  and  C_14 
REMARK       I    between atoms: N_15  and  C_16 
REMARK   10  A    between atoms: C_16  and  C_17 
ROOT
HETATM    1  C           1      40.613  -8.568  10.653  0.00  0.00     0.056 C 
HETATM    2  C           1      40.515  -8.270  12.191  0.00  0.00    -0.030 C 
HETATM    3  C           1      40.627  -9.606  12.957  0.00  0.00     0.016 C 
HETATM    4  C           1      41.532  -6.451  13.908  0.00  0.00     0.008 C 
HETATM    5  C           1      41.649  -7.260  12.571  0.00  0.00     0.012 C 
HETATM    6  C           1      40.090  -5.920  14.044  0.00  0.00     0.128 C 
HETATM    7  C           1      39.137  -7.627  12.479  0.00  0.00     0.013 C 
HETATM    8  C           1      44.237 -10.272   8.152  0.00  0.00     0.017 A 
HETATM    9  C           1      42.472  -5.216  13.824  0.00  0.00     0.020 C 
HETATM   10  C           1      39.029  -6.998  13.869  0.00  0.00     0.033 C 
HETATM   11  C           1      43.047  -7.873  12.333  0.00  0.00     0.054 C 
HETATM   12  C           1      43.110  -8.590  11.016  0.00  0.00     0.010 A 
HETATM   13  C           1      42.037  -8.896  10.284  0.00  0.00     0.054 A 
HETATM   14  N           1      42.358  -9.516   9.234  0.00  0.00    -0.244 NA
HETATM   15  C           1      43.618  -9.653   9.184  0.00  0.00     0.110 A 
HETATM   16  C           1      43.533 -10.754   7.104  0.00  0.00     0.130 A 
HETATM   17  N           1      44.009 -11.352   6.094  0.00  0.00    -0.272 NA
HETATM   18  C           1      45.261 -11.518   6.044  0.00  0.00     0.116 A 
HETATM   19  C           1      46.093 -11.091   7.004  0.00  0.00     0.020 A 
HETATM   20  C           1      45.571 -10.460   8.067  0.00  0.00     0.017 A 
HETATM   21  S           1      44.317  -9.088  10.352  0.00  0.00    -0.072 SA
ENDROOT
BRANCH   1  22
HETATM   22  C           1      39.634  -9.635  10.116  0.00  0.00     0.114 C 
BRANCH  22  23
HETATM   23  C           1      39.224  -9.504   8.654  0.00  0.00     0.218 C 
HETATM   24  N           1      39.587 -10.580   7.890  0.00  0.00    -0.354 N 
HETATM   25  H           1      40.131 -11.316   8.340  0.00  0.00     0.162 HD
HETATM   26  O           1      38.626  -8.552   8.218  0.00  0.00    -0.274 OA
BRANCH  24  27
HETATM   27  C           1      39.358 -10.685   6.443  0.00  0.00     0.108 C 
BRANCH  27  28
HETATM   28  C           1      40.334  -9.846   5.611  0.00  0.00     0.189 C 
BRANCH  28  29
HETATM   29  O           1      39.753  -8.593   5.312  0.00  0.00    -0.399 OA
HETATM   30  H           1      40.437  -7.987   5.016  0.00  0.00     0.209 HD
ENDBRANCH  28  29
ENDBRANCH  27  28
BRANCH  27  31
HETATM   31  C           1      39.299 -12.149   5.970  0.00  0.00     0.031 C 
BRANCH  31  32
HETATM   32  C           1      40.543 -12.704   5.244  0.00  0.00    -0.021 C 
HETATM   33  C           1      40.207 -13.216   3.832  0.00  0.00     0.009 C 
HETATM   34  C           1      41.306 -13.783   6.029  0.00  0.00     0.009 C 
ENDBRANCH  31  32
ENDBRANCH  27  31
ENDBRANCH  24  27
ENDBRANCH  22  23
ENDBRANCH   1  22
BRANCH   4  35
HETATM   35  C           1      41.943  -7.251  15.161  0.00  0.00     0.176 C 
BRANCH  35  36
HETATM   36  O           1      42.633  -6.443  16.097  0.00  0.00    -0.400 OA
HETATM   37  H           1      42.016  -6.081  16.735  0.00  0.00     0.209 HD
ENDBRANCH  35  36
ENDBRANCH   4  35
BRANCH   6  38
HETATM   38  O           1      39.889  -5.307  15.295  0.00  0.00    -0.395 OA
HETATM   39  H           1      39.001  -5.484  15.610  0.00  0.00     0.210 HD
ENDBRANCH   6  38
TORSDOF 10
ENDMDL
