MODEL 1
REMARK VINA RESULT:      -8.6      0.000      0.000
REMARK  6 active torsions:
REMARK  status: ('A' for Active; 'I' for Inactive)
REMARK    1  A    between atoms: N_6  and  C_8 
REMARK    2  A    between atoms: C_8  and  C_9 
REMARK    3  A    between atoms: C_9  and  C_10 
REMARK    4  A    between atoms: C_10  and  N_11 
REMARK       I    between atoms: N_11  and  C_12 
REMARK       I    between atoms: C_12  and  N_13 
REMARK    5  A    between atoms: N_13  and  N_14 
REMARK       I    between atoms: N_14  and  C_15 
REMARK    6  A    between atoms: C_15  and  C_16 
ROOT
HETATM    1  N   UNL     1      39.951 -14.312   4.894  1.00  0.00    -0.342 N 
HETATM    2  C   UNL     1      40.118 -13.645   3.710  1.00  0.00     0.334 C 
HETATM    3  N   UNL     1      39.277 -14.093   2.725  1.00  0.00    -0.249 N 
HETATM    4  O   UNL     1      41.007 -12.811   3.544  1.00  0.00    -0.246 OA
HETATM    5  H   UNL     1      39.143 -14.919   4.983  1.00  0.00     0.164 HD
HETATM    6  H   UNL     1      38.372 -14.500   2.967  1.00  0.00     0.192 HD
ENDROOT
BRANCH   1   7
HETATM    7  C   UNL     1      40.680 -13.965   6.093  1.00  0.00     0.126 C 
BRANCH   7   8
HETATM    8  C   UNL     1      41.831 -14.921   6.407  1.00  0.00     0.047 C 
BRANCH   8   9
HETATM    9  C   UNL     1      43.118 -14.752   5.594  1.00  0.00     0.237 C 
BRANCH   9  10
HETATM   10  N   UNL     1      43.505 -15.970   4.801  1.00  0.00    -0.067 N 
HETATM   11  C   UNL     1      43.481 -17.257   5.582  1.00  0.00     0.274 C 
HETATM   12  C   UNL     1      43.664 -18.498   4.751  1.00  0.00    -0.026 A 
HETATM   13  C   UNL     1      43.556 -18.464   3.348  1.00  0.00    -0.049 A 
HETATM   14  C   UNL     1      43.896 -19.724   5.393  1.00  0.00     0.009 A 
HETATM   15  C   UNL     1      43.723 -19.644   2.613  1.00  0.00     0.007 A 
HETATM   16  C   UNL     1      43.317 -17.163   2.628  1.00  0.00     0.067 C 
HETATM   17  C   UNL     1      43.961 -20.855   3.263  1.00  0.00     0.001 A 
HETATM   18  C   UNL     1      44.044 -20.895   4.651  1.00  0.00     0.001 A 
HETATM   19  C   UNL     1      42.691 -16.104   3.533  1.00  0.00     0.240 C 
HETATM   20  H   UNL     1      44.474 -15.801   4.460  1.00  0.00     0.280 HD
ENDBRANCH   9  10
ENDBRANCH   8   9
ENDBRANCH   7   8
ENDBRANCH   1   7
BRANCH   3  21
HETATM   21  N   UNL     1      39.288 -13.447   1.480  1.00  0.00    -0.261 N 
HETATM   22  C   UNL     1      40.079 -13.973   0.472  1.00  0.00     0.277 C 
HETATM   23  O   UNL     1      40.709 -15.015   0.667  1.00  0.00    -0.265 OA
HETATM   24  H   UNL     1      38.712 -12.621   1.349  1.00  0.00     0.190 HD
BRANCH  22  25
HETATM   25  C   UNL     1      40.114 -13.232  -0.777  1.00  0.00     0.075 A 
HETATM   26  S   UNL     1      40.506 -11.560  -0.843  1.00  0.00    -0.077 SA
HETATM   27  C   UNL     1      40.361 -11.532  -2.529  1.00  0.00     0.052 A 
HETATM   28 BR   UNL     1      40.652  -9.992  -3.553  1.00  0.00    -0.043 Br
HETATM   29  C   UNL     1      40.014 -12.745  -3.065  1.00  0.00     0.028 A 
HETATM   30  C   UNL     1      39.870 -13.733  -2.045  1.00  0.00     0.026 A 
ENDBRANCH  22  25
ENDBRANCH   3  21
TORSDOF 6
ENDMDL
MODEL 2
REMARK VINA RESULT:      -8.3      7.490      9.896
REMARK  6 active torsions:
REMARK  status: ('A' for Active; 'I' for Inactive)
REMARK    1  A    between atoms: N_6  and  C_8 
REMARK    2  A    between atoms: C_8  and  C_9 
REMARK    3  A    between atoms: C_9  and  C_10 
REMARK    4  A    between atoms: C_10  and  N_11 
REMARK       I    between atoms: N_11  and  C_12 
REMARK       I    between atoms: C_12  and  N_13 
REMARK    5  A    between atoms: N_13  and  N_14 
REMARK       I    between atoms: N_14  and  C_15 
REMARK    6  A    between atoms: C_15  and  C_16 
ROOT
HETATM    1  N   UNL     1      43.479 -11.358   7.819  1.00  0.00    -0.342 N 
HETATM    2  C   UNL     1      43.809 -10.750   9.001  1.00  0.00     0.334 C 
HETATM    3  N   UNL     1      42.736 -10.155   9.610  1.00  0.00    -0.249 N 
HETATM    4  O   UNL     1      44.972 -10.670   9.398  1.00  0.00    -0.246 OA
HETATM    5  H   UNL     1      42.494 -11.463   7.602  1.00  0.00     0.164 HD
HETATM    6  H   UNL     1      41.793 -10.519   9.460  1.00  0.00     0.192 HD
ENDROOT
BRANCH   1   7
HETATM    7  C   UNL     1      44.435 -12.109   7.036  1.00  0.00     0.126 C 
BRANCH   7   8
HETATM    8  C   UNL     1      43.805 -12.871   5.869  1.00  0.00     0.047 C 
BRANCH   8   9
HETATM    9  C   UNL     1      42.613 -13.777   6.192  1.00  0.00     0.237 C 
BRANCH   9  10
HETATM   10  N   UNL     1      42.813 -15.215   5.801  1.00  0.00    -0.067 N 
HETATM   11  C   UNL     1      42.658 -15.488   4.328  1.00  0.00     0.274 C 
HETATM   12  C   UNL     1      43.059 -16.875   3.904  1.00  0.00    -0.026 A 
HETATM   13  C   UNL     1      43.794 -17.720   4.755  1.00  0.00    -0.049 A 
HETATM   14  C   UNL     1      42.735 -17.315   2.611  1.00  0.00     0.009 A 
HETATM   15  C   UNL     1      44.155 -19.001   4.316  1.00  0.00     0.007 A 
HETATM   16  C   UNL     1      44.149 -17.282   6.152  1.00  0.00     0.067 C 
HETATM   17  C   UNL     1      43.820 -19.428   3.032  1.00  0.00     0.001 A 
HETATM   18  C   UNL     1      43.115 -18.585   2.179  1.00  0.00     0.001 A 
HETATM   19  C   UNL     1      44.129 -15.762   6.307  1.00  0.00     0.240 C 
HETATM   20  H   UNL     1      42.096 -15.762   6.322  1.00  0.00     0.280 HD
ENDBRANCH   9  10
ENDBRANCH   8   9
ENDBRANCH   7   8
ENDBRANCH   1   7
BRANCH   3  21
HETATM   21  N   UNL     1      42.915  -9.560  10.867  1.00  0.00    -0.261 N 
HETATM   22  C   UNL     1      41.791  -9.210  11.596  1.00  0.00     0.277 C 
HETATM   23  O   UNL     1      40.669  -9.472  11.158  1.00  0.00    -0.265 OA
HETATM   24  H   UNL     1      43.859  -9.410  11.210  1.00  0.00     0.190 HD
BRANCH  22  25
HETATM   25  C   UNL     1      42.023  -8.532  12.860  1.00  0.00     0.075 A 
HETATM   26  S   UNL     1      40.993  -8.742  14.219  1.00  0.00    -0.077 SA
HETATM   27  C   UNL     1      41.941  -7.713  15.172  1.00  0.00     0.052 A 
HETATM   28 BR   UNL     1      41.549  -7.330  16.962  1.00  0.00    -0.043 Br
HETATM   29  C   UNL     1      43.020  -7.194  14.503  1.00  0.00     0.028 A 
HETATM   30  C   UNL     1      43.066  -7.671  13.159  1.00  0.00     0.026 A 
ENDBRANCH  22  25
ENDBRANCH   3  21
TORSDOF 6
ENDMDL
MODEL 3
REMARK VINA RESULT:      -8.3      5.940      8.212
REMARK  6 active torsions:
REMARK  status: ('A' for Active; 'I' for Inactive)
REMARK    1  A    between atoms: N_6  and  C_8 
REMARK    2  A    between atoms: C_8  and  C_9 
REMARK    3  A    between atoms: C_9  and  C_10 
REMARK    4  A    between atoms: C_10  and  N_11 
REMARK       I    between atoms: N_11  and  C_12 
REMARK       I    between atoms: C_12  and  N_13 
REMARK    5  A    between atoms: N_13  and  N_14 
REMARK       I    between atoms: N_14  and  C_15 
REMARK    6  A    between atoms: C_15  and  C_16 
ROOT
HETATM    1  N   UNL     1      43.729 -11.978   5.287  1.00  0.00    -0.342 N 
HETATM    2  C   UNL     1      43.079 -11.194   6.203  1.00  0.00     0.334 C 
HETATM    3  N   UNL     1      43.535 -11.381   7.482  1.00  0.00    -0.249 N 
HETATM    4  O   UNL     1      42.120 -10.484   5.899  1.00  0.00    -0.246 OA
HETATM    5  H   UNL     1      44.563 -12.466   5.593  1.00  0.00     0.164 HD
HETATM    6  H   UNL     1      44.498 -11.679   7.645  1.00  0.00     0.192 HD
ENDROOT
BRANCH   1   7
HETATM    7  C   UNL     1      43.464 -11.900   3.868  1.00  0.00     0.126 C 
BRANCH   7   8
HETATM    8  C   UNL     1      43.043 -13.235   3.251  1.00  0.00     0.047 C 
BRANCH   8   9
HETATM    9  C   UNL     1      42.763 -14.390   4.216  1.00  0.00     0.237 C 
BRANCH   9  10
HETATM   10  N   UNL     1      43.196 -15.736   3.701  1.00  0.00    -0.067 N 
HETATM   11  C   UNL     1      43.347 -16.791   4.764  1.00  0.00     0.274 C 
HETATM   12  C   UNL     1      43.575 -18.182   4.238  1.00  0.00    -0.026 A 
HETATM   13  C   UNL     1      43.358 -18.500   2.884  1.00  0.00    -0.049 A 
HETATM   14  C   UNL     1      43.964 -19.196   5.127  1.00  0.00     0.009 A 
HETATM   15  C   UNL     1      43.574 -19.810   2.437  1.00  0.00     0.007 A 
HETATM   16  C   UNL     1      42.950 -17.434   1.901  1.00  0.00     0.067 C 
HETATM   17  C   UNL     1      43.967 -20.805   3.331  1.00  0.00     0.001 A 
HETATM   18  C   UNL     1      44.158 -20.500   4.674  1.00  0.00     0.001 A 
HETATM   19  C   UNL     1      42.302 -16.230   2.585  1.00  0.00     0.240 C 
HETATM   20  H   UNL     1      44.118 -15.590   3.239  1.00  0.00     0.280 HD
ENDBRANCH   9  10
ENDBRANCH   8   9
ENDBRANCH   7   8
ENDBRANCH   1   7
BRANCH   3  21
HETATM   21  N   UNL     1      43.009 -10.587   8.510  1.00  0.00    -0.261 N 
HETATM   22  C   UNL     1      43.820 -10.291   9.594  1.00  0.00     0.277 C 
HETATM   23  O   UNL     1      44.990 -10.680   9.609  1.00  0.00    -0.265 OA
HETATM   24  H   UNL     1      42.056 -10.245   8.431  1.00  0.00     0.190 HD
BRANCH  22  25
HETATM   25  C   UNL     1      43.212  -9.525  10.669  1.00  0.00     0.075 A 
HETATM   26  S   UNL     1      41.511  -9.350  10.823  1.00  0.00    -0.077 SA
HETATM   27  C   UNL     1      41.674  -8.430  12.235  1.00  0.00     0.052 A 
HETATM   28 BR   UNL     1      40.211  -7.757  13.190  1.00  0.00    -0.043 Br
HETATM   29  C   UNL     1      42.978  -8.230  12.605  1.00  0.00     0.028 A 
HETATM   30  C   UNL     1      43.873  -8.867  11.693  1.00  0.00     0.026 A 
ENDBRANCH  22  25
ENDBRANCH   3  21
TORSDOF 6
ENDMDL
MODEL 4
REMARK VINA RESULT:      -8.3      7.445      9.738
REMARK  6 active torsions:
REMARK  status: ('A' for Active; 'I' for Inactive)
REMARK    1  A    between atoms: N_6  and  C_8 
REMARK    2  A    between atoms: C_8  and  C_9 
REMARK    3  A    between atoms: C_9  and  C_10 
REMARK    4  A    between atoms: C_10  and  N_11 
REMARK       I    between atoms: N_11  and  C_12 
REMARK       I    between atoms: C_12  and  N_13 
REMARK    5  A    between atoms: N_13  and  N_14 
REMARK       I    between atoms: N_14  and  C_15 
REMARK    6  A    between atoms: C_15  and  C_16 
ROOT
HETATM    1  N   UNL     1      43.322 -11.355   7.724  1.00  0.00    -0.342 N 
HETATM    2  C   UNL     1      43.685 -10.735   8.890  1.00  0.00     0.334 C 
HETATM    3  N   UNL     1      42.709  -9.906   9.377  1.00  0.00    -0.249 N 
HETATM    4  O   UNL     1      44.813 -10.846   9.371  1.00  0.00    -0.246 OA
HETATM    5  H   UNL     1      42.351 -11.289   7.438  1.00  0.00     0.164 HD
HETATM    6  H   UNL     1      41.726 -10.095   9.177  1.00  0.00     0.192 HD
ENDROOT
BRANCH   1   7
HETATM    7  C   UNL     1      44.163 -12.327   7.064  1.00  0.00     0.126 C 
BRANCH   7   8
HETATM    8  C   UNL     1      43.770 -12.588   5.609  1.00  0.00     0.047 C 
BRANCH   8   9
HETATM    9  C   UNL     1      42.604 -13.551   5.365  1.00  0.00     0.237 C 
BRANCH   9  10
HETATM   10  N   UNL     1      42.948 -14.717   4.479  1.00  0.00    -0.067 N 
HETATM   11  C   UNL     1      43.334 -15.969   5.220  1.00  0.00     0.274 C 
HETATM   12  C   UNL     1      43.476 -17.191   4.352  1.00  0.00    -0.026 A 
HETATM   13  C   UNL     1      42.992 -17.213   3.031  1.00  0.00    -0.049 A 
HETATM   14  C   UNL     1      44.060 -18.348   4.890  1.00  0.00     0.009 A 
HETATM   15  C   UNL     1      43.136 -18.374   2.261  1.00  0.00     0.007 A 
HETATM   16  C   UNL     1      42.369 -15.985   2.421  1.00  0.00     0.067 C 
HETATM   17  C   UNL     1      43.724 -19.515   2.806  1.00  0.00     0.001 A 
HETATM   18  C   UNL     1      44.182 -19.503   4.119  1.00  0.00     0.001 A 
HETATM   19  C   UNL     1      41.853 -15.009   3.477  1.00  0.00     0.240 C 
HETATM   20  H   UNL     1      43.751 -14.411   3.892  1.00  0.00     0.280 HD
ENDBRANCH   9  10
ENDBRANCH   8   9
ENDBRANCH   7   8
ENDBRANCH   1   7
BRANCH   3  21
HETATM   21  N   UNL     1      42.918  -9.265  10.607  1.00  0.00    -0.261 N 
HETATM   22  C   UNL     1      41.917  -9.328  11.561  1.00  0.00     0.277 C 
HETATM   23  O   UNL     1      40.896  -9.982  11.337  1.00  0.00    -0.265 OA
HETATM   24  H   UNL     1      43.797  -8.781  10.767  1.00  0.00     0.190 HD
BRANCH  22  25
HETATM   25  C   UNL     1      42.146  -8.590  12.792  1.00  0.00     0.075 A 
HETATM   26  S   UNL     1      41.107  -8.727  14.153  1.00  0.00    -0.077 SA
HETATM   27  C   UNL     1      42.056  -7.659  15.060  1.00  0.00     0.052 A 
HETATM   28 BR   UNL     1      41.656  -7.186  16.827  1.00  0.00    -0.043 Br
HETATM   29  C   UNL     1      43.142  -7.180  14.374  1.00  0.00     0.028 A 
HETATM   30  C   UNL     1      43.193  -7.722  13.054  1.00  0.00     0.026 A 
ENDBRANCH  22  25
ENDBRANCH   3  21
TORSDOF 6
ENDMDL
MODEL 5
REMARK VINA RESULT:      -7.7      6.544      8.931
REMARK  6 active torsions:
REMARK  status: ('A' for Active; 'I' for Inactive)
REMARK    1  A    between atoms: N_6  and  C_8 
REMARK    2  A    between atoms: C_8  and  C_9 
REMARK    3  A    between atoms: C_9  and  C_10 
REMARK    4  A    between atoms: C_10  and  N_11 
REMARK       I    between atoms: N_11  and  C_12 
REMARK       I    between atoms: C_12  and  N_13 
REMARK    5  A    between atoms: N_13  and  N_14 
REMARK       I    between atoms: N_14  and  C_15 
REMARK    6  A    between atoms: C_15  and  C_16 
ROOT
HETATM    1  N   UNL     1      43.726 -12.232   7.161  1.00  0.00    -0.342 N 
HETATM    2  C   UNL     1      43.250 -11.077   7.722  1.00  0.00     0.334 C 
HETATM    3  N   UNL     1      43.435 -11.030   9.079  1.00  0.00    -0.249 N 
HETATM    4  O   UNL     1      42.632 -10.235   7.071  1.00  0.00    -0.246 OA
HETATM    5  H   UNL     1      44.302 -12.834   7.739  1.00  0.00     0.164 HD
HETATM    6  H   UNL     1      44.214 -11.532   9.509  1.00  0.00     0.192 HD
ENDROOT
BRANCH   1   7
HETATM    7  C   UNL     1      43.703 -12.472   5.736  1.00  0.00     0.126 C 
BRANCH   7   8
HETATM    8  C   UNL     1      42.659 -13.505   5.307  1.00  0.00     0.047 C 
BRANCH   8   9
HETATM    9  C   UNL     1      42.996 -14.370   4.090  1.00  0.00     0.237 C 
BRANCH   9  10
HETATM   10  N   UNL     1      43.025 -15.846   4.378  1.00  0.00    -0.067 N 
HETATM   11  C   UNL     1      43.260 -16.713   3.170  1.00  0.00     0.274 C 
HETATM   12  C   UNL     1      43.496 -18.167   3.478  1.00  0.00    -0.026 A 
HETATM   13  C   UNL     1      43.775 -18.604   4.787  1.00  0.00    -0.049 A 
HETATM   14  C   UNL     1      43.488 -19.099   2.430  1.00  0.00     0.009 A 
HETATM   15  C   UNL     1      43.998 -19.965   5.029  1.00  0.00     0.007 A 
HETATM   16  C   UNL     1      43.781 -17.630   5.936  1.00  0.00     0.067 C 
HETATM   17  C   UNL     1      43.980 -20.882   3.978  1.00  0.00     0.001 A 
HETATM   18  C   UNL     1      43.729 -20.449   2.680  1.00  0.00     0.001 A 
HETATM   19  C   UNL     1      44.006 -16.190   5.477  1.00  0.00     0.240 C 
HETATM   20  H   UNL     1      42.097 -16.083   4.787  1.00  0.00     0.280 HD
ENDBRANCH   9  10
ENDBRANCH   8   9
ENDBRANCH   7   8
ENDBRANCH   1   7
BRANCH   3  21
HETATM   21  N   UNL     1      43.063  -9.870   9.773  1.00  0.00    -0.261 N 
HETATM   22  C   UNL     1      43.705  -9.582  10.967  1.00  0.00     0.277 C 
HETATM   23  O   UNL     1      44.615 -10.311  11.366  1.00  0.00    -0.265 OA
HETATM   24  H   UNL     1      42.343  -9.270   9.380  1.00  0.00     0.190 HD
BRANCH  22  25
HETATM   25  C   UNL     1      43.238  -8.410  11.687  1.00  0.00     0.075 A 
HETATM   26  S   UNL     1      42.564  -7.047  10.887  1.00  0.00    -0.077 SA
HETATM   27  C   UNL     1      42.284  -6.249  12.353  1.00  0.00     0.052 A 
HETATM   28 BR   UNL     1      41.493  -4.555  12.460  1.00  0.00    -0.043 Br
HETATM   29  C   UNL     1      42.689  -6.967  13.449  1.00  0.00     0.028 A 
HETATM   30  C   UNL     1      43.245  -8.223  13.060  1.00  0.00     0.026 A 
ENDBRANCH  22  25
ENDBRANCH   3  21
TORSDOF 6
ENDMDL
MODEL 6
REMARK VINA RESULT:      -7.7      2.373      2.733
REMARK  6 active torsions:
REMARK  status: ('A' for Active; 'I' for Inactive)
REMARK    1  A    between atoms: N_6  and  C_8 
REMARK    2  A    between atoms: C_8  and  C_9 
REMARK    3  A    between atoms: C_9  and  C_10 
REMARK    4  A    between atoms: C_10  and  N_11 
REMARK       I    between atoms: N_11  and  C_12 
REMARK       I    between atoms: C_12  and  N_13 
REMARK    5  A    between atoms: N_13  and  N_14 
REMARK       I    between atoms: N_14  and  C_15 
REMARK    6  A    between atoms: C_15  and  C_16 
ROOT
HETATM    1  N   UNL     1      43.401 -11.112   5.304  1.00  0.00    -0.342 N 
HETATM    2  C   UNL     1      43.280 -11.229   3.945  1.00  0.00     0.334 C 
HETATM    3  N   UNL     1      42.327 -10.395   3.423  1.00  0.00    -0.249 N 
HETATM    4  O   UNL     1      43.898 -12.076   3.300  1.00  0.00    -0.246 OA
HETATM    5  H   UNL     1      42.929 -10.335   5.754  1.00  0.00     0.164 HD
HETATM    6  H   UNL     1      42.104  -9.514   3.888  1.00  0.00     0.192 HD
ENDROOT
BRANCH   1   7
HETATM    7  C   UNL     1      44.390 -11.842   6.064  1.00  0.00     0.126 C 
BRANCH   7   8
HETATM    8  C   UNL     1      43.795 -12.937   6.951  1.00  0.00     0.047 C 
BRANCH   8   9
HETATM    9  C   UNL     1      42.589 -13.701   6.398  1.00  0.00     0.237 C 
BRANCH   9  10
HETATM   10  N   UNL     1      42.924 -14.640   5.272  1.00  0.00    -0.067 N 
HETATM   11  C   UNL     1      43.336 -16.020   5.712  1.00  0.00     0.274 C 
HETATM   12  C   UNL     1      43.470 -17.019   4.595  1.00  0.00    -0.026 A 
HETATM   13  C   UNL     1      42.958 -16.758   3.311  1.00  0.00    -0.049 A 
HETATM   14  C   UNL     1      44.073 -18.259   4.855  1.00  0.00     0.009 A 
HETATM   15  C   UNL     1      43.096 -17.720   2.302  1.00  0.00     0.007 A 
HETATM   16  C   UNL     1      42.313 -15.434   2.996  1.00  0.00     0.067 C 
HETATM   17  C   UNL     1      43.704 -18.945   2.572  1.00  0.00     0.001 A 
HETATM   18  C   UNL     1      44.189 -19.216   3.848  1.00  0.00     0.001 A 
HETATM   19  C   UNL     1      41.811 -14.719   4.250  1.00  0.00     0.240 C 
HETATM   20  H   UNL     1      43.712 -14.203   4.751  1.00  0.00     0.280 HD
ENDBRANCH   9  10
ENDBRANCH   8   9
ENDBRANCH   7   8
ENDBRANCH   1   7
BRANCH   3  21
HETATM   21  N   UNL     1      42.150 -10.356   2.032  1.00  0.00    -0.261 N 
HETATM   22  C   UNL     1      41.044 -10.991   1.491  1.00  0.00     0.277 C 
HETATM   23  O   UNL     1      40.219 -11.526   2.234  1.00  0.00    -0.265 OA
HETATM   24  H   UNL     1      42.829  -9.859   1.463  1.00  0.00     0.190 HD
BRANCH  22  25
HETATM   25  C   UNL     1      40.939 -10.987   0.042  1.00  0.00     0.075 A 
HETATM   26  S   UNL     1      40.890  -9.533  -0.871  1.00  0.00    -0.077 SA
HETATM   27  C   UNL     1      40.812 -10.383  -2.333  1.00  0.00     0.052 A 
HETATM   28 BR   UNL     1      40.739  -9.540  -4.003  1.00  0.00    -0.043 Br
HETATM   29  C   UNL     1      40.810 -11.745  -2.170  1.00  0.00     0.028 A 
HETATM   30  C   UNL     1      40.883 -12.095  -0.788  1.00  0.00     0.026 A 
ENDBRANCH  22  25
ENDBRANCH   3  21
TORSDOF 6
ENDMDL
MODEL 7
REMARK VINA RESULT:      -7.6      7.076     10.365
REMARK  6 active torsions:
REMARK  status: ('A' for Active; 'I' for Inactive)
REMARK    1  A    between atoms: N_6  and  C_8 
REMARK    2  A    between atoms: C_8  and  C_9 
REMARK    3  A    between atoms: C_9  and  C_10 
REMARK    4  A    between atoms: C_10  and  N_11 
REMARK       I    between atoms: N_11  and  C_12 
REMARK       I    between atoms: C_12  and  N_13 
REMARK    5  A    between atoms: N_13  and  N_14 
REMARK       I    between atoms: N_14  and  C_15 
REMARK    6  A    between atoms: C_15  and  C_16 
ROOT
HETATM    1  N   UNL     1      43.309 -11.152   7.741  1.00  0.00    -0.342 N 
HETATM    2  C   UNL     1      43.831 -12.246   7.104  1.00  0.00     0.334 C 
HETATM    3  N   UNL     1      43.266 -13.423   7.523  1.00  0.00    -0.249 N 
HETATM    4  O   UNL     1      44.778 -12.164   6.322  1.00  0.00    -0.246 OA
HETATM    5  H   UNL     1      42.475 -11.285   8.301  1.00  0.00     0.164 HD
HETATM    6  H   UNL     1      42.308 -13.436   7.875  1.00  0.00     0.192 HD
ENDROOT
BRANCH   1   7
HETATM    7  C   UNL     1      43.702  -9.800   7.413  1.00  0.00     0.126 C 
BRANCH   7   8
HETATM    8  C   UNL     1      44.659  -9.177   8.431  1.00  0.00     0.047 C 
BRANCH   8   9
HETATM    9  C   UNL     1      45.124 -10.069   9.585  1.00  0.00     0.237 C 
BRANCH   9  10
HETATM   10  N   UNL     1      44.457  -9.768  10.899  1.00  0.00    -0.067 N 
HETATM   11  C   UNL     1      43.804  -8.414  10.971  1.00  0.00     0.274 C 
HETATM   12  C   UNL     1      42.962  -8.190  12.198  1.00  0.00    -0.026 A 
HETATM   13  C   UNL     1      42.582  -9.257  13.033  1.00  0.00    -0.049 A 
HETATM   14  C   UNL     1      42.504  -6.895  12.487  1.00  0.00     0.009 A 
HETATM   15  C   UNL     1      41.789  -9.006  14.160  1.00  0.00     0.007 A 
HETATM   16  C   UNL     1      43.064 -10.657  12.757  1.00  0.00     0.067 C 
HETATM   17  C   UNL     1      41.347  -7.713  14.439  1.00  0.00     0.001 A 
HETATM   18  C   UNL     1      41.701  -6.660  13.602  1.00  0.00     0.001 A 
HETATM   19  C   UNL     1      43.480 -10.852  11.300  1.00  0.00     0.240 C 
HETATM   20  H   UNL     1      45.202  -9.822  11.625  1.00  0.00     0.280 HD
ENDBRANCH   9  10
ENDBRANCH   8   9
ENDBRANCH   7   8
ENDBRANCH   1   7
BRANCH   3  21
HETATM   21  N   UNL     1      43.653 -14.618   6.900  1.00  0.00    -0.261 N 
HETATM   22  C   UNL     1      42.817 -15.158   5.936  1.00  0.00     0.277 C 
HETATM   23  O   UNL     1      41.790 -14.561   5.609  1.00  0.00    -0.265 OA
HETATM   24  H   UNL     1      44.534 -15.048   7.164  1.00  0.00     0.190 HD
BRANCH  22  25
HETATM   25  C   UNL     1      43.222 -16.433   5.368  1.00  0.00     0.075 A 
HETATM   26  S   UNL     1      43.433 -17.841   6.329  1.00  0.00    -0.077 SA
HETATM   27  C   UNL     1      43.830 -18.777   4.975  1.00  0.00     0.052 A 
HETATM   28 BR   UNL     1      44.234 -20.603   5.079  1.00  0.00    -0.043 Br
HETATM   29  C   UNL     1      43.823 -18.067   3.803  1.00  0.00     0.028 A 
HETATM   30  C   UNL     1      43.470 -16.703   4.032  1.00  0.00     0.026 A 
ENDBRANCH  22  25
ENDBRANCH   3  21
TORSDOF 6
ENDMDL
MODEL 8
REMARK VINA RESULT:      -7.5     15.017     16.912
REMARK  6 active torsions:
REMARK  status: ('A' for Active; 'I' for Inactive)
REMARK    1  A    between atoms: N_6  and  C_8 
REMARK    2  A    between atoms: C_8  and  C_9 
REMARK    3  A    between atoms: C_9  and  C_10 
REMARK    4  A    between atoms: C_10  and  N_11 
REMARK       I    between atoms: N_11  and  C_12 
REMARK       I    between atoms: C_12  and  N_13 
REMARK    5  A    between atoms: N_13  and  N_14 
REMARK       I    between atoms: N_14  and  C_15 
REMARK    6  A    between atoms: C_15  and  C_16 
ROOT
HETATM    1  N   UNL     1      45.925 -28.222   1.684  1.00  0.00    -0.342 N 
HETATM    2  C   UNL     1      45.264 -29.156   2.436  1.00  0.00     0.334 C 
HETATM    3  N   UNL     1      43.932 -28.870   2.587  1.00  0.00    -0.249 N 
HETATM    4  O   UNL     1      45.848 -30.085   2.993  1.00  0.00    -0.246 OA
HETATM    5  H   UNL     1      45.367 -27.538   1.184  1.00  0.00     0.164 HD
HETATM    6  H   UNL     1      43.437 -28.336   1.871  1.00  0.00     0.192 HD
ENDROOT
BRANCH   1   7
HETATM    7  C   UNL     1      47.322 -28.350   1.334  1.00  0.00     0.126 C 
BRANCH   7   8
HETATM    8  C   UNL     1      47.647 -27.856  -0.077  1.00  0.00     0.047 C 
BRANCH   8   9
HETATM    9  C   UNL     1      48.148 -28.898  -1.080  1.00  0.00     0.237 C 
BRANCH   9  10
HETATM   10  N   UNL     1      47.264 -29.061  -2.287  1.00  0.00    -0.067 N 
HETATM   11  C   UNL     1      46.960 -30.490  -2.648  1.00  0.00     0.274 C 
HETATM   12  C   UNL     1      45.916 -30.656  -3.719  1.00  0.00    -0.026 A 
HETATM   13  C   UNL     1      45.092 -29.585  -4.114  1.00  0.00    -0.049 A 
HETATM   14  C   UNL     1      45.725 -31.919  -4.300  1.00  0.00     0.009 A 
HETATM   15  C   UNL     1      44.126 -29.785  -5.108  1.00  0.00     0.007 A 
HETATM   16  C   UNL     1      45.277 -28.214  -3.517  1.00  0.00     0.067 C 
HETATM   17  C   UNL     1      43.953 -31.044  -5.683  1.00  0.00     0.001 A 
HETATM   18  C   UNL     1      44.749 -32.110  -5.277  1.00  0.00     0.001 A 
HETATM   19  C   UNL     1      45.987 -28.260  -2.165  1.00  0.00     0.240 C 
HETATM   20  H   UNL     1      47.767 -28.612  -3.080  1.00  0.00     0.280 HD
ENDBRANCH   9  10
ENDBRANCH   8   9
ENDBRANCH   7   8
ENDBRANCH   1   7
BRANCH   3  21
HETATM   21  N   UNL     1      43.118 -29.783   3.272  1.00  0.00    -0.261 N 
HETATM   22  C   UNL     1      41.927 -30.174   2.682  1.00  0.00     0.277 C 
HETATM   23  O   UNL     1      41.633 -29.760   1.559  1.00  0.00    -0.265 OA
HETATM   24  H   UNL     1      43.425 -30.138   4.172  1.00  0.00     0.190 HD
BRANCH  22  25
HETATM   25  C   UNL     1      41.082 -31.066   3.458  1.00  0.00     0.075 A 
HETATM   26  S   UNL     1      40.248 -32.390   2.749  1.00  0.00    -0.077 SA
HETATM   27  C   UNL     1      39.604 -32.861   4.242  1.00  0.00     0.052 A 
HETATM   28 BR   UNL     1      38.487 -34.349   4.449  1.00  0.00    -0.043 Br
HETATM   29  C   UNL     1      39.983 -32.047   5.278  1.00  0.00     0.028 A 
HETATM   30  C   UNL     1      40.842 -31.003   4.821  1.00  0.00     0.026 A 
ENDBRANCH  22  25
ENDBRANCH   3  21
TORSDOF 6
ENDMDL
MODEL 9
REMARK VINA RESULT:      -7.3      3.920      7.886
REMARK  6 active torsions:
REMARK  status: ('A' for Active; 'I' for Inactive)
REMARK    1  A    between atoms: N_6  and  C_8 
REMARK    2  A    between atoms: C_8  and  C_9 
REMARK    3  A    between atoms: C_9  and  C_10 
REMARK    4  A    between atoms: C_10  and  N_11 
REMARK       I    between atoms: N_11  and  C_12 
REMARK       I    between atoms: C_12  and  N_13 
REMARK    5  A    between atoms: N_13  and  N_14 
REMARK       I    between atoms: N_14  and  C_15 
REMARK    6  A    between atoms: C_15  and  C_16 
ROOT
HETATM    1  N   UNL     1      40.936 -11.579   4.049  1.00  0.00    -0.342 N 
HETATM    2  C   UNL     1      41.076 -12.942   4.077  1.00  0.00     0.334 C 
HETATM    3  N   UNL     1      42.386 -13.340   4.121  1.00  0.00    -0.249 N 
HETATM    4  O   UNL     1      40.116 -13.704   3.966  1.00  0.00    -0.246 OA
HETATM    5  H   UNL     1      41.760 -11.018   4.235  1.00  0.00     0.164 HD
HETATM    6  H   UNL     1      43.093 -12.738   4.547  1.00  0.00     0.192 HD
ENDROOT
BRANCH   1   7
HETATM    7  C   UNL     1      39.646 -10.928   4.071  1.00  0.00     0.126 C 
BRANCH   7   8
HETATM    8  C   UNL     1      39.356 -10.102   2.817  1.00  0.00     0.047 C 
BRANCH   8   9
HETATM    9  C   UNL     1      40.297 -10.294   1.624  1.00  0.00     0.237 C 
BRANCH   9  10
HETATM   10  N   UNL     1      39.632 -10.880   0.409  1.00  0.00    -0.067 N 
HETATM   11  C   UNL     1      40.207 -12.196  -0.043  1.00  0.00     0.274 C 
HETATM   12  C   UNL     1      39.418 -12.886  -1.123  1.00  0.00    -0.026 A 
HETATM   13  C   UNL     1      38.111 -12.480  -1.451  1.00  0.00    -0.049 A 
HETATM   14  C   UNL     1      39.981 -13.989  -1.783  1.00  0.00     0.009 A 
HETATM   15  C   UNL     1      37.409 -13.156  -2.457  1.00  0.00     0.007 A 
HETATM   16  C   UNL     1      37.481 -11.295  -0.768  1.00  0.00     0.067 C 
HETATM   17  C   UNL     1      37.983 -14.246  -3.110  1.00  0.00     0.001 A 
HETATM   18  C   UNL     1      39.266 -14.664  -2.771  1.00  0.00     0.001 A 
HETATM   19  C   UNL     1      38.132 -10.986   0.579  1.00  0.00     0.240 C 
HETATM   20  H   UNL     1      39.749 -10.181  -0.354  1.00  0.00     0.280 HD
ENDBRANCH   9  10
ENDBRANCH   8   9
ENDBRANCH   7   8
ENDBRANCH   1   7
BRANCH   3  21
HETATM   21  N   UNL     1      42.674 -14.708   4.229  1.00  0.00    -0.261 N 
HETATM   22  C   UNL     1      43.203 -15.359   3.127  1.00  0.00     0.277 C 
HETATM   23  O   UNL     1      43.458 -14.723   2.102  1.00  0.00    -0.265 OA
HETATM   24  H   UNL     1      42.496 -15.181   5.110  1.00  0.00     0.190 HD
BRANCH  22  25
HETATM   25  C   UNL     1      43.419 -16.790   3.261  1.00  0.00     0.075 A 
HETATM   26  S   UNL     1      43.864 -17.516   4.753  1.00  0.00    -0.077 SA
HETATM   27  C   UNL     1      43.863 -19.064   4.067  1.00  0.00     0.052 A 
HETATM   28 BR   UNL     1      44.253 -20.614   5.044  1.00  0.00    -0.043 Br
HETATM   29  C   UNL     1      43.546 -19.068   2.733  1.00  0.00     0.028 A 
HETATM   30  C   UNL     1      43.289 -17.744   2.265  1.00  0.00     0.026 A 
ENDBRANCH  22  25
ENDBRANCH   3  21
TORSDOF 6
ENDMDL
MODEL 10
REMARK VINA RESULT:      -7.2      3.982      6.458
REMARK  6 active torsions:
REMARK  status: ('A' for Active; 'I' for Inactive)
REMARK    1  A    between atoms: N_6  and  C_8 
REMARK    2  A    between atoms: C_8  and  C_9 
REMARK    3  A    between atoms: C_9  and  C_10 
REMARK    4  A    between atoms: C_10  and  N_11 
REMARK       I    between atoms: N_11  and  C_12 
REMARK       I    between atoms: C_12  and  N_13 
REMARK    5  A    between atoms: N_13  and  N_14 
REMARK       I    between atoms: N_14  and  C_15 
REMARK    6  A    between atoms: C_15  and  C_16 
ROOT
HETATM    1  N   UNL     1      40.100 -12.972   1.158  1.00  0.00    -0.342 N 
HETATM    2  C   UNL     1      40.268 -14.180   1.781  1.00  0.00     0.334 C 
HETATM    3  N   UNL     1      41.295 -14.914   1.247  1.00  0.00    -0.249 N 
HETATM    4  O   UNL     1      39.498 -14.585   2.652  1.00  0.00    -0.246 OA
HETATM    5  H   UNL     1      40.824 -12.669   0.516  1.00  0.00     0.164 HD
HETATM    6  H   UNL     1      42.087 -14.445   0.806  1.00  0.00     0.192 HD
ENDROOT
BRANCH   1   7
HETATM    7  C   UNL     1      39.123 -12.000   1.595  1.00  0.00     0.126 C 
BRANCH   7   8
HETATM    8  C   UNL     1      39.657 -11.027   2.647  1.00  0.00     0.047 C 
BRANCH   8   9
HETATM    9  C   UNL     1      39.277 -11.301   4.105  1.00  0.00     0.237 C 
BRANCH   9  10
HETATM   10  N   UNL     1      40.382 -11.917   4.919  1.00  0.00    -0.067 N 
HETATM   11  C   UNL     1      40.114 -13.328   5.368  1.00  0.00     0.274 C 
HETATM   12  C   UNL     1      41.292 -14.018   6.001  1.00  0.00    -0.026 A 
HETATM   13  C   UNL     1      42.594 -13.494   5.896  1.00  0.00    -0.049 A 
HETATM   14  C   UNL     1      41.095 -15.238   6.666  1.00  0.00     0.009 A 
HETATM   15  C   UNL     1      43.664 -14.173   6.492  1.00  0.00     0.007 A 
HETATM   16  C   UNL     1      42.838 -12.182   5.197  1.00  0.00     0.067 C 
HETATM   17  C   UNL     1      43.452 -15.381   7.156  1.00  0.00     0.001 A 
HETATM   18  C   UNL     1      42.170 -15.915   7.240  1.00  0.00     0.001 A 
HETATM   19  C   UNL     1      41.720 -11.827   4.219  1.00  0.00     0.240 C 
HETATM   20  H   UNL     1      40.498 -11.312   5.759  1.00  0.00     0.280 HD
ENDBRANCH   9  10
ENDBRANCH   8   9
ENDBRANCH   7   8
ENDBRANCH   1   7
BRANCH   3  21
HETATM   21  N   UNL     1      41.627 -16.142   1.838  1.00  0.00    -0.261 N 
HETATM   22  C   UNL     1      42.966 -16.480   1.946  1.00  0.00     0.277 C 
HETATM   23  O   UNL     1      43.832 -15.684   1.575  1.00  0.00    -0.265 OA
HETATM   24  H   UNL     1      40.882 -16.743   2.177  1.00  0.00     0.190 HD
BRANCH  22  25
HETATM   25  C   UNL     1      43.262 -17.790   2.499  1.00  0.00     0.075 A 
HETATM   26  S   UNL     1      43.814 -18.004   4.112  1.00  0.00    -0.077 SA
HETATM   27  C   UNL     1      43.860 -19.687   3.936  1.00  0.00     0.052 A 
HETATM   28 BR   UNL     1      44.376 -20.844   5.315  1.00  0.00    -0.043 Br
HETATM   29  C   UNL     1      43.480 -20.114   2.690  1.00  0.00     0.028 A 
HETATM   30  C   UNL     1      43.133 -19.010   1.854  1.00  0.00     0.026 A 
ENDBRANCH  22  25
ENDBRANCH   3  21
TORSDOF 6
ENDMDL
