MODEL 1
REMARK VINA RESULT:      -8.9      0.000      0.000
REMARK  4 active torsions:
REMARK  status: ('A' for Active; 'I' for Inactive)
REMARK    1  A    between atoms: C_3  and  C_4 
REMARK    2  A    between atoms: C_4  and  N_5 
REMARK    3  A    between atoms: N_8  and  C_10 
REMARK    4  A    between atoms: C_10  and  C_11 
ROOT
HETATM    1  N   UNL     1      43.130 -12.489   5.616  1.00  0.00    -0.405 N 
HETATM    2  C   UNL     1      43.229 -13.926   5.883  1.00  0.00     0.150 C 
HETATM    3  C   UNL     1      42.089 -14.890   5.465  1.00  0.00     0.206 C 
HETATM    4  N   UNL     1      41.966 -15.087   3.952  1.00  0.00    -0.061 N 
HETATM    5  H   UNL     1      41.321 -15.882   3.868  1.00  0.00     0.280 HD
HETATM    6  C   UNL     1      41.296 -13.958   3.219  1.00  0.00     0.242 C 
HETATM    7  C   UNL     1      41.035 -12.761   4.119  1.00  0.00     0.029 C 
HETATM    8  C   UNL     1      42.349 -12.040   4.470  1.00  0.00     0.123 C 
HETATM    9  C   UNL     1      40.724 -14.446   6.002  1.00  0.00     0.035 C 
HETATM   10  C   UNL     1      40.196 -13.178   5.329  1.00  0.00     0.010 C 
ENDROOT
BRANCH   4  11
HETATM   11  C   UNL     1      43.212 -15.577   3.242  1.00  0.00     0.274 C 
BRANCH  11  12
HETATM   12  C   UNL     1      43.381 -17.070   3.290  1.00  0.00    -0.032 A 
HETATM   13  C   UNL     1      43.710 -17.689   4.514  1.00  0.00     0.022 A 
HETATM   14  C   UNL     1      43.844 -19.089   4.577  1.00  0.00    -0.008 A 
HETATM   15  C   UNL     1      43.657 -19.833   3.415  1.00  0.00     0.042 A 
HETATM   16  C   UNL     1      44.132 -20.004   5.625  1.00  0.00     0.030 A 
HETATM   17  N   UNL     1      43.826 -21.159   3.753  1.00  0.00    -0.365 N 
HETATM   18  C   UNL     1      43.345 -19.247   2.184  1.00  0.00     0.031 A 
HETATM   19  H   UNL     1      43.735 -21.936   3.111  1.00  0.00     0.165 HD
HETATM   20  C   UNL     1      44.112 -21.271   5.088  1.00  0.00     0.089 A 
HETATM   21  C   UNL     1      43.207 -17.855   2.143  1.00  0.00     0.011 A 
ENDBRANCH  11  12
ENDBRANCH   4  11
BRANCH   1  22
HETATM   22  C   UNL     1      42.893 -11.664   6.823  1.00  0.00     0.176 C 
BRANCH  22  23
HETATM   23  C   UNL     1      44.091 -10.864   7.300  1.00  0.00     0.051 A 
HETATM   24  C   UNL     1      45.389 -11.325   7.086  1.00  0.00     0.029 A 
HETATM   25  C   UNL     1      46.458 -10.539   7.508  1.00  0.00     0.003 A 
HETATM   26  C   UNL     1      46.206  -9.318   8.120  1.00  0.00     0.019 A 
HETATM   27  C   UNL     1      44.888  -8.936   8.303  1.00  0.00     0.117 A 
HETATM   28  N   UNL     1      43.828  -9.686   7.923  1.00  0.00    -0.264 NA
ENDBRANCH  22  23
ENDBRANCH   1  22
TORSDOF 4
ENDMDL
MODEL 2
REMARK VINA RESULT:      -8.9      0.860      1.437
REMARK  4 active torsions:
REMARK  status: ('A' for Active; 'I' for Inactive)
REMARK    1  A    between atoms: C_3  and  C_4 
REMARK    2  A    between atoms: C_4  and  N_5 
REMARK    3  A    between atoms: N_8  and  C_10 
REMARK    4  A    between atoms: C_10  and  C_11 
ROOT
HETATM    1  N   UNL     1      42.787 -11.843   5.501  1.00  0.00    -0.405 N 
HETATM    2  C   UNL     1      42.917 -13.271   5.802  1.00  0.00     0.150 C 
HETATM    3  C   UNL     1      41.789 -14.266   5.428  1.00  0.00     0.206 C 
HETATM    4  N   UNL     1      41.645 -14.503   3.923  1.00  0.00    -0.061 N 
HETATM    5  H   UNL     1      41.014 -15.312   3.869  1.00  0.00     0.280 HD
HETATM    6  C   UNL     1      40.942 -13.406   3.173  1.00  0.00     0.242 C 
HETATM    7  C   UNL     1      40.673 -12.192   4.047  1.00  0.00     0.029 C 
HETATM    8  C   UNL     1      41.979 -11.437   4.358  1.00  0.00     0.123 C 
HETATM    9  C   UNL     1      40.425 -13.834   5.976  1.00  0.00     0.035 C 
HETATM   10  C   UNL     1      39.862 -12.594   5.281  1.00  0.00     0.010 C 
ENDROOT
BRANCH   4  11
HETATM   11  C   UNL     1      42.888 -14.988   3.204  1.00  0.00     0.274 C 
BRANCH  11  12
HETATM   12  C   UNL     1      43.247 -16.412   3.521  1.00  0.00    -0.032 A 
HETATM   13  C   UNL     1      43.038 -17.411   2.548  1.00  0.00     0.022 A 
HETATM   14  C   UNL     1      43.396 -18.744   2.824  1.00  0.00    -0.008 A 
HETATM   15  C   UNL     1      43.942 -19.048   4.068  1.00  0.00     0.042 A 
HETATM   16  C   UNL     1      43.346 -19.952   2.077  1.00  0.00     0.030 A 
HETATM   17  N   UNL     1      44.215 -20.399   4.071  1.00  0.00    -0.365 N 
HETATM   18  C   UNL     1      44.148 -18.083   5.059  1.00  0.00     0.031 A 
HETATM   19  H   UNL     1      44.633 -20.904   4.843  1.00  0.00     0.165 HD
HETATM   20  C   UNL     1      43.858 -20.954   2.870  1.00  0.00     0.089 A 
HETATM   21  C   UNL     1      43.794 -16.761   4.763  1.00  0.00     0.011 A 
ENDBRANCH  11  12
ENDBRANCH   4  11
BRANCH   1  22
HETATM   22  C   UNL     1      42.554 -10.993   6.692  1.00  0.00     0.176 C 
BRANCH  22  23
HETATM   23  C   UNL     1      43.805 -10.395   7.309  1.00  0.00     0.051 A 
HETATM   24  C   UNL     1      45.046 -11.006   7.140  1.00  0.00     0.029 A 
HETATM   25  C   UNL     1      46.172 -10.401   7.693  1.00  0.00     0.003 A 
HETATM   26  C   UNL     1      46.031  -9.206   8.388  1.00  0.00     0.019 A 
HETATM   27  C   UNL     1      44.762  -8.669   8.518  1.00  0.00     0.117 A 
HETATM   28  N   UNL     1      43.647  -9.242   8.009  1.00  0.00    -0.264 NA
ENDBRANCH  22  23
ENDBRANCH   1  22
TORSDOF 4
ENDMDL
MODEL 3
REMARK VINA RESULT:      -8.6      4.178      8.627
REMARK  4 active torsions:
REMARK  status: ('A' for Active; 'I' for Inactive)
REMARK    1  A    between atoms: C_3  and  C_4 
REMARK    2  A    between atoms: C_4  and  N_5 
REMARK    3  A    between atoms: N_8  and  C_10 
REMARK    4  A    between atoms: C_10  and  C_11 
ROOT
HETATM    1  N   UNL     1      42.755 -16.316   2.440  1.00  0.00    -0.405 N 
HETATM    2  C   UNL     1      41.293 -16.355   2.523  1.00  0.00     0.150 C 
HETATM    3  C   UNL     1      40.474 -15.051   2.702  1.00  0.00     0.206 C 
HETATM    4  N   UNL     1      40.471 -14.147   1.467  1.00  0.00    -0.061 N 
HETATM    5  H   UNL     1      39.742 -13.455   1.682  1.00  0.00     0.280 HD
HETATM    6  C   UNL     1      41.727 -13.345   1.267  1.00  0.00     0.242 C 
HETATM    7  C   UNL     1      42.822 -13.735   2.245  1.00  0.00     0.029 C 
HETATM    8  C   UNL     1      43.396 -15.122   1.903  1.00  0.00     0.123 C 
HETATM    9  C   UNL     1      40.951 -14.224   3.900  1.00  0.00     0.035 C 
HETATM   10  C   UNL     1      42.326 -13.590   3.686  1.00  0.00     0.010 C 
ENDROOT
BRANCH   4  11
HETATM   11  C   UNL     1      39.978 -14.779   0.181  1.00  0.00     0.274 C 
BRANCH  11  12
HETATM   12  C   UNL     1      39.585 -13.776  -0.867  1.00  0.00    -0.032 A 
HETATM   13  C   UNL     1      38.621 -12.794  -0.556  1.00  0.00     0.022 A 
HETATM   14  C   UNL     1      38.263 -11.833  -1.520  1.00  0.00    -0.008 A 
HETATM   15  C   UNL     1      38.870 -11.882  -2.773  1.00  0.00     0.042 A 
HETATM   16  C   UNL     1      37.374 -10.724  -1.524  1.00  0.00     0.030 A 
HETATM   17  N   UNL     1      38.363 -10.833  -3.509  1.00  0.00    -0.365 N 
HETATM   18  C   UNL     1      39.818 -12.851  -3.115  1.00  0.00     0.031 A 
HETATM   19  H   UNL     1      38.632 -10.609  -4.459  1.00  0.00     0.165 HD
HETATM   20  C   UNL     1      37.458 -10.127  -2.760  1.00  0.00     0.089 A 
HETATM   21  C   UNL     1      40.167 -13.794  -2.141  1.00  0.00     0.011 A 
ENDBRANCH  11  12
ENDBRANCH   4  11
BRANCH   1  22
HETATM   22  C   UNL     1      43.444 -16.838   3.643  1.00  0.00     0.176 C 
BRANCH  22  23
HETATM   23  C   UNL     1      43.611 -18.347   3.685  1.00  0.00     0.051 A 
HETATM   24  C   UNL     1      43.459 -19.113   2.531  1.00  0.00     0.029 A 
HETATM   25  C   UNL     1      43.658 -20.489   2.610  1.00  0.00     0.003 A 
HETATM   26  C   UNL     1      44.009 -21.058   3.827  1.00  0.00     0.019 A 
HETATM   27  C   UNL     1      44.132 -20.228   4.928  1.00  0.00     0.117 A 
HETATM   28  N   UNL     1      43.926 -18.891   4.888  1.00  0.00    -0.264 NA
ENDBRANCH  22  23
ENDBRANCH   1  22
TORSDOF 4
ENDMDL
MODEL 4
REMARK VINA RESULT:      -8.6      3.659      6.822
REMARK  4 active torsions:
REMARK  status: ('A' for Active; 'I' for Inactive)
REMARK    1  A    between atoms: C_3  and  C_4 
REMARK    2  A    between atoms: C_4  and  N_5 
REMARK    3  A    between atoms: N_8  and  C_10 
REMARK    4  A    between atoms: C_10  and  C_11 
ROOT
HETATM    1  N   UNL     1      40.939 -13.551   0.499  1.00  0.00    -0.405 N 
HETATM    2  C   UNL     1      41.899 -12.936   1.419  1.00  0.00     0.150 C 
HETATM    3  C   UNL     1      41.732 -13.081   2.953  1.00  0.00     0.206 C 
HETATM    4  N   UNL     1      41.997 -14.494   3.476  1.00  0.00    -0.061 N 
HETATM    5  H   UNL     1      42.040 -14.366   4.495  1.00  0.00     0.280 HD
HETATM    6  C   UNL     1      40.879 -15.473   3.250  1.00  0.00     0.242 C 
HETATM    7  C   UNL     1      39.774 -14.895   2.381  1.00  0.00     0.029 C 
HETATM    8  C   UNL     1      40.238 -14.759   0.919  1.00  0.00     0.123 C 
HETATM    9  C   UNL     1      40.342 -12.647   3.430  1.00  0.00     0.035 C 
HETATM   10  C   UNL     1      39.231 -13.605   2.999  1.00  0.00     0.010 C 
ENDROOT
BRANCH   4  11
HETATM   11  C   UNL     1      43.354 -15.082   3.144  1.00  0.00     0.274 C 
BRANCH  11  12
HETATM   12  C   UNL     1      43.536 -16.488   3.644  1.00  0.00    -0.032 A 
HETATM   13  C   UNL     1      43.459 -17.561   2.731  1.00  0.00     0.022 A 
HETATM   14  C   UNL     1      43.654 -18.880   3.182  1.00  0.00    -0.008 A 
HETATM   15  C   UNL     1      43.910 -19.095   4.534  1.00  0.00     0.042 A 
HETATM   16  C   UNL     1      43.671 -20.148   2.541  1.00  0.00     0.030 A 
HETATM   17  N   UNL     1      44.078 -20.453   4.702  1.00  0.00    -0.365 N 
HETATM   18  C   UNL     1      43.978 -18.054   5.465  1.00  0.00     0.031 A 
HETATM   19  H   UNL     1      44.291 -20.905   5.583  1.00  0.00     0.165 HD
HETATM   20  C   UNL     1      43.936 -21.097   3.501  1.00  0.00     0.089 A 
HETATM   21  C   UNL     1      43.789 -16.749   4.996  1.00  0.00     0.011 A 
ENDBRANCH  11  12
ENDBRANCH   4  11
BRANCH   1  22
HETATM   22  C   UNL     1      40.045 -12.583  -0.178  1.00  0.00     0.176 C 
BRANCH  22  23
HETATM   23  C   UNL     1      39.207 -13.161  -1.305  1.00  0.00     0.051 A 
HETATM   24  C   UNL     1      37.910 -12.706  -1.535  1.00  0.00     0.029 A 
HETATM   25  C   UNL     1      37.193 -13.239  -2.602  1.00  0.00     0.003 A 
HETATM   26  C   UNL     1      37.788 -14.198  -3.412  1.00  0.00     0.019 A 
HETATM   27  C   UNL     1      39.077 -14.602  -3.111  1.00  0.00     0.117 A 
HETATM   28  N   UNL     1      39.793 -14.118  -2.070  1.00  0.00    -0.264 NA
ENDBRANCH  22  23
ENDBRANCH   1  22
TORSDOF 4
ENDMDL
MODEL 5
REMARK VINA RESULT:      -8.4      3.730      5.567
REMARK  4 active torsions:
REMARK  status: ('A' for Active; 'I' for Inactive)
REMARK    1  A    between atoms: C_3  and  C_4 
REMARK    2  A    between atoms: C_4  and  N_5 
REMARK    3  A    between atoms: N_8  and  C_10 
REMARK    4  A    between atoms: C_10  and  C_11 
ROOT
HETATM    1  N   UNL     1      41.402 -11.887   1.009  1.00  0.00    -0.405 N 
HETATM    2  C   UNL     1      42.151 -12.066   2.256  1.00  0.00     0.150 C 
HETATM    3  C   UNL     1      41.619 -13.000   3.373  1.00  0.00     0.206 C 
HETATM    4  N   UNL     1      41.678 -14.487   3.018  1.00  0.00    -0.061 N 
HETATM    5  H   UNL     1      41.486 -14.953   3.914  1.00  0.00     0.280 HD
HETATM    6  C   UNL     1      40.593 -14.960   2.091  1.00  0.00     0.242 C 
HETATM    7  C   UNL     1      39.756 -13.812   1.550  1.00  0.00     0.029 C 
HETATM    8  C   UNL     1      40.558 -12.978   0.534  1.00  0.00     0.123 C 
HETATM    9  C   UNL     1      40.182 -12.661   3.780  1.00  0.00     0.035 C 
HETATM   10  C   UNL     1      39.153 -13.004   2.701  1.00  0.00     0.010 C 
ENDROOT
BRANCH   4  11
HETATM   11  C   UNL     1      43.041 -15.027   2.633  1.00  0.00     0.274 C 
BRANCH  11  12
HETATM   12  C   UNL     1      43.327 -16.390   3.198  1.00  0.00    -0.032 A 
HETATM   13  C   UNL     1      43.223 -17.520   2.361  1.00  0.00     0.022 A 
HETATM   14  C   UNL     1      43.515 -18.799   2.872  1.00  0.00    -0.008 A 
HETATM   15  C   UNL     1      43.892 -18.918   4.207  1.00  0.00     0.042 A 
HETATM   16  C   UNL     1      43.536 -20.103   2.309  1.00  0.00     0.030 A 
HETATM   17  N   UNL     1      44.134 -20.254   4.441  1.00  0.00    -0.365 N 
HETATM   18  C   UNL     1      43.989 -17.818   5.065  1.00  0.00     0.031 A 
HETATM   19  H   UNL     1      44.440 -20.641   5.326  1.00  0.00     0.165 HD
HETATM   20  C   UNL     1      43.922 -20.979   3.298  1.00  0.00     0.089 A 
HETATM   21  C   UNL     1      43.703 -16.553   4.537  1.00  0.00     0.011 A 
ENDBRANCH  11  12
ENDBRANCH   4  11
BRANCH   1  22
HETATM   22  C   UNL     1      40.747 -10.565   0.881  1.00  0.00     0.176 C 
BRANCH  22  23
HETATM   23  C   UNL     1      41.092  -9.796  -0.381  1.00  0.00     0.051 A 
HETATM   24  C   UNL     1      40.192  -9.726  -1.443  1.00  0.00     0.029 A 
HETATM   25  C   UNL     1      40.537  -8.978  -2.566  1.00  0.00     0.003 A 
HETATM   26  C   UNL     1      41.759  -8.317  -2.595  1.00  0.00     0.019 A 
HETATM   27  C   UNL     1      42.599  -8.444  -1.502  1.00  0.00     0.117 A 
HETATM   28  N   UNL     1      42.302  -9.179  -0.406  1.00  0.00    -0.264 NA
ENDBRANCH  22  23
ENDBRANCH   1  22
TORSDOF 4
ENDMDL
MODEL 6
REMARK VINA RESULT:      -8.3      3.052      7.458
REMARK  4 active torsions:
REMARK  status: ('A' for Active; 'I' for Inactive)
REMARK    1  A    between atoms: C_3  and  C_4 
REMARK    2  A    between atoms: C_4  and  N_5 
REMARK    3  A    between atoms: N_8  and  C_10 
REMARK    4  A    between atoms: C_10  and  C_11 
ROOT
HETATM    1  N   UNL     1      42.327 -15.286   3.550  1.00  0.00    -0.405 N 
HETATM    2  C   UNL     1      41.137 -14.927   4.325  1.00  0.00     0.150 C 
HETATM    3  C   UNL     1      40.923 -13.473   4.820  1.00  0.00     0.206 C 
HETATM    4  N   UNL     1      40.608 -12.478   3.702  1.00  0.00    -0.061 N 
HETATM    5  H   UNL     1      40.305 -11.637   4.211  1.00  0.00     0.280 HD
HETATM    6  C   UNL     1      41.795 -12.039   2.891  1.00  0.00     0.242 C 
HETATM    7  C   UNL     1      43.052 -12.819   3.240  1.00  0.00     0.029 C 
HETATM    8  C   UNL     1      42.961 -14.267   2.722  1.00  0.00     0.123 C 
HETATM    9  C   UNL     1      42.126 -12.943   5.608  1.00  0.00     0.035 C 
HETATM   10  C   UNL     1      43.357 -12.697   4.734  1.00  0.00     0.010 C 
ENDROOT
BRANCH   4  11
HETATM   11  C   UNL     1      39.408 -12.807   2.836  1.00  0.00     0.274 C 
BRANCH  11  12
HETATM   12  C   UNL     1      39.762 -13.084   1.402  1.00  0.00    -0.032 A 
HETATM   13  C   UNL     1      39.990 -12.004   0.525  1.00  0.00     0.022 A 
HETATM   14  C   UNL     1      40.349 -12.251  -0.813  1.00  0.00    -0.008 A 
HETATM   15  C   UNL     1      40.460 -13.570  -1.245  1.00  0.00     0.042 A 
HETATM   16  C   UNL     1      40.666 -11.416  -1.918  1.00  0.00     0.030 A 
HETATM   17  N   UNL     1      40.835 -13.532  -2.570  1.00  0.00    -0.365 N 
HETATM   18  C   UNL     1      40.226 -14.662  -0.403  1.00  0.00     0.031 A 
HETATM   19  H   UNL     1      41.006 -14.346  -3.148  1.00  0.00     0.165 HD
HETATM   20  C   UNL     1      40.963 -12.232  -2.986  1.00  0.00     0.089 A 
HETATM   21  C   UNL     1      39.879 -14.397   0.927  1.00  0.00     0.011 A 
ENDBRANCH  11  12
ENDBRANCH   4  11
BRANCH   1  22
HETATM   22  C   UNL     1      43.312 -16.104   4.296  1.00  0.00     0.176 C 
BRANCH  22  23
HETATM   23  C   UNL     1      43.439 -17.542   3.829  1.00  0.00     0.051 A 
HETATM   24  C   UNL     1      43.003 -17.921   2.561  1.00  0.00     0.029 A 
HETATM   25  C   UNL     1      43.174 -19.244   2.161  1.00  0.00     0.003 A 
HETATM   26  C   UNL     1      43.779 -20.145   3.028  1.00  0.00     0.019 A 
HETATM   27  C   UNL     1      44.176 -19.690   4.274  1.00  0.00     0.117 A 
HETATM   28  N   UNL     1      44.006 -18.417   4.699  1.00  0.00    -0.264 NA
ENDBRANCH  22  23
ENDBRANCH   1  22
TORSDOF 4
ENDMDL
MODEL 7
REMARK VINA RESULT:      -8.1      3.056      6.167
REMARK  4 active torsions:
REMARK  status: ('A' for Active; 'I' for Inactive)
REMARK    1  A    between atoms: C_3  and  C_4 
REMARK    2  A    between atoms: C_4  and  N_5 
REMARK    3  A    between atoms: N_8  and  C_10 
REMARK    4  A    between atoms: C_10  and  C_11 
ROOT
HETATM    1  N   UNL     1      40.738 -12.499   1.895  1.00  0.00    -0.405 N 
HETATM    2  C   UNL     1      41.810 -13.445   2.212  1.00  0.00     0.150 C 
HETATM    3  C   UNL     1      42.773 -13.184   3.398  1.00  0.00     0.206 C 
HETATM    4  N   UNL     1      42.116 -13.328   4.773  1.00  0.00    -0.061 N 
HETATM    5  H   UNL     1      42.915 -13.322   5.419  1.00  0.00     0.280 HD
HETATM    6  C   UNL     1      41.264 -12.162   5.192  1.00  0.00     0.242 C 
HETATM    7  C   UNL     1      41.087 -11.146   4.075  1.00  0.00     0.029 C 
HETATM    8  C   UNL     1      40.166 -11.699   2.971  1.00  0.00     0.123 C 
HETATM    9  C   UNL     1      43.429 -11.802   3.323  1.00  0.00     0.035 C 
HETATM   10  C   UNL     1      42.449 -10.655   3.581  1.00  0.00     0.010 C 
ENDROOT
BRANCH   4  11
HETATM   11  C   UNL     1      41.451 -14.660   5.057  1.00  0.00     0.274 C 
BRANCH  11  12
HETATM   12  C   UNL     1      42.334 -15.842   4.774  1.00  0.00    -0.032 A 
HETATM   13  C   UNL     1      42.074 -16.644   3.643  1.00  0.00     0.022 A 
HETATM   14  C   UNL     1      42.910 -17.738   3.353  1.00  0.00    -0.008 A 
HETATM   15  C   UNL     1      43.977 -18.011   4.204  1.00  0.00     0.042 A 
HETATM   16  C   UNL     1      42.944 -18.703   2.310  1.00  0.00     0.030 A 
HETATM   17  N   UNL     1      44.636 -19.106   3.689  1.00  0.00    -0.365 N 
HETATM   18  C   UNL     1      44.252 -17.244   5.341  1.00  0.00     0.031 A 
HETATM   19  H   UNL     1      45.465 -19.526   4.091  1.00  0.00     0.165 HD
HETATM   20  C   UNL     1      44.018 -19.531   2.542  1.00  0.00     0.089 A 
HETATM   21  C   UNL     1      43.414 -16.155   5.609  1.00  0.00     0.011 A 
ENDBRANCH  11  12
ENDBRANCH   4  11
BRANCH   1  22
HETATM   22  C   UNL     1      40.972 -11.709   0.664  1.00  0.00     0.176 C 
BRANCH  22  23
HETATM   23  C   UNL     1      40.553 -12.391  -0.627  1.00  0.00     0.051 A 
HETATM   24  C   UNL     1      41.153 -12.054  -1.839  1.00  0.00     0.029 A 
HETATM   25  C   UNL     1      40.762 -12.731  -2.991  1.00  0.00     0.003 A 
HETATM   26  C   UNL     1      39.797 -13.726  -2.901  1.00  0.00     0.019 A 
HETATM   27  C   UNL     1      39.244 -13.994  -1.661  1.00  0.00     0.117 A 
HETATM   28  N   UNL     1      39.588 -13.341  -0.528  1.00  0.00    -0.264 NA
ENDBRANCH  22  23
ENDBRANCH   1  22
TORSDOF 4
ENDMDL
MODEL 8
REMARK VINA RESULT:      -8.0      3.432      5.729
REMARK  4 active torsions:
REMARK  status: ('A' for Active; 'I' for Inactive)
REMARK    1  A    between atoms: C_3  and  C_4 
REMARK    2  A    between atoms: C_4  and  N_5 
REMARK    3  A    between atoms: N_8  and  C_10 
REMARK    4  A    between atoms: C_10  and  C_11 
ROOT
HETATM    1  N   UNL     1      42.798 -12.619   5.238  1.00  0.00    -0.405 N 
HETATM    2  C   UNL     1      42.934 -13.496   4.072  1.00  0.00     0.150 C 
HETATM    3  C   UNL     1      41.747 -14.374   3.598  1.00  0.00     0.206 C 
HETATM    4  N   UNL     1      40.595 -13.578   2.980  1.00  0.00    -0.061 N 
HETATM    5  H   UNL     1      40.008 -14.305   2.552  1.00  0.00     0.280 HD
HETATM    6  C   UNL     1      39.701 -12.886   3.971  1.00  0.00     0.242 C 
HETATM    7  C   UNL     1      40.237 -12.974   5.391  1.00  0.00     0.029 C 
HETATM    8  C   UNL     1      41.482 -12.084   5.565  1.00  0.00     0.123 C 
HETATM    9  C   UNL     1      41.180 -15.243   4.724  1.00  0.00     0.035 C 
HETATM   10  C   UNL     1      40.440 -14.436   5.793  1.00  0.00     0.010 C 
ENDROOT
BRANCH   4  11
HETATM   11  C   UNL     1      40.954 -12.689   1.807  1.00  0.00     0.274 C 
BRANCH  11  12
HETATM   12  C   UNL     1      40.028 -12.844   0.633  1.00  0.00    -0.032 A 
HETATM   13  C   UNL     1      40.172 -13.959  -0.218  1.00  0.00     0.022 A 
HETATM   14  C   UNL     1      39.294 -14.129  -1.305  1.00  0.00    -0.008 A 
HETATM   15  C   UNL     1      38.303 -13.176  -1.521  1.00  0.00     0.042 A 
HETATM   16  C   UNL     1      39.150 -15.125  -2.309  1.00  0.00     0.030 A 
HETATM   17  N   UNL     1      37.581 -13.585  -2.622  1.00  0.00    -0.365 N 
HETATM   18  C   UNL     1      38.144 -12.052  -0.704  1.00  0.00     0.031 A 
HETATM   19  H   UNL     1      36.784 -13.094  -3.007  1.00  0.00     0.165 HD
HETATM   20  C   UNL     1      38.087 -14.764  -3.104  1.00  0.00     0.089 A 
HETATM   21  C   UNL     1      39.021 -11.904   0.377  1.00  0.00     0.011 A 
ENDBRANCH  11  12
ENDBRANCH   4  11
BRANCH   1  22
HETATM   22  C   UNL     1      43.534 -13.088   6.435  1.00  0.00     0.176 C 
BRANCH  22  23
HETATM   23  C   UNL     1      44.395 -12.037   7.112  1.00  0.00     0.051 A 
HETATM   24  C   UNL     1      45.552 -11.559   6.499  1.00  0.00     0.029 A 
HETATM   25  C   UNL     1      46.290 -10.568   7.142  1.00  0.00     0.003 A 
HETATM   26  C   UNL     1      45.852 -10.078   8.365  1.00  0.00     0.019 A 
HETATM   27  C   UNL     1      44.698 -10.612   8.910  1.00  0.00     0.117 A 
HETATM   28  N   UNL     1      43.970 -11.588   8.321  1.00  0.00    -0.264 NA
ENDBRANCH  22  23
ENDBRANCH   1  22
TORSDOF 4
ENDMDL
MODEL 9
REMARK VINA RESULT:      -8.0      3.746      7.611
REMARK  4 active torsions:
REMARK  status: ('A' for Active; 'I' for Inactive)
REMARK    1  A    between atoms: C_3  and  C_4 
REMARK    2  A    between atoms: C_4  and  N_5 
REMARK    3  A    between atoms: N_8  and  C_10 
REMARK    4  A    between atoms: C_10  and  C_11 
ROOT
HETATM    1  N   UNL     1      42.145 -14.560   3.457  1.00  0.00    -0.405 N 
HETATM    2  C   UNL     1      40.932 -14.329   2.667  1.00  0.00     0.150 C 
HETATM    3  C   UNL     1      40.069 -13.061   2.894  1.00  0.00     0.206 C 
HETATM    4  N   UNL     1      40.733 -11.766   2.423  1.00  0.00    -0.061 N 
HETATM    5  H   UNL     1      39.968 -11.080   2.459  1.00  0.00     0.280 HD
HETATM    6  C   UNL     1      41.790 -11.225   3.345  1.00  0.00     0.242 C 
HETATM    7  C   UNL     1      42.109 -12.182   4.481  1.00  0.00     0.029 C 
HETATM    8  C   UNL     1      42.882 -13.410   3.965  1.00  0.00     0.123 C 
HETATM    9  C   UNL     1      39.665 -12.886   4.361  1.00  0.00     0.035 C 
HETATM   10  C   UNL     1      40.839 -12.515   5.269  1.00  0.00     0.010 C 
ENDROOT
BRANCH   4  11
HETATM   11  C   UNL     1      41.161 -11.728   0.969  1.00  0.00     0.274 C 
BRANCH  11  12
HETATM   12  C   UNL     1      40.082 -12.155   0.015  1.00  0.00    -0.032 A 
HETATM   13  C   UNL     1      40.333 -13.210  -0.886  1.00  0.00     0.022 A 
HETATM   14  C   UNL     1      39.321 -13.637  -1.766  1.00  0.00    -0.008 A 
HETATM   15  C   UNL     1      38.087 -12.992  -1.731  1.00  0.00     0.042 A 
HETATM   16  C   UNL     1      39.237 -14.658  -2.750  1.00  0.00     0.030 A 
HETATM   17  N   UNL     1      37.283 -13.608  -2.666  1.00  0.00    -0.365 N 
HETATM   18  C   UNL     1      37.812 -11.933  -0.860  1.00  0.00     0.031 A 
HETATM   19  H   UNL     1      36.320 -13.359  -2.855  1.00  0.00     0.165 HD
HETATM   20  C   UNL     1      37.971 -14.617  -3.287  1.00  0.00     0.089 A 
HETATM   21  C   UNL     1      38.829 -11.529   0.013  1.00  0.00     0.011 A 
ENDBRANCH  11  12
ENDBRANCH   4  11
BRANCH   1  22
HETATM   22  C   UNL     1      42.014 -15.641   4.462  1.00  0.00     0.176 C 
BRANCH  22  23
HETATM   23  C   UNL     1      42.728 -16.934   4.111  1.00  0.00     0.051 A 
HETATM   24  C   UNL     1      42.765 -17.394   2.796  1.00  0.00     0.029 A 
HETATM   25  C   UNL     1      43.462 -18.567   2.516  1.00  0.00     0.003 A 
HETATM   26  C   UNL     1      44.107 -19.238   3.547  1.00  0.00     0.019 A 
HETATM   27  C   UNL     1      44.015 -18.719   4.826  1.00  0.00     0.117 A 
HETATM   28  N   UNL     1      43.329 -17.595   5.134  1.00  0.00    -0.264 NA
ENDBRANCH  22  23
ENDBRANCH   1  22
TORSDOF 4
ENDMDL
MODEL 10
REMARK VINA RESULT:      -7.9      2.849      3.418
REMARK  4 active torsions:
REMARK  status: ('A' for Active; 'I' for Inactive)
REMARK    1  A    between atoms: C_3  and  C_4 
REMARK    2  A    between atoms: C_4  and  N_5 
REMARK    3  A    between atoms: N_8  and  C_10 
REMARK    4  A    between atoms: C_10  and  C_11 
ROOT
HETATM    1  N   UNL     1      40.658 -13.003   4.392  1.00  0.00    -0.405 N 
HETATM    2  C   UNL     1      40.657 -14.468   4.420  1.00  0.00     0.150 C 
HETATM    3  C   UNL     1      40.717 -15.286   3.105  1.00  0.00     0.206 C 
HETATM    4  N   UNL     1      42.068 -15.210   2.389  1.00  0.00    -0.061 N 
HETATM    5  H   UNL     1      41.999 -15.945   1.674  1.00  0.00     0.280 HD
HETATM    6  C   UNL     1      42.307 -13.939   1.623  1.00  0.00     0.242 C 
HETATM    7  C   UNL     1      41.219 -12.906   1.866  1.00  0.00     0.029 C 
HETATM    8  C   UNL     1      41.323 -12.323   3.287  1.00  0.00     0.123 C 
HETATM    9  C   UNL     1      39.625 -14.875   2.112  1.00  0.00     0.035 C 
HETATM   10  C   UNL     1      39.847 -13.485   1.514  1.00  0.00     0.010 C 
ENDROOT
BRANCH   4  11
HETATM   11  C   UNL     1      43.276 -15.631   3.201  1.00  0.00     0.274 C 
BRANCH  11  12
HETATM   12  C   UNL     1      43.456 -17.120   3.280  1.00  0.00    -0.032 A 
HETATM   13  C   UNL     1      43.704 -17.721   4.532  1.00  0.00     0.022 A 
HETATM   14  C   UNL     1      43.847 -19.118   4.623  1.00  0.00    -0.008 A 
HETATM   15  C   UNL     1      43.750 -19.879   3.461  1.00  0.00     0.042 A 
HETATM   16  C   UNL     1      44.069 -20.018   5.700  1.00  0.00     0.030 A 
HETATM   17  N   UNL     1      43.906 -21.199   3.827  1.00  0.00    -0.365 N 
HETATM   18  C   UNL     1      43.519 -19.312   2.204  1.00  0.00     0.031 A 
HETATM   19  H   UNL     1      43.869 -21.985   3.190  1.00  0.00     0.165 HD
HETATM   20  C   UNL     1      44.099 -21.291   5.181  1.00  0.00     0.089 A 
HETATM   21  C   UNL     1      43.371 -17.922   2.135  1.00  0.00     0.011 A 
ENDBRANCH  11  12
ENDBRANCH   4  11
BRANCH   1  22
HETATM   22  C   UNL     1      39.353 -12.391   4.733  1.00  0.00     0.176 C 
BRANCH  22  23
HETATM   23  C   UNL     1      39.437 -11.058   5.454  1.00  0.00     0.051 A 
HETATM   24  C   UNL     1      40.283 -10.891   6.549  1.00  0.00     0.029 A 
HETATM   25  C   UNL     1      40.355  -9.640   7.156  1.00  0.00     0.003 A 
HETATM   26  C   UNL     1      39.593  -8.593   6.651  1.00  0.00     0.019 A 
HETATM   27  C   UNL     1      38.772  -8.844   5.566  1.00  0.00     0.117 A 
HETATM   28  N   UNL     1      38.665 -10.052   4.967  1.00  0.00    -0.264 NA
ENDBRANCH  22  23
ENDBRANCH   1  22
TORSDOF 4
ENDMDL
