MODEL 1
REMARK VINA RESULT:     -10.3      0.000      0.000
REMARK  8 active torsions:
REMARK  status: ('A' for Active; 'I' for Inactive)
REMARK    1  A    between atoms: C_2  and  O_3 
REMARK    2  A    between atoms: O_3  and  C_4 
REMARK    3  A    between atoms: C_7  and  N_8 
REMARK       I    between atoms: N_8  and  C_9 
REMARK    4  A    between atoms: C_9  and  C_10 
REMARK    5  A    between atoms: C_12  and  N_13 
REMARK    6  A    between atoms: N_16  and  C_18 
REMARK    7  A    between atoms: C_18  and  C_19 
REMARK    8  A    between atoms: C_18  and  C_25 
ROOT
HETATM    1  C   UNL     1      44.399 -10.911   8.610  1.00  0.00     0.200 C 
HETATM    2  N   UNL     1      43.610 -12.122   8.334  1.00  0.00    -0.211 N 
HETATM    3  C   UNL     1      43.882 -12.869   7.234  1.00  0.00     0.702 C 
HETATM    4  N   UNL     1      44.842 -12.602   6.409  1.00  0.00    -0.028 NA
HETATM    5  C   UNL     1      45.542 -11.433   6.586  1.00  0.00     0.263 C 
HETATM    6  O   UNL     1      46.683 -11.274   6.165  1.00  0.00    -0.271 OA
HETATM    7  C   UNL     1      44.827 -10.314   7.293  1.00  0.00     0.141 C 
HETATM    8  H   UNL     1      42.625 -11.936   8.527  1.00  0.00     0.178 HD
ENDROOT
BRANCH   3   9
HETATM    9  N   UNL     1      43.106 -14.001   7.082  1.00  0.00    -0.213 N 
HETATM   10  C   UNL     1      43.637 -15.373   7.116  1.00  0.00     0.169 C 
HETATM   11  C   UNL     1      44.055 -15.800   5.696  1.00  0.00     0.256 C 
HETATM   12  N   UNL     1      42.840 -15.710   4.766  1.00  0.00    -0.056 N 
HETATM   13  H   UNL     1      42.095 -16.275   5.179  1.00  0.00     0.281 HD
HETATM   14  C   UNL     1      42.273 -14.280   4.772  1.00  0.00     0.256 C 
HETATM   15  C   UNL     1      41.902 -13.886   6.225  1.00  0.00     0.169 C 
BRANCH  12  16
HETATM   16  C   UNL     1      43.055 -16.298   3.369  1.00  0.00     0.254 C 
BRANCH  16  17
HETATM   17  C   UNL     1      43.342 -17.799   3.414  1.00  0.00    -0.023 A 
HETATM   18  C   UNL     1      43.865 -18.426   4.561  1.00  0.00     0.009 A 
HETATM   19  C   UNL     1      44.135 -19.795   4.569  1.00  0.00     0.001 A 
HETATM   20  C   UNL     1      43.885 -20.562   3.434  1.00  0.00     0.000 A 
HETATM   21  C   UNL     1      43.360 -19.963   2.292  1.00  0.00     0.001 A 
HETATM   22  C   UNL     1      43.089 -18.592   2.280  1.00  0.00     0.009 A 
ENDBRANCH  16  17
BRANCH  16  23
HETATM   23  C   UNL     1      42.005 -15.860   2.327  1.00  0.00    -0.023 A 
HETATM   24  C   UNL     1      40.668 -16.305   2.353  1.00  0.00     0.009 A 
HETATM   25  C   UNL     1      39.733 -15.858   1.411  1.00  0.00     0.001 A 
HETATM   26  C   UNL     1      40.105 -14.943   0.434  1.00  0.00     0.000 A 
HETATM   27  C   UNL     1      41.406 -14.457   0.409  1.00  0.00     0.001 A 
HETATM   28  C   UNL     1      42.339 -14.897   1.351  1.00  0.00     0.009 A 
ENDBRANCH  16  23
ENDBRANCH  12  16
ENDBRANCH   3   9
BRANCH   1  29
HETATM   29  C   UNL     1      43.535  -9.973   9.476  1.00  0.00     0.246 C 
HETATM   30  N   UNL     1      43.785 -10.027  10.833  1.00  0.00    -0.325 N 
HETATM   31  H   UNL     1      44.645 -10.455  11.154  1.00  0.00     0.169 HD
HETATM   32  O   UNL     1      42.676  -9.278   8.927  1.00  0.00    -0.271 OA
BRANCH  30  33
HETATM   33  C   UNL     1      42.990  -9.453  11.850  1.00  0.00     0.035 A 
HETATM   34  C   UNL     1      41.829 -10.045  12.351  1.00  0.00     0.032 A 
HETATM   35  C   UNL     1      41.116  -9.448  13.399  1.00  0.00     0.039 A 
HETATM   36  C   UNL     1      41.552  -8.247  13.952  1.00  0.00     0.068 A 
HETATM   37  C   UNL     1      42.704  -7.647  13.444  1.00  0.00     0.039 A 
HETATM   38  C   UNL     1      43.428  -8.250  12.411  1.00  0.00     0.032 A 
BRANCH  36  39
HETATM   39  O   UNL     1      40.950  -7.567  14.971  1.00  0.00    -0.352 OA
BRANCH  39  40
HETATM   40  C   UNL     1      41.396  -7.855  16.296  1.00  0.00     0.171 C 
HETATM   41  C   UNL     1      41.832  -6.551  16.940  1.00  0.00     0.034 C 
ENDBRANCH  39  40
ENDBRANCH  36  39
ENDBRANCH  30  33
ENDBRANCH   1  29
TORSDOF 8
ENDMDL
MODEL 2
REMARK VINA RESULT:     -10.3      3.463      6.425
REMARK  8 active torsions:
REMARK  status: ('A' for Active; 'I' for Inactive)
REMARK    1  A    between atoms: C_2  and  O_3 
REMARK    2  A    between atoms: O_3  and  C_4 
REMARK    3  A    between atoms: C_7  and  N_8 
REMARK       I    between atoms: N_8  and  C_9 
REMARK    4  A    between atoms: C_9  and  C_10 
REMARK    5  A    between atoms: C_12  and  N_13 
REMARK    6  A    between atoms: N_16  and  C_18 
REMARK    7  A    between atoms: C_18  and  C_19 
REMARK    8  A    between atoms: C_18  and  C_25 
ROOT
HETATM    1  C   UNL     1      40.520 -10.885   2.586  1.00  0.00     0.200 C 
HETATM    2  N   UNL     1      40.952 -12.205   2.101  1.00  0.00    -0.211 N 
HETATM    3  C   UNL     1      40.038 -13.074   1.601  1.00  0.00     0.702 C 
HETATM    4  N   UNL     1      38.780 -12.797   1.482  1.00  0.00    -0.028 NA
HETATM    5  C   UNL     1      38.326 -11.610   2.005  1.00  0.00     0.263 C 
HETATM    6  O   UNL     1      37.304 -11.059   1.608  1.00  0.00    -0.271 OA
HETATM    7  C   UNL     1      39.122 -11.018   3.136  1.00  0.00     0.141 C 
HETATM    8  H   UNL     1      41.645 -12.592   2.743  1.00  0.00     0.178 HD
ENDROOT
BRANCH   3   9
HETATM    9  N   UNL     1      40.549 -14.272   1.144  1.00  0.00    -0.213 N 
HETATM   10  C   UNL     1      40.090 -15.593   1.604  1.00  0.00     0.169 C 
HETATM   11  C   UNL     1      40.910 -16.025   2.834  1.00  0.00     0.256 C 
HETATM   12  N   UNL     1      42.395 -16.067   2.459  1.00  0.00    -0.056 N 
HETATM   13  H   UNL     1      42.490 -16.680   1.648  1.00  0.00     0.281 HD
HETATM   14  C   UNL     1      42.850 -14.690   1.943  1.00  0.00     0.256 C 
HETATM   15  C   UNL     1      41.973 -14.287   0.731  1.00  0.00     0.169 C 
BRANCH  12  16
HETATM   16  C   UNL     1      43.310 -16.676   3.524  1.00  0.00     0.254 C 
BRANCH  16  17
HETATM   17  C   UNL     1      42.995 -16.149   4.925  1.00  0.00    -0.023 A 
HETATM   18  C   UNL     1      41.874 -16.590   5.654  1.00  0.00     0.009 A 
HETATM   19  C   UNL     1      41.599 -16.078   6.923  1.00  0.00     0.001 A 
HETATM   20  C   UNL     1      42.438 -15.121   7.486  1.00  0.00     0.000 A 
HETATM   21  C   UNL     1      43.556 -14.676   6.784  1.00  0.00     0.001 A 
HETATM   22  C   UNL     1      43.834 -15.185   5.513  1.00  0.00     0.009 A 
ENDBRANCH  16  17
BRANCH  16  23
HETATM   23  C   UNL     1      43.475 -18.207   3.420  1.00  0.00    -0.023 A 
HETATM   24  C   UNL     1      43.164 -18.933   2.253  1.00  0.00     0.009 A 
HETATM   25  C   UNL     1      43.360 -20.317   2.183  1.00  0.00     0.001 A 
HETATM   26  C   UNL     1      43.890 -21.006   3.267  1.00  0.00     0.000 A 
HETATM   27  C   UNL     1      44.243 -20.310   4.415  1.00  0.00     0.001 A 
HETATM   28  C   UNL     1      44.054 -18.928   4.487  1.00  0.00     0.009 A 
ENDBRANCH  16  23
ENDBRANCH  12  16
ENDBRANCH   3   9
BRANCH   1  29
HETATM   29  C   UNL     1      41.559 -10.399   3.616  1.00  0.00     0.246 C 
HETATM   30  N   UNL     1      42.234 -11.398   4.289  1.00  0.00    -0.325 N 
HETATM   31  H   UNL     1      42.211 -12.339   3.916  1.00  0.00     0.169 HD
HETATM   32  O   UNL     1      41.696  -9.186   3.796  1.00  0.00    -0.271 OA
BRANCH  30  33
HETATM   33  C   UNL     1      43.055 -11.228   5.426  1.00  0.00     0.035 A 
HETATM   34  C   UNL     1      42.568 -10.870   6.684  1.00  0.00     0.032 A 
HETATM   35  C   UNL     1      43.429 -10.771   7.784  1.00  0.00     0.039 A 
HETATM   36  C   UNL     1      44.791 -11.022   7.636  1.00  0.00     0.068 A 
HETATM   37  C   UNL     1      45.283 -11.365   6.376  1.00  0.00     0.039 A 
HETATM   38  C   UNL     1      44.422 -11.483   5.281  1.00  0.00     0.032 A 
BRANCH  36  39
HETATM   39  O   UNL     1      45.732 -10.959   8.623  1.00  0.00    -0.352 OA
BRANCH  39  40
HETATM   40  C   UNL     1      45.267 -10.680   9.943  1.00  0.00     0.171 C 
HETATM   41  C   UNL     1      45.490  -9.204  10.219  1.00  0.00     0.034 C 
ENDBRANCH  39  40
ENDBRANCH  36  39
ENDBRANCH  30  33
ENDBRANCH   1  29
TORSDOF 8
ENDMDL
MODEL 3
REMARK VINA RESULT:     -10.2      3.716      7.369
REMARK  8 active torsions:
REMARK  status: ('A' for Active; 'I' for Inactive)
REMARK    1  A    between atoms: C_2  and  O_3 
REMARK    2  A    between atoms: O_3  and  C_4 
REMARK    3  A    between atoms: C_7  and  N_8 
REMARK       I    between atoms: N_8  and  C_9 
REMARK    4  A    between atoms: C_9  and  C_10 
REMARK    5  A    between atoms: C_12  and  N_13 
REMARK    6  A    between atoms: N_16  and  C_18 
REMARK    7  A    between atoms: C_18  and  C_19 
REMARK    8  A    between atoms: C_18  and  C_25 
ROOT
HETATM    1  C   UNL     1      42.271 -10.891   6.326  1.00  0.00     0.200 C 
HETATM    2  N   UNL     1      42.238 -12.362   6.356  1.00  0.00    -0.211 N 
HETATM    3  C   UNL     1      43.117 -13.041   7.136  1.00  0.00     0.702 C 
HETATM    4  N   UNL     1      43.981 -12.464   7.908  1.00  0.00    -0.028 NA
HETATM    5  C   UNL     1      44.099 -11.097   7.839  1.00  0.00     0.263 C 
HETATM    6  O   UNL     1      44.544 -10.424   8.763  1.00  0.00    -0.271 OA
HETATM    7  C   UNL     1      43.694 -10.444   6.546  1.00  0.00     0.141 C 
HETATM    8  H   UNL     1      42.100 -12.718   5.409  1.00  0.00     0.178 HD
ENDROOT
BRANCH   3   9
HETATM    9  N   UNL     1      42.984 -14.415   7.118  1.00  0.00    -0.213 N 
HETATM   10  C   UNL     1      44.110 -15.350   6.961  1.00  0.00     0.169 C 
HETATM   11  C   UNL     1      44.349 -15.626   5.466  1.00  0.00     0.256 C 
HETATM   12  N   UNL     1      43.071 -16.208   4.851  1.00  0.00    -0.056 N 
HETATM   13  H   UNL     1      42.814 -17.030   5.400  1.00  0.00     0.281 HD
HETATM   14  C   UNL     1      41.895 -15.237   5.057  1.00  0.00     0.256 C 
HETATM   15  C   UNL     1      41.720 -14.965   6.572  1.00  0.00     0.169 C 
BRANCH  12  16
HETATM   16  C   UNL     1      43.223 -16.721   3.417  1.00  0.00     0.254 C 
BRANCH  16  17
HETATM   17  C   UNL     1      43.446 -18.233   3.366  1.00  0.00    -0.023 A 
HETATM   18  C   UNL     1      43.907 -18.957   4.482  1.00  0.00     0.009 A 
HETATM   19  C   UNL     1      44.119 -20.335   4.402  1.00  0.00     0.001 A 
HETATM   20  C   UNL     1      43.872 -21.011   3.211  1.00  0.00     0.000 A 
HETATM   21  C   UNL     1      43.408 -20.314   2.099  1.00  0.00     0.001 A 
HETATM   22  C   UNL     1      43.195 -18.935   2.174  1.00  0.00     0.009 A 
ENDBRANCH  16  17
BRANCH  16  23
HETATM   23  C   UNL     1      42.166 -16.178   2.433  1.00  0.00    -0.023 A 
HETATM   24  C   UNL     1      40.816 -16.582   2.460  1.00  0.00     0.009 A 
HETATM   25  C   UNL     1      39.876 -16.042   1.574  1.00  0.00     0.001 A 
HETATM   26  C   UNL     1      40.257 -15.072   0.654  1.00  0.00     0.000 A 
HETATM   27  C   UNL     1      41.572 -14.626   0.632  1.00  0.00     0.001 A 
HETATM   28  C   UNL     1      42.510 -15.159   1.519  1.00  0.00     0.009 A 
ENDBRANCH  16  23
ENDBRANCH  12  16
ENDBRANCH   3   9
BRANCH   1  29
HETATM   29  C   UNL     1      41.667 -10.435   4.983  1.00  0.00     0.246 C 
HETATM   30  N   UNL     1      41.202 -11.450   4.170  1.00  0.00    -0.325 N 
HETATM   31  H   UNL     1      41.047 -12.366   4.574  1.00  0.00     0.169 HD
HETATM   32  O   UNL     1      41.666  -9.232   4.708  1.00  0.00    -0.271 OA
BRANCH  30  33
HETATM   33  C   UNL     1      40.822 -11.324   2.816  1.00  0.00     0.035 A 
HETATM   34  C   UNL     1      41.688 -10.901   1.806  1.00  0.00     0.032 A 
HETATM   35  C   UNL     1      41.263 -10.850   0.472  1.00  0.00     0.039 A 
HETATM   36  C   UNL     1      39.962 -11.215   0.134  1.00  0.00     0.068 A 
HETATM   37  C   UNL     1      39.091 -11.624   1.143  1.00  0.00     0.039 A 
HETATM   38  C   UNL     1      39.518 -11.694   2.473  1.00  0.00     0.032 A 
BRANCH  36  39
HETATM   39  O   UNL     1      39.427 -11.209  -1.122  1.00  0.00    -0.352 OA
BRANCH  39  40
HETATM   40  C   UNL     1      38.680 -12.361  -1.513  1.00  0.00     0.171 C 
HETATM   41  C   UNL     1      39.523 -13.158  -2.491  1.00  0.00     0.034 C 
ENDBRANCH  39  40
ENDBRANCH  36  39
ENDBRANCH  30  33
ENDBRANCH   1  29
TORSDOF 8
ENDMDL
MODEL 4
REMARK VINA RESULT:     -10.1      1.923      3.858
REMARK  8 active torsions:
REMARK  status: ('A' for Active; 'I' for Inactive)
REMARK    1  A    between atoms: C_2  and  O_3 
REMARK    2  A    between atoms: O_3  and  C_4 
REMARK    3  A    between atoms: C_7  and  N_8 
REMARK       I    between atoms: N_8  and  C_9 
REMARK    4  A    between atoms: C_9  and  C_10 
REMARK    5  A    between atoms: C_12  and  N_13 
REMARK    6  A    between atoms: N_16  and  C_18 
REMARK    7  A    between atoms: C_18  and  C_19 
REMARK    8  A    between atoms: C_18  and  C_25 
ROOT
HETATM    1  C   UNL     1      43.581 -10.022   9.422  1.00  0.00     0.200 C 
HETATM    2  N   UNL     1      42.695 -10.104   8.251  1.00  0.00    -0.211 N 
HETATM    3  C   UNL     1      43.217 -10.378   7.028  1.00  0.00     0.702 C 
HETATM    4  N   UNL     1      44.471 -10.618   6.824  1.00  0.00    -0.028 NA
HETATM    5  C   UNL     1      45.340 -10.464   7.878  1.00  0.00     0.263 C 
HETATM    6  O   UNL     1      46.423 -11.038   7.933  1.00  0.00    -0.271 OA
HETATM    7  C   UNL     1      44.925  -9.512   8.966  1.00  0.00     0.141 C 
HETATM    8  H   UNL     1      42.005  -9.352   8.294  1.00  0.00     0.178 HD
ENDROOT
BRANCH   3   9
HETATM    9  N   UNL     1      42.299 -10.464   6.000  1.00  0.00    -0.213 N 
HETATM   10  C   UNL     1      40.880 -10.806   6.189  1.00  0.00     0.169 C 
HETATM   11  C   UNL     1      40.702 -12.333   6.112  1.00  0.00     0.256 C 
HETATM   12  N   UNL     1      41.204 -12.830   4.751  1.00  0.00    -0.056 N 
HETATM   13  H   UNL     1      40.703 -12.306   4.031  1.00  0.00     0.281 HD
HETATM   14  C   UNL     1      42.676 -12.430   4.551  1.00  0.00     0.256 C 
HETATM   15  C   UNL     1      42.806 -10.891   4.674  1.00  0.00     0.169 C 
BRANCH  12  16
HETATM   16  C   UNL     1      40.902 -14.300   4.452  1.00  0.00     0.254 C 
BRANCH  16  17
HETATM   17  C   UNL     1      40.592 -14.537   2.974  1.00  0.00    -0.023 A 
HETATM   18  C   UNL     1      40.083 -15.762   2.504  1.00  0.00     0.009 A 
HETATM   19  C   UNL     1      39.826 -15.958   1.146  1.00  0.00     0.001 A 
HETATM   20  C   UNL     1      40.072 -14.934   0.236  1.00  0.00     0.000 A 
HETATM   21  C   UNL     1      40.569 -13.712   0.681  1.00  0.00     0.001 A 
HETATM   22  C   UNL     1      40.827 -13.512   2.039  1.00  0.00     0.009 A 
ENDBRANCH  16  17
BRANCH  16  23
HETATM   23  C   UNL     1      41.900 -15.294   5.082  1.00  0.00    -0.023 A 
HETATM   24  C   UNL     1      41.784 -15.760   6.407  1.00  0.00     0.009 A 
HETATM   25  C   UNL     1      42.688 -16.690   6.934  1.00  0.00     0.001 A 
HETATM   26  C   UNL     1      43.716 -17.192   6.146  1.00  0.00     0.000 A 
HETATM   27  C   UNL     1      43.831 -16.781   4.824  1.00  0.00     0.001 A 
HETATM   28  C   UNL     1      42.927 -15.858   4.294  1.00  0.00     0.009 A 
ENDBRANCH  16  23
ENDBRANCH  12  16
ENDBRANCH   3   9
BRANCH   1  29
HETATM   29  C   UNL     1      42.891  -9.128  10.472  1.00  0.00     0.246 C 
HETATM   30  N   UNL     1      43.446  -9.168  11.736  1.00  0.00    -0.325 N 
HETATM   31  H   UNL     1      44.376  -9.551  11.849  1.00  0.00     0.169 HD
HETATM   32  O   UNL     1      41.896  -8.477  10.140  1.00  0.00    -0.271 OA
BRANCH  30  33
HETATM   33  C   UNL     1      42.876  -8.633  12.913  1.00  0.00     0.035 A 
HETATM   34  C   UNL     1      43.296  -7.440  13.502  1.00  0.00     0.032 A 
HETATM   35  C   UNL     1      42.651  -6.937  14.640  1.00  0.00     0.039 A 
HETATM   36  C   UNL     1      41.582  -7.627  15.206  1.00  0.00     0.068 A 
HETATM   37  C   UNL     1      41.170  -8.827  14.627  1.00  0.00     0.039 A 
HETATM   38  C   UNL     1      41.800  -9.322  13.481  1.00  0.00     0.032 A 
BRANCH  36  39
HETATM   39  O   UNL     1      40.873  -7.247  16.309  1.00  0.00    -0.352 OA
BRANCH  39  40
HETATM   40  C   UNL     1      41.263  -7.818  17.558  1.00  0.00     0.171 C 
HETATM   41  C   UNL     1      40.050  -7.824  18.471  1.00  0.00     0.034 C 
ENDBRANCH  39  40
ENDBRANCH  36  39
ENDBRANCH  30  33
ENDBRANCH   1  29
TORSDOF 8
ENDMDL
MODEL 5
REMARK VINA RESULT:     -10.1      3.912      7.395
REMARK  8 active torsions:
REMARK  status: ('A' for Active; 'I' for Inactive)
REMARK    1  A    between atoms: C_2  and  O_3 
REMARK    2  A    between atoms: O_3  and  C_4 
REMARK    3  A    between atoms: C_7  and  N_8 
REMARK       I    between atoms: N_8  and  C_9 
REMARK    4  A    between atoms: C_9  and  C_10 
REMARK    5  A    between atoms: C_12  and  N_13 
REMARK    6  A    between atoms: N_16  and  C_18 
REMARK    7  A    between atoms: C_18  and  C_19 
REMARK    8  A    between atoms: C_18  and  C_25 
ROOT
HETATM    1  C   UNL     1      43.097 -10.785   6.293  1.00  0.00     0.200 C 
HETATM    2  N   UNL     1      42.051 -10.841   5.261  1.00  0.00    -0.211 N 
HETATM    3  C   UNL     1      41.210  -9.788   5.093  1.00  0.00     0.702 C 
HETATM    4  N   UNL     1      41.296  -8.691   5.772  1.00  0.00    -0.028 NA
HETATM    5  C   UNL     1      42.203  -8.637   6.804  1.00  0.00     0.263 C 
HETATM    6  O   UNL     1      42.663  -7.580   7.226  1.00  0.00    -0.271 OA
HETATM    7  C   UNL     1      42.589  -9.945   7.438  1.00  0.00     0.141 C 
HETATM    8  H   UNL     1      41.624 -11.769   5.260  1.00  0.00     0.178 HD
ENDROOT
BRANCH   3   9
HETATM    9  N   UNL     1      40.285  -9.927   4.078  1.00  0.00    -0.213 N 
HETATM   10  C   UNL     1      39.345 -11.056   3.969  1.00  0.00     0.169 C 
HETATM   11  C   UNL     1      39.996 -12.194   3.162  1.00  0.00     0.256 C 
HETATM   12  N   UNL     1      40.380 -11.670   1.774  1.00  0.00    -0.056 N 
HETATM   13  H   UNL     1      39.537 -11.277   1.351  1.00  0.00     0.281 HD
HETATM   14  C   UNL     1      41.330 -10.468   1.905  1.00  0.00     0.256 C 
HETATM   15  C   UNL     1      40.644  -9.368   2.753  1.00  0.00     0.169 C 
BRANCH  12  16
HETATM   16  C   UNL     1      40.852 -12.744   0.790  1.00  0.00     0.254 C 
BRANCH  16  17
HETATM   17  C   UNL     1      41.363 -13.996   1.505  1.00  0.00    -0.023 A 
HETATM   18  C   UNL     1      42.728 -14.186   1.793  1.00  0.00     0.009 A 
HETATM   19  C   UNL     1      43.170 -15.347   2.430  1.00  0.00     0.001 A 
HETATM   20  C   UNL     1      42.258 -16.334   2.792  1.00  0.00     0.000 A 
HETATM   21  C   UNL     1      40.903 -16.162   2.522  1.00  0.00     0.001 A 
HETATM   22  C   UNL     1      40.456 -15.002   1.884  1.00  0.00     0.009 A 
ENDBRANCH  16  17
BRANCH  16  23
HETATM   23  C   UNL     1      39.880 -13.006  -0.379  1.00  0.00    -0.023 A 
HETATM   24  C   UNL     1      40.054 -14.061  -1.298  1.00  0.00     0.009 A 
HETATM   25  C   UNL     1      39.132 -14.290  -2.326  1.00  0.00     0.001 A 
HETATM   26  C   UNL     1      38.005 -13.487  -2.450  1.00  0.00     0.000 A 
HETATM   27  C   UNL     1      37.787 -12.465  -1.535  1.00  0.00     0.001 A 
HETATM   28  C   UNL     1      38.703 -12.237  -0.504  1.00  0.00     0.009 A 
ENDBRANCH  16  23
ENDBRANCH  12  16
ENDBRANCH   3   9
BRANCH   1  29
HETATM   29  C   UNL     1      43.451 -12.234   6.683  1.00  0.00     0.246 C 
HETATM   30  N   UNL     1      43.075 -13.199   5.770  1.00  0.00    -0.325 N 
HETATM   31  H   UNL     1      42.837 -12.912   4.828  1.00  0.00     0.169 HD
HETATM   32  O   UNL     1      44.001 -12.441   7.769  1.00  0.00    -0.271 OA
BRANCH  30  33
HETATM   33  C   UNL     1      43.073 -14.595   5.987  1.00  0.00     0.035 A 
HETATM   34  C   UNL     1      41.928 -15.326   6.308  1.00  0.00     0.032 A 
HETATM   35  C   UNL     1      41.985 -16.717   6.457  1.00  0.00     0.039 A 
HETATM   36  C   UNL     1      43.192 -17.393   6.293  1.00  0.00     0.068 A 
HETATM   37  C   UNL     1      44.340 -16.664   5.986  1.00  0.00     0.039 A 
HETATM   38  C   UNL     1      44.282 -15.277   5.819  1.00  0.00     0.032 A 
BRANCH  36  39
HETATM   39  O   UNL     1      43.380 -18.740   6.411  1.00  0.00    -0.352 OA
BRANCH  39  40
HETATM   40  C   UNL     1      43.998 -19.407   5.310  1.00  0.00     0.171 C 
HETATM   41  C   UNL     1      43.877 -20.903   5.538  1.00  0.00     0.034 C 
ENDBRANCH  39  40
ENDBRANCH  36  39
ENDBRANCH  30  33
ENDBRANCH   1  29
TORSDOF 8
ENDMDL
MODEL 6
REMARK VINA RESULT:     -10.1      4.061      7.870
REMARK  8 active torsions:
REMARK  status: ('A' for Active; 'I' for Inactive)
REMARK    1  A    between atoms: C_2  and  O_3 
REMARK    2  A    between atoms: O_3  and  C_4 
REMARK    3  A    between atoms: C_7  and  N_8 
REMARK       I    between atoms: N_8  and  C_9 
REMARK    4  A    between atoms: C_9  and  C_10 
REMARK    5  A    between atoms: C_12  and  N_13 
REMARK    6  A    between atoms: N_16  and  C_18 
REMARK    7  A    between atoms: C_18  and  C_19 
REMARK    8  A    between atoms: C_18  and  C_25 
ROOT
HETATM    1  C   UNL     1      42.877 -10.819   6.334  1.00  0.00     0.200 C 
HETATM    2  N   UNL     1      42.507 -10.808   4.911  1.00  0.00    -0.211 N 
HETATM    3  C   UNL     1      41.645  -9.869   4.444  1.00  0.00     0.702 C 
HETATM    4  N   UNL     1      41.144  -8.931   5.179  1.00  0.00    -0.028 NA
HETATM    5  C   UNL     1      41.397  -8.962   6.530  1.00  0.00     0.263 C 
HETATM    6  O   UNL     1      41.347  -7.960   7.236  1.00  0.00    -0.271 OA
HETATM    7  C   UNL     1      41.704 -10.305   7.132  1.00  0.00     0.141 C 
HETATM    8  H   UNL     1      42.352 -11.767   4.593  1.00  0.00     0.178 HD
ENDROOT
BRANCH   3   9
HETATM    9  N   UNL     1      41.387  -9.926   3.088  1.00  0.00    -0.213 N 
HETATM   10  C   UNL     1      40.035  -9.952   2.508  1.00  0.00     0.169 C 
HETATM   11  C   UNL     1      39.554 -11.409   2.384  1.00  0.00     0.256 C 
HETATM   12  N   UNL     1      40.537 -12.191   1.506  1.00  0.00    -0.056 N 
HETATM   13  H   UNL     1      40.617 -11.693   0.618  1.00  0.00     0.281 HD
HETATM   14  C   UNL     1      41.953 -12.122   2.105  1.00  0.00     0.256 C 
HETATM   15  C   UNL     1      42.374 -10.637   2.241  1.00  0.00     0.169 C 
BRANCH  12  16
HETATM   16  C   UNL     1      40.079 -13.602   1.128  1.00  0.00     0.254 C 
BRANCH  16  17
HETATM   17  C   UNL     1      39.726 -13.716  -0.355  1.00  0.00    -0.023 A 
HETATM   18  C   UNL     1      39.719 -12.596  -1.209  1.00  0.00     0.009 A 
HETATM   19  C   UNL     1      39.375 -12.725  -2.556  1.00  0.00     0.001 A 
HETATM   20  C   UNL     1      39.034 -13.972  -3.072  1.00  0.00     0.000 A 
HETATM   21  C   UNL     1      39.042 -15.092  -2.246  1.00  0.00     0.001 A 
HETATM   22  C   UNL     1      39.385 -14.968  -0.898  1.00  0.00     0.009 A 
ENDBRANCH  16  17
BRANCH  16  23
HETATM   23  C   UNL     1      40.977 -14.730   1.678  1.00  0.00    -0.023 A 
HETATM   24  C   UNL     1      40.562 -15.611   2.697  1.00  0.00     0.009 A 
HETATM   25  C   UNL     1      41.390 -16.647   3.146  1.00  0.00     0.001 A 
HETATM   26  C   UNL     1      42.643 -16.840   2.576  1.00  0.00     0.000 A 
HETATM   27  C   UNL     1      43.062 -16.012   1.543  1.00  0.00     0.001 A 
HETATM   28  C   UNL     1      42.235 -14.981   1.088  1.00  0.00     0.009 A 
ENDBRANCH  16  23
ENDBRANCH  12  16
ENDBRANCH   3   9
BRANCH   1  29
HETATM   29  C   UNL     1      43.307 -12.254   6.698  1.00  0.00     0.246 C 
HETATM   30  N   UNL     1      42.907 -13.232   5.809  1.00  0.00    -0.325 N 
HETATM   31  H   UNL     1      42.599 -12.955   4.885  1.00  0.00     0.169 HD
HETATM   32  O   UNL     1      43.932 -12.441   7.746  1.00  0.00    -0.271 OA
BRANCH  30  33
HETATM   33  C   UNL     1      42.969 -14.627   6.023  1.00  0.00     0.035 A 
HETATM   34  C   UNL     1      41.916 -15.376   6.549  1.00  0.00     0.032 A 
HETATM   35  C   UNL     1      42.023 -16.766   6.685  1.00  0.00     0.039 A 
HETATM   36  C   UNL     1      43.191 -17.422   6.304  1.00  0.00     0.068 A 
HETATM   37  C   UNL     1      44.251 -16.674   5.792  1.00  0.00     0.039 A 
HETATM   38  C   UNL     1      44.139 -15.289   5.638  1.00  0.00     0.032 A 
BRANCH  36  39
HETATM   39  O   UNL     1      43.421 -18.765   6.386  1.00  0.00    -0.352 OA
BRANCH  39  40
HETATM   40  C   UNL     1      43.991 -19.396   5.239  1.00  0.00     0.171 C 
HETATM   41  C   UNL     1      43.953 -20.897   5.460  1.00  0.00     0.034 C 
ENDBRANCH  39  40
ENDBRANCH  36  39
ENDBRANCH  30  33
ENDBRANCH   1  29
TORSDOF 8
ENDMDL
MODEL 7
REMARK VINA RESULT:      -9.9      2.042      2.658
REMARK  8 active torsions:
REMARK  status: ('A' for Active; 'I' for Inactive)
REMARK    1  A    between atoms: C_2  and  O_3 
REMARK    2  A    between atoms: O_3  and  C_4 
REMARK    3  A    between atoms: C_7  and  N_8 
REMARK       I    between atoms: N_8  and  C_9 
REMARK    4  A    between atoms: C_9  and  C_10 
REMARK    5  A    between atoms: C_12  and  N_13 
REMARK    6  A    between atoms: N_16  and  C_18 
REMARK    7  A    between atoms: C_18  and  C_19 
REMARK    8  A    between atoms: C_18  and  C_25 
ROOT
HETATM    1  C   UNL     1      40.797  -9.755   7.089  1.00  0.00     0.200 C 
HETATM    2  N   UNL     1      41.617 -10.974   7.144  1.00  0.00    -0.211 N 
HETATM    3  C   UNL     1      41.325 -12.022   6.333  1.00  0.00     0.702 C 
HETATM    4  N   UNL     1      40.370 -12.006   5.461  1.00  0.00    -0.028 NA
HETATM    5  C   UNL     1      39.529 -10.919   5.443  1.00  0.00     0.263 C 
HETATM    6  O   UNL     1      38.887 -10.595   4.448  1.00  0.00    -0.271 OA
HETATM    7  C   UNL     1      39.387 -10.149   6.726  1.00  0.00     0.141 C 
HETATM    8  H   UNL     1      41.829 -11.197   8.118  1.00  0.00     0.178 HD
ENDROOT
BRANCH   3   9
HETATM    9  N   UNL     1      42.174 -13.106   6.440  1.00  0.00    -0.213 N 
HETATM   10  C   UNL     1      43.555 -13.124   5.930  1.00  0.00     0.169 C 
HETATM   11  C   UNL     1      43.560 -13.609   4.469  1.00  0.00     0.256 C 
HETATM   12  N   UNL     1      42.938 -15.008   4.401  1.00  0.00    -0.056 N 
HETATM   13  H   UNL     1      43.455 -15.605   5.049  1.00  0.00     0.281 HD
HETATM   14  C   UNL     1      41.510 -14.981   4.972  1.00  0.00     0.256 C 
HETATM   15  C   UNL     1      41.555 -14.454   6.429  1.00  0.00     0.169 C 
BRANCH  12  16
HETATM   16  C   UNL     1      43.061 -15.700   3.041  1.00  0.00     0.254 C 
BRANCH  16  17
HETATM   17  C   UNL     1      43.368 -17.192   3.179  1.00  0.00    -0.023 A 
HETATM   18  C   UNL     1      43.131 -18.103   2.132  1.00  0.00     0.009 A 
HETATM   19  C   UNL     1      43.402 -19.463   2.291  1.00  0.00     0.001 A 
HETATM   20  C   UNL     1      43.917 -19.935   3.496  1.00  0.00     0.000 A 
HETATM   21  C   UNL     1      44.165 -19.049   4.541  1.00  0.00     0.001 A 
HETATM   22  C   UNL     1      43.894 -17.687   4.386  1.00  0.00     0.009 A 
ENDBRANCH  16  17
BRANCH  16  23
HETATM   23  C   UNL     1      41.936 -15.350   2.045  1.00  0.00    -0.023 A 
HETATM   24  C   UNL     1      40.793 -16.157   1.867  1.00  0.00     0.009 A 
HETATM   25  C   UNL     1      39.774 -15.789   0.980  1.00  0.00     0.001 A 
HETATM   26  C   UNL     1      39.861 -14.600   0.267  1.00  0.00     0.000 A 
HETATM   27  C   UNL     1      40.955 -13.766   0.453  1.00  0.00     0.001 A 
HETATM   28  C   UNL     1      41.971 -14.127   1.341  1.00  0.00     0.009 A 
ENDBRANCH  16  23
ENDBRANCH  12  16
ENDBRANCH   3   9
BRANCH   1  29
HETATM   29  C   UNL     1      40.921  -9.041   8.450  1.00  0.00     0.246 C 
HETATM   30  N   UNL     1      41.642  -9.725   9.410  1.00  0.00    -0.325 N 
HETATM   31  H   UNL     1      42.240 -10.489   9.119  1.00  0.00     0.169 HD
HETATM   32  O   UNL     1      40.359  -7.954   8.607  1.00  0.00    -0.271 OA
BRANCH  30  33
HETATM   33  C   UNL     1      41.709  -9.406  10.784  1.00  0.00     0.035 A 
HETATM   34  C   UNL     1      40.713  -9.738  11.704  1.00  0.00     0.032 A 
HETATM   35  C   UNL     1      40.866  -9.441  13.064  1.00  0.00     0.039 A 
HETATM   36  C   UNL     1      42.016  -8.801  13.519  1.00  0.00     0.068 A 
HETATM   37  C   UNL     1      43.007  -8.455  12.600  1.00  0.00     0.039 A 
HETATM   38  C   UNL     1      42.864  -8.767  11.245  1.00  0.00     0.032 A 
BRANCH  36  39
HETATM   39  O   UNL     1      42.285  -8.456  14.813  1.00  0.00    -0.352 OA
BRANCH  39  40
HETATM   40  C   UNL     1      42.624  -7.092  15.062  1.00  0.00     0.171 C 
HETATM   41  C   UNL     1      42.123  -6.729  16.449  1.00  0.00     0.034 C 
ENDBRANCH  39  40
ENDBRANCH  36  39
ENDBRANCH  30  33
ENDBRANCH   1  29
TORSDOF 8
ENDMDL
MODEL 8
REMARK VINA RESULT:      -9.8      3.350     10.966
REMARK  8 active torsions:
REMARK  status: ('A' for Active; 'I' for Inactive)
REMARK    1  A    between atoms: C_2  and  O_3 
REMARK    2  A    between atoms: O_3  and  C_4 
REMARK    3  A    between atoms: C_7  and  N_8 
REMARK       I    between atoms: N_8  and  C_9 
REMARK    4  A    between atoms: C_9  and  C_10 
REMARK    5  A    between atoms: C_12  and  N_13 
REMARK    6  A    between atoms: N_16  and  C_18 
REMARK    7  A    between atoms: C_18  and  C_19 
REMARK    8  A    between atoms: C_18  and  C_25 
ROOT
HETATM    1  C   UNL     1      39.632 -11.000   5.560  1.00  0.00     0.200 C 
HETATM    2  N   UNL     1      39.387 -10.380   6.871  1.00  0.00    -0.211 N 
HETATM    3  C   UNL     1      39.374  -9.028   6.987  1.00  0.00     0.702 C 
HETATM    4  N   UNL     1      39.527  -8.223   5.985  1.00  0.00    -0.028 NA
HETATM    5  C   UNL     1      39.845  -8.765   4.763  1.00  0.00     0.263 C 
HETATM    6  O   UNL     1      39.610  -8.192   3.703  1.00  0.00    -0.271 OA
HETATM    7  C   UNL     1      40.546 -10.096   4.771  1.00  0.00     0.141 C 
HETATM    8  H   UNL     1      39.898 -10.894   7.590  1.00  0.00     0.178 HD
ENDROOT
BRANCH   3   9
HETATM    9  N   UNL     1      39.105  -8.546   8.252  1.00  0.00    -0.213 N 
HETATM   10  C   UNL     1      39.255  -7.135   8.646  1.00  0.00     0.169 C 
HETATM   11  C   UNL     1      40.687  -6.889   9.153  1.00  0.00     0.256 C 
HETATM   12  N   UNL     1      40.966  -7.817  10.341  1.00  0.00    -0.056 N 
HETATM   13  H   UNL     1      40.235  -7.654  11.035  1.00  0.00     0.281 HD
HETATM   14  C   UNL     1      40.767  -9.285   9.925  1.00  0.00     0.256 C 
HETATM   15  C   UNL     1      39.325  -9.471   9.390  1.00  0.00     0.169 C 
BRANCH  12  16
HETATM   16  C   UNL     1      42.280  -7.541  11.077  1.00  0.00     0.254 C 
BRANCH  16  17
HETATM   17  C   UNL     1      42.137  -7.703  12.591  1.00  0.00    -0.023 A 
HETATM   18  C   UNL     1      41.196  -8.580  13.163  1.00  0.00     0.009 A 
HETATM   19  C   UNL     1      41.074  -8.694  14.548  1.00  0.00     0.001 A 
HETATM   20  C   UNL     1      41.890  -7.938  15.385  1.00  0.00     0.000 A 
HETATM   21  C   UNL     1      42.832  -7.070  14.839  1.00  0.00     0.001 A 
HETATM   22  C   UNL     1      42.957  -6.952  13.453  1.00  0.00     0.009 A 
ENDBRANCH  16  17
BRANCH  16  23
HETATM   23  C   UNL     1      43.513  -8.230  10.456  1.00  0.00    -0.023 A 
HETATM   24  C   UNL     1      44.145  -9.344  11.044  1.00  0.00     0.009 A 
HETATM   25  C   UNL     1      45.241  -9.966  10.434  1.00  0.00     0.001 A 
HETATM   26  C   UNL     1      45.718  -9.505   9.213  1.00  0.00     0.000 A 
HETATM   27  C   UNL     1      45.089  -8.435   8.591  1.00  0.00     0.001 A 
HETATM   28  C   UNL     1      43.992  -7.816   9.194  1.00  0.00     0.009 A 
ENDBRANCH  16  23
ENDBRANCH  12  16
ENDBRANCH   3   9
BRANCH   1  29
HETATM   29  C   UNL     1      40.200 -12.412   5.805  1.00  0.00     0.246 C 
HETATM   30  N   UNL     1      41.530 -12.578   5.472  1.00  0.00    -0.325 N 
HETATM   31  H   UNL     1      42.106 -11.755   5.338  1.00  0.00     0.169 HD
HETATM   32  O   UNL     1      39.448 -13.289   6.238  1.00  0.00    -0.271 OA
BRANCH  30  33
HETATM   33  C   UNL     1      42.218 -13.808   5.383  1.00  0.00     0.035 A 
HETATM   34  C   UNL     1      42.143 -14.657   4.277  1.00  0.00     0.032 A 
HETATM   35  C   UNL     1      42.895 -15.839   4.230  1.00  0.00     0.039 A 
HETATM   36  C   UNL     1      43.725 -16.188   5.292  1.00  0.00     0.068 A 
HETATM   37  C   UNL     1      43.791 -15.348   6.404  1.00  0.00     0.039 A 
HETATM   38  C   UNL     1      43.056 -14.159   6.446  1.00  0.00     0.032 A 
BRANCH  36  39
HETATM   39  O   UNL     1      44.504 -17.306   5.369  1.00  0.00    -0.352 OA
BRANCH  39  40
HETATM   40  C   UNL     1      43.832 -18.553   5.542  1.00  0.00     0.171 C 
HETATM   41  C   UNL     1      44.303 -19.497   4.451  1.00  0.00     0.034 C 
ENDBRANCH  39  40
ENDBRANCH  36  39
ENDBRANCH  30  33
ENDBRANCH   1  29
TORSDOF 8
ENDMDL
MODEL 9
REMARK VINA RESULT:      -9.7      2.302      4.071
REMARK  8 active torsions:
REMARK  status: ('A' for Active; 'I' for Inactive)
REMARK    1  A    between atoms: C_2  and  O_3 
REMARK    2  A    between atoms: O_3  and  C_4 
REMARK    3  A    between atoms: C_7  and  N_8 
REMARK       I    between atoms: N_8  and  C_9 
REMARK    4  A    between atoms: C_9  and  C_10 
REMARK    5  A    between atoms: C_12  and  N_13 
REMARK    6  A    between atoms: N_16  and  C_18 
REMARK    7  A    between atoms: C_18  and  C_19 
REMARK    8  A    between atoms: C_18  and  C_25 
ROOT
HETATM    1  C   UNL     1      43.868 -10.434   9.329  1.00  0.00     0.200 C 
HETATM    2  N   UNL     1      43.009 -10.467   8.135  1.00  0.00    -0.211 N 
HETATM    3  C   UNL     1      43.571 -10.487   6.899  1.00  0.00     0.702 C 
HETATM    4  N   UNL     1      44.848 -10.522   6.696  1.00  0.00    -0.028 NA
HETATM    5  C   UNL     1      45.680 -10.403   7.783  1.00  0.00     0.263 C 
HETATM    6  O   UNL     1      46.833 -10.825   7.784  1.00  0.00    -0.271 OA
HETATM    7  C   UNL     1      45.131  -9.684   8.984  1.00  0.00     0.141 C 
HETATM    8  H   UNL     1      42.221  -9.831   8.266  1.00  0.00     0.178 HD
ENDROOT
BRANCH   3   9
HETATM    9  N   UNL     1      42.680 -10.549   5.846  1.00  0.00    -0.213 N 
HETATM   10  C   UNL     1      41.234 -10.778   6.003  1.00  0.00     0.169 C 
HETATM   11  C   UNL     1      40.945 -12.290   5.982  1.00  0.00     0.256 C 
HETATM   12  N   UNL     1      41.448 -12.879   4.659  1.00  0.00    -0.056 N 
HETATM   13  H   UNL     1      41.010 -12.351   3.902  1.00  0.00     0.281 HD
HETATM   14  C   UNL     1      42.951 -12.598   4.491  1.00  0.00     0.256 C 
HETATM   15  C   UNL     1      43.193 -11.069   4.556  1.00  0.00     0.169 C 
BRANCH  12  16
HETATM   16  C   UNL     1      41.046 -14.335   4.410  1.00  0.00     0.254 C 
BRANCH  16  17
HETATM   17  C   UNL     1      40.655 -14.585   2.953  1.00  0.00    -0.023 A 
HETATM   18  C   UNL     1      40.156 -15.826   2.516  1.00  0.00     0.009 A 
HETATM   19  C   UNL     1      39.824 -16.033   1.176  1.00  0.00     0.001 A 
HETATM   20  C   UNL     1      39.982 -15.004   0.252  1.00  0.00     0.000 A 
HETATM   21  C   UNL     1      40.468 -13.766   0.665  1.00  0.00     0.001 A 
HETATM   22  C   UNL     1      40.802 -13.556   2.005  1.00  0.00     0.009 A 
ENDBRANCH  16  17
BRANCH  16  23
HETATM   23  C   UNL     1      42.011 -15.374   5.019  1.00  0.00    -0.023 A 
HETATM   24  C   UNL     1      41.892 -15.848   6.341  1.00  0.00     0.009 A 
HETATM   25  C   UNL     1      42.765 -16.818   6.848  1.00  0.00     0.001 A 
HETATM   26  C   UNL     1      43.763 -17.352   6.043  1.00  0.00     0.000 A 
HETATM   27  C   UNL     1      43.879 -16.933   4.724  1.00  0.00     0.001 A 
HETATM   28  C   UNL     1      43.006 -15.969   4.213  1.00  0.00     0.009 A 
ENDBRANCH  16  23
ENDBRANCH  12  16
ENDBRANCH   3   9
BRANCH   1  29
HETATM   29  C   UNL     1      43.055  -9.803  10.477  1.00  0.00     0.246 C 
HETATM   30  N   UNL     1      41.703 -10.089  10.467  1.00  0.00    -0.325 N 
HETATM   31  H   UNL     1      41.372 -10.860   9.900  1.00  0.00     0.169 HD
HETATM   32  O   UNL     1      43.634  -9.078  11.289  1.00  0.00    -0.271 OA
BRANCH  30  33
HETATM   33  C   UNL     1      40.714  -9.461  11.256  1.00  0.00     0.035 A 
HETATM   34  C   UNL     1      40.449  -9.806  12.582  1.00  0.00     0.032 A 
HETATM   35  C   UNL     1      39.491  -9.106  13.327  1.00  0.00     0.039 A 
HETATM   36  C   UNL     1      38.780  -8.057  12.749  1.00  0.00     0.068 A 
HETATM   37  C   UNL     1      39.032  -7.720  11.419  1.00  0.00     0.039 A 
HETATM   38  C   UNL     1      40.002  -8.405  10.680  1.00  0.00     0.032 A 
BRANCH  36  39
HETATM   39  O   UNL     1      37.823  -7.301  13.363  1.00  0.00    -0.352 OA
BRANCH  39  40
HETATM   40  C   UNL     1      38.258  -6.095  13.993  1.00  0.00     0.171 C 
HETATM   41  C   UNL     1      37.441  -4.948  13.426  1.00  0.00     0.034 C 
ENDBRANCH  39  40
ENDBRANCH  36  39
ENDBRANCH  30  33
ENDBRANCH   1  29
TORSDOF 8
ENDMDL
MODEL 10
REMARK VINA RESULT:      -9.6      2.836     12.123
REMARK  8 active torsions:
REMARK  status: ('A' for Active; 'I' for Inactive)
REMARK    1  A    between atoms: C_2  and  O_3 
REMARK    2  A    between atoms: O_3  and  C_4 
REMARK    3  A    between atoms: C_7  and  N_8 
REMARK       I    between atoms: N_8  and  C_9 
REMARK    4  A    between atoms: C_9  and  C_10 
REMARK    5  A    between atoms: C_12  and  N_13 
REMARK    6  A    between atoms: N_16  and  C_18 
REMARK    7  A    between atoms: C_18  and  C_19 
REMARK    8  A    between atoms: C_18  and  C_25 
ROOT
HETATM    1  C   UNL     1      43.491 -10.451   7.365  1.00  0.00     0.200 C 
HETATM    2  N   UNL     1      42.770 -10.462   8.647  1.00  0.00    -0.211 N 
HETATM    3  C   UNL     1      43.248  -9.746   9.697  1.00  0.00     0.702 C 
HETATM    4  N   UNL     1      44.304  -9.001   9.631  1.00  0.00    -0.028 NA
HETATM    5  C   UNL     1      45.050  -9.036   8.478  1.00  0.00     0.263 C 
HETATM    6  O   UNL     1      45.787  -8.116   8.138  1.00  0.00    -0.271 OA
HETATM    7  C   UNL     1      44.963 -10.288   7.650  1.00  0.00     0.141 C 
HETATM    8  H   UNL     1      42.452 -11.411   8.850  1.00  0.00     0.178 HD
ENDROOT
BRANCH   3   9
HETATM    9  N   UNL     1      42.482  -9.797  10.845  1.00  0.00    -0.213 N 
HETATM   10  C   UNL     1      41.012  -9.719  10.858  1.00  0.00     0.169 C 
HETATM   11  C   UNL     1      40.574  -8.247  10.957  1.00  0.00     0.256 C 
HETATM   12  N   UNL     1      41.162  -7.631  12.232  1.00  0.00    -0.056 N 
HETATM   13  H   UNL     1      40.871  -8.216  13.017  1.00  0.00     0.281 HD
HETATM   14  C   UNL     1      42.696  -7.755  12.221  1.00  0.00     0.256 C 
HETATM   15  C   UNL     1      43.084  -9.249  12.084  1.00  0.00     0.169 C 
BRANCH  12  16
HETATM   16  C   UNL     1      40.644  -6.231  12.568  1.00  0.00     0.254 C 
BRANCH  16  17
HETATM   17  C   UNL     1      40.133  -6.134  14.006  1.00  0.00    -0.023 A 
HETATM   18  C   UNL     1      40.855  -6.665  15.091  1.00  0.00     0.009 A 
HETATM   19  C   UNL     1      40.357  -6.580  16.393  1.00  0.00     0.001 A 
HETATM   20  C   UNL     1      39.133  -5.961  16.632  1.00  0.00     0.000 A 
HETATM   21  C   UNL     1      38.407  -5.423  15.572  1.00  0.00     0.001 A 
HETATM   22  C   UNL     1      38.901  -5.508  14.268  1.00  0.00     0.009 A 
ENDBRANCH  16  17
BRANCH  16  23
HETATM   23  C   UNL     1      41.576  -5.085  12.123  1.00  0.00    -0.023 A 
HETATM   24  C   UNL     1      41.852  -4.803  10.770  1.00  0.00     0.009 A 
HETATM   25  C   UNL     1      42.675  -3.731  10.402  1.00  0.00     0.001 A 
HETATM   26  C   UNL     1      43.226  -2.905  11.374  1.00  0.00     0.000 A 
HETATM   27  C   UNL     1      42.939  -3.135  12.713  1.00  0.00     0.001 A 
HETATM   28  C   UNL     1      42.113  -4.199  13.083  1.00  0.00     0.009 A 
ENDBRANCH  16  23
ENDBRANCH  12  16
ENDBRANCH   3   9
BRANCH   1  29
HETATM   29  C   UNL     1      43.134 -11.749   6.614  1.00  0.00     0.246 C 
HETATM   30  N   UNL     1      43.151 -12.897   7.381  1.00  0.00    -0.325 N 
HETATM   31  H   UNL     1      43.139 -12.810   8.390  1.00  0.00     0.169 HD
HETATM   32  O   UNL     1      42.896 -11.691   5.404  1.00  0.00    -0.271 OA
BRANCH  30  33
HETATM   33  C   UNL     1      43.090 -14.223   6.897  1.00  0.00     0.035 A 
HETATM   34  C   UNL     1      41.897 -14.879   6.587  1.00  0.00     0.032 A 
HETATM   35  C   UNL     1      41.909 -16.176   6.059  1.00  0.00     0.039 A 
HETATM   36  C   UNL     1      43.117 -16.836   5.842  1.00  0.00     0.068 A 
HETATM   37  C   UNL     1      44.309 -16.188   6.164  1.00  0.00     0.039 A 
HETATM   38  C   UNL     1      44.300 -14.886   6.674  1.00  0.00     0.032 A 
BRANCH  36  39
HETATM   39  O   UNL     1      43.264 -18.095   5.336  1.00  0.00    -0.352 OA
BRANCH  39  40
HETATM   40  C   UNL     1      44.122 -18.242   4.204  1.00  0.00     0.171 C 
HETATM   41  C   UNL     1      43.316 -17.920   2.958  1.00  0.00     0.034 C 
ENDBRANCH  39  40
ENDBRANCH  36  39
ENDBRANCH  30  33
ENDBRANCH   1  29
TORSDOF 8
ENDMDL
