MODEL 1
REMARK VINA RESULT:      -8.8      0.000      0.000
REMARK  9 active torsions:
REMARK  status: ('A' for Active; 'I' for Inactive)
REMARK    1  A    between atoms: O_2  and  C_3 
REMARK    2  A    between atoms: C_3  and  C_4 
REMARK    3  A    between atoms: C_6  and  C_7 
REMARK    4  A    between atoms: C_7  and  N_8 
REMARK       I    between atoms: N_8  and  C_9 
REMARK    5  A    between atoms: C_9  and  C_10 
REMARK    6  A    between atoms: C_10  and  S_11 
REMARK    7  A    between atoms: S_11  and  C_12 
REMARK    8  A    between atoms: C_12  and  C_13 
REMARK       I    between atoms: C_13  and  N_14 
REMARK    9  A    between atoms: N_14  and  C_15 
ROOT
HETATM    1  S   UNL     1      42.115 -11.328   2.386  1.00  0.00    -0.150 SA
ENDROOT
BRANCH   1   2
HETATM    2  C   UNL     1      42.303 -11.730   4.153  1.00  0.00     0.177 C 
BRANCH   2   3
HETATM    3  C   UNL     1      43.716 -11.572   4.694  1.00  0.00     0.227 C 
HETATM    4  N   UNL     1      43.888 -11.794   6.035  1.00  0.00    -0.354 N 
HETATM    5  H   UNL     1      43.103 -12.131   6.585  1.00  0.00     0.162 HD
HETATM    6  O   UNL     1      44.654 -11.313   3.942  1.00  0.00    -0.273 OA
BRANCH   4   7
HETATM    7  C   UNL     1      45.198 -11.839   6.641  1.00  0.00     0.187 C 
BRANCH   7   8
HETATM    8  C   UNL     1      45.241 -10.904   7.792  1.00  0.00     0.071 A 
HETATM    9  O   UNL     1      44.538 -11.255   8.910  1.00  0.00    -0.307 OA
HETATM   10  C   UNL     1      44.722 -10.265   9.841  1.00  0.00     0.150 A 
HETATM   11  C   UNL     1      45.552  -9.292   9.312  1.00  0.00     0.046 A 
HETATM   12  C   UNL     1      45.881  -9.700   7.998  1.00  0.00     0.037 A 
BRANCH  10  13
HETATM   13  C   UNL     1      44.094 -10.350  11.140  1.00  0.00     0.316 C 
HETATM   14  O   UNL     1      43.986 -11.375  11.803  1.00  0.00    -0.257 OA
BRANCH  13  15
HETATM   15  O   UNL     1      43.635  -9.125  11.530  1.00  0.00    -0.321 OA
HETATM   16  C   UNL     1      42.384  -8.763  10.948  1.00  0.00     0.213 C 
ENDBRANCH  13  15
ENDBRANCH  10  13
ENDBRANCH   7   8
ENDBRANCH   4   7
ENDBRANCH   2   3
ENDBRANCH   1   2
BRANCH   1  17
HETATM   17  C   UNL     1      40.867 -12.589   1.933  1.00  0.00     0.177 C 
BRANCH  17  18
HETATM   18  C   UNL     1      41.061 -13.896   2.703  1.00  0.00     0.231 C 
HETATM   19  N   UNL     1      42.237 -14.555   2.397  1.00  0.00    -0.327 N 
HETATM   20  H   UNL     1      42.860 -14.052   1.771  1.00  0.00     0.169 HD
HETATM   21  O   UNL     1      40.175 -14.306   3.450  1.00  0.00    -0.272 OA
BRANCH  19  22
HETATM   22  C   UNL     1      42.724 -15.770   2.918  1.00  0.00     0.035 A 
HETATM   23  C   UNL     1      42.721 -16.978   2.217  1.00  0.00     0.042 A 
HETATM   24  C   UNL     1      43.197 -18.162   2.811  1.00  0.00    -0.024 A 
HETATM   25  C   UNL     1      43.697 -18.128   4.132  1.00  0.00    -0.026 A 
HETATM   26  C   UNL     1      43.182 -19.384   2.120  1.00  0.00     0.012 A 
HETATM   27  C   UNL     1      43.708 -16.910   4.824  1.00  0.00     0.014 A 
HETATM   28  C   UNL     1      44.169 -19.311   4.724  1.00  0.00     0.012 A 
HETATM   29  C   UNL     1      43.224 -15.744   4.223  1.00  0.00     0.030 A 
HETATM   30  C   UNL     1      44.144 -20.517   4.022  1.00  0.00     0.001 A 
HETATM   31  C   UNL     1      43.651 -20.553   2.722  1.00  0.00     0.001 A 
ENDBRANCH  19  22
ENDBRANCH  17  18
ENDBRANCH   1  17
TORSDOF 9
ENDMDL
MODEL 2
REMARK VINA RESULT:      -8.8      2.109      3.300
REMARK  9 active torsions:
REMARK  status: ('A' for Active; 'I' for Inactive)
REMARK    1  A    between atoms: O_2  and  C_3 
REMARK    2  A    between atoms: C_3  and  C_4 
REMARK    3  A    between atoms: C_6  and  C_7 
REMARK    4  A    between atoms: C_7  and  N_8 
REMARK       I    between atoms: N_8  and  C_9 
REMARK    5  A    between atoms: C_9  and  C_10 
REMARK    6  A    between atoms: C_10  and  S_11 
REMARK    7  A    between atoms: S_11  and  C_12 
REMARK    8  A    between atoms: C_12  and  C_13 
REMARK       I    between atoms: C_13  and  N_14 
REMARK    9  A    between atoms: N_14  and  C_15 
ROOT
HETATM    1  S   UNL     1      43.942 -12.109   5.349  1.00  0.00    -0.150 SA
ENDROOT
BRANCH   1   2
HETATM    2  C   UNL     1      43.835 -12.240   7.164  1.00  0.00     0.177 C 
BRANCH   2   3
HETATM    3  C   UNL     1      44.006 -10.924   7.907  1.00  0.00     0.227 C 
HETATM    4  N   UNL     1      42.861 -10.310   8.341  1.00  0.00    -0.354 N 
HETATM    5  H   UNL     1      41.972 -10.789   8.229  1.00  0.00     0.162 HD
HETATM    6  O   UNL     1      45.126 -10.476   8.148  1.00  0.00    -0.273 OA
BRANCH   4   7
HETATM    7  C   UNL     1      42.893  -9.149   9.198  1.00  0.00     0.187 C 
BRANCH   7   8
HETATM    8  C   UNL     1      42.615  -9.560  10.596  1.00  0.00     0.071 A 
HETATM    9  O   UNL     1      41.307  -9.581  10.994  1.00  0.00    -0.307 OA
HETATM   10  C   UNL     1      41.282  -9.992  12.302  1.00  0.00     0.150 A 
HETATM   11  C   UNL     1      42.574 -10.240  12.727  1.00  0.00     0.046 A 
HETATM   12  C   UNL     1      43.429  -9.958  11.635  1.00  0.00     0.037 A 
BRANCH  10  13
HETATM   13  C   UNL     1      40.027 -10.112  13.010  1.00  0.00     0.316 C 
HETATM   14  O   UNL     1      39.570 -11.156  13.461  1.00  0.00    -0.257 OA
BRANCH  13  15
HETATM   15  O   UNL     1      39.417  -8.895  13.111  1.00  0.00    -0.321 OA
HETATM   16  C   UNL     1      40.221  -7.894  13.734  1.00  0.00     0.213 C 
ENDBRANCH  13  15
ENDBRANCH  10  13
ENDBRANCH   7   8
ENDBRANCH   4   7
ENDBRANCH   2   3
ENDBRANCH   1   2
BRANCH   1  17
HETATM   17  C   UNL     1      42.187 -12.425   4.932  1.00  0.00     0.177 C 
BRANCH  17  18
HETATM   18  C   UNL     1      41.936 -13.887   4.559  1.00  0.00     0.231 C 
HETATM   19  N   UNL     1      43.089 -14.597   4.278  1.00  0.00    -0.327 N 
HETATM   20  H   UNL     1      43.955 -14.090   4.437  1.00  0.00     0.169 HD
HETATM   21  O   UNL     1      40.786 -14.306   4.457  1.00  0.00    -0.272 OA
BRANCH  19  22
HETATM   22  C   UNL     1      43.218 -15.949   3.906  1.00  0.00     0.035 A 
HETATM   23  C   UNL     1      43.519 -16.981   4.799  1.00  0.00     0.042 A 
HETATM   24  C   UNL     1      43.661 -18.308   4.352  1.00  0.00    -0.024 A 
HETATM   25  C   UNL     1      43.486 -18.605   2.982  1.00  0.00    -0.026 A 
HETATM   26  C   UNL     1      43.980 -19.348   5.240  1.00  0.00     0.012 A 
HETATM   27  C   UNL     1      43.174 -17.567   2.095  1.00  0.00     0.014 A 
HETATM   28  C   UNL     1      43.633 -19.930   2.537  1.00  0.00     0.012 A 
HETATM   29  C   UNL     1      43.044 -16.253   2.553  1.00  0.00     0.030 A 
HETATM   30  C   UNL     1      43.952 -20.950   3.435  1.00  0.00     0.001 A 
HETATM   31  C   UNL     1      44.126 -20.659   4.784  1.00  0.00     0.001 A 
ENDBRANCH  19  22
ENDBRANCH  17  18
ENDBRANCH   1  17
TORSDOF 9
ENDMDL
MODEL 3
REMARK VINA RESULT:      -8.4      3.785      7.750
REMARK  9 active torsions:
REMARK  status: ('A' for Active; 'I' for Inactive)
REMARK    1  A    between atoms: O_2  and  C_3 
REMARK    2  A    between atoms: C_3  and  C_4 
REMARK    3  A    between atoms: C_6  and  C_7 
REMARK    4  A    between atoms: C_7  and  N_8 
REMARK       I    between atoms: N_8  and  C_9 
REMARK    5  A    between atoms: C_9  and  C_10 
REMARK    6  A    between atoms: C_10  and  S_11 
REMARK    7  A    between atoms: S_11  and  C_12 
REMARK    8  A    between atoms: C_12  and  C_13 
REMARK       I    between atoms: C_13  and  N_14 
REMARK    9  A    between atoms: N_14  and  C_15 
ROOT
HETATM    1  S   UNL     1      42.196 -11.064   4.848  1.00  0.00    -0.150 SA
ENDROOT
BRANCH   1   2
HETATM    2  C   UNL     1      40.494 -10.546   5.246  1.00  0.00     0.177 C 
BRANCH   2   3
HETATM    3  C   UNL     1      39.489 -10.745   4.120  1.00  0.00     0.227 C 
HETATM    4  N   UNL     1      39.778 -11.724   3.207  1.00  0.00    -0.354 N 
HETATM    5  H   UNL     1      40.585 -12.322   3.361  1.00  0.00     0.162 HD
HETATM    6  O   UNL     1      38.450 -10.090   4.080  1.00  0.00    -0.273 OA
BRANCH   4   7
HETATM    7  C   UNL     1      38.833 -12.125   2.191  1.00  0.00     0.187 C 
BRANCH   7   8
HETATM    8  C   UNL     1      39.478 -13.096   1.274  1.00  0.00     0.071 A 
HETATM    9  O   UNL     1      39.162 -13.008  -0.053  1.00  0.00    -0.307 OA
HETATM   10  C   UNL     1      39.868 -13.983  -0.710  1.00  0.00     0.150 A 
HETATM   11  C   UNL     1      40.637 -14.681   0.203  1.00  0.00     0.046 A 
HETATM   12  C   UNL     1      40.384 -14.116   1.475  1.00  0.00     0.037 A 
BRANCH  10  13
HETATM   13  C   UNL     1      39.740 -14.145  -2.141  1.00  0.00     0.316 C 
HETATM   14  O   UNL     1      40.619 -13.896  -2.959  1.00  0.00    -0.257 OA
BRANCH  13  15
HETATM   15  O   UNL     1      38.500 -14.618  -2.459  1.00  0.00    -0.321 OA
HETATM   16  C   UNL     1      37.586 -13.607  -2.882  1.00  0.00     0.213 C 
ENDBRANCH  13  15
ENDBRANCH  10  13
ENDBRANCH   7   8
ENDBRANCH   4   7
ENDBRANCH   2   3
ENDBRANCH   1   2
BRANCH   1  17
HETATM   17  C   UNL     1      42.341 -12.484   5.995  1.00  0.00     0.177 C 
BRANCH  17  18
HETATM   18  C   UNL     1      42.042 -13.816   5.305  1.00  0.00     0.231 C 
HETATM   19  N   UNL     1      43.170 -14.564   5.023  1.00  0.00    -0.327 N 
HETATM   20  H   UNL     1      44.040 -14.181   5.381  1.00  0.00     0.169 HD
HETATM   21  O   UNL     1      40.889 -14.097   4.987  1.00  0.00    -0.272 OA
BRANCH  19  22
HETATM   22  C   UNL     1      43.254 -15.825   4.401  1.00  0.00     0.035 A 
HETATM   23  C   UNL     1      43.538 -17.013   5.077  1.00  0.00     0.042 A 
HETATM   24  C   UNL     1      43.635 -18.236   4.386  1.00  0.00    -0.024 A 
HETATM   25  C   UNL     1      43.430 -18.266   2.989  1.00  0.00    -0.026 A 
HETATM   26  C   UNL     1      43.937 -19.433   5.056  1.00  0.00     0.012 A 
HETATM   27  C   UNL     1      43.134 -17.071   2.319  1.00  0.00     0.014 A 
HETATM   28  C   UNL     1      43.531 -19.486   2.301  1.00  0.00     0.012 A 
HETATM   29  C   UNL     1      43.049 -15.864   3.018  1.00  0.00     0.030 A 
HETATM   30  C   UNL     1      43.834 -20.665   2.984  1.00  0.00     0.001 A 
HETATM   31  C   UNL     1      44.037 -20.638   4.360  1.00  0.00     0.001 A 
ENDBRANCH  19  22
ENDBRANCH  17  18
ENDBRANCH   1  17
TORSDOF 9
ENDMDL
MODEL 4
REMARK VINA RESULT:      -8.3      1.508      2.058
REMARK  9 active torsions:
REMARK  status: ('A' for Active; 'I' for Inactive)
REMARK    1  A    between atoms: O_2  and  C_3 
REMARK    2  A    between atoms: C_3  and  C_4 
REMARK    3  A    between atoms: C_6  and  C_7 
REMARK    4  A    between atoms: C_7  and  N_8 
REMARK       I    between atoms: N_8  and  C_9 
REMARK    5  A    between atoms: C_9  and  C_10 
REMARK    6  A    between atoms: C_10  and  S_11 
REMARK    7  A    between atoms: S_11  and  C_12 
REMARK    8  A    between atoms: C_12  and  C_13 
REMARK       I    between atoms: C_13  and  N_14 
REMARK    9  A    between atoms: N_14  and  C_15 
ROOT
HETATM    1  S   UNL     1      40.602 -10.608   5.562  1.00  0.00    -0.150 SA
ENDROOT
BRANCH   1   2
HETATM    2  C   UNL     1      41.737 -10.964   4.181  1.00  0.00     0.177 C 
BRANCH   2   3
HETATM    3  C   UNL     1      43.199 -11.100   4.579  1.00  0.00     0.227 C 
HETATM    4  N   UNL     1      43.469 -11.132   5.921  1.00  0.00    -0.354 N 
HETATM    5  H   UNL     1      42.696 -11.150   6.580  1.00  0.00     0.162 HD
HETATM    6  O   UNL     1      44.075 -11.230   3.726  1.00  0.00    -0.273 OA
BRANCH   4   7
HETATM    7  C   UNL     1      44.789 -11.423   6.429  1.00  0.00     0.187 C 
BRANCH   7   8
HETATM    8  C   UNL     1      44.994 -10.704   7.711  1.00  0.00     0.071 A 
HETATM    9  O   UNL     1      44.241 -11.102   8.779  1.00  0.00    -0.307 OA
HETATM   10  C   UNL     1      44.595 -10.318   9.847  1.00  0.00     0.150 A 
HETATM   11  C   UNL     1      45.579  -9.430   9.454  1.00  0.00     0.046 A 
HETATM   12  C   UNL     1      45.832  -9.674   8.084  1.00  0.00     0.037 A 
BRANCH  10  13
HETATM   13  C   UNL     1      43.961 -10.499  11.134  1.00  0.00     0.316 C 
HETATM   14  O   UNL     1      43.998 -11.529  11.798  1.00  0.00    -0.257 OA
BRANCH  13  15
HETATM   15  O   UNL     1      43.313  -9.359  11.512  1.00  0.00    -0.321 OA
HETATM   16  C   UNL     1      41.918  -9.358  11.210  1.00  0.00     0.213 C 
ENDBRANCH  13  15
ENDBRANCH  10  13
ENDBRANCH   7   8
ENDBRANCH   4   7
ENDBRANCH   2   3
ENDBRANCH   1   2
BRANCH   1  17
HETATM   17  C   UNL     1      39.747 -12.224   5.658  1.00  0.00     0.177 C 
BRANCH  17  18
HETATM   18  C   UNL     1      40.708 -13.398   5.466  1.00  0.00     0.231 C 
HETATM   19  N   UNL     1      40.444 -14.157   4.341  1.00  0.00    -0.327 N 
HETATM   20  H   UNL     1      39.708 -13.795   3.742  1.00  0.00     0.169 HD
HETATM   21  O   UNL     1      41.563 -13.636   6.316  1.00  0.00    -0.272 OA
BRANCH  19  22
HETATM   22  C   UNL     1      41.127 -15.296   3.871  1.00  0.00     0.035 A 
HETATM   23  C   UNL     1      42.093 -15.987   4.605  1.00  0.00     0.042 A 
HETATM   24  C   UNL     1      42.758 -17.102   4.061  1.00  0.00    -0.024 A 
HETATM   25  C   UNL     1      42.435 -17.539   2.756  1.00  0.00    -0.026 A 
HETATM   26  C   UNL     1      43.743 -17.792   4.785  1.00  0.00     0.012 A 
HETATM   27  C   UNL     1      41.455 -16.848   2.031  1.00  0.00     0.014 A 
HETATM   28  C   UNL     1      43.101 -18.650   2.214  1.00  0.00     0.012 A 
HETATM   29  C   UNL     1      40.811 -15.737   2.582  1.00  0.00     0.030 A 
HETATM   30  C   UNL     1      44.080 -19.321   2.948  1.00  0.00     0.001 A 
HETATM   31  C   UNL     1      44.400 -18.892   4.232  1.00  0.00     0.001 A 
ENDBRANCH  19  22
ENDBRANCH  17  18
ENDBRANCH   1  17
TORSDOF 9
ENDMDL
MODEL 5
REMARK VINA RESULT:      -8.2      1.736      1.976
REMARK  9 active torsions:
REMARK  status: ('A' for Active; 'I' for Inactive)
REMARK    1  A    between atoms: O_2  and  C_3 
REMARK    2  A    between atoms: C_3  and  C_4 
REMARK    3  A    between atoms: C_6  and  C_7 
REMARK    4  A    between atoms: C_7  and  N_8 
REMARK       I    between atoms: N_8  and  C_9 
REMARK    5  A    between atoms: C_9  and  C_10 
REMARK    6  A    between atoms: C_10  and  S_11 
REMARK    7  A    between atoms: S_11  and  C_12 
REMARK    8  A    between atoms: C_12  and  C_13 
REMARK       I    between atoms: C_13  and  N_14 
REMARK    9  A    between atoms: N_14  and  C_15 
ROOT
HETATM    1  S   UNL     1      40.113 -11.507   4.378  1.00  0.00    -0.150 SA
ENDROOT
BRANCH   1   2
HETATM    2  C   UNL     1      41.214 -10.157   4.916  1.00  0.00     0.177 C 
BRANCH   2   3
HETATM    3  C   UNL     1      42.613 -10.599   5.318  1.00  0.00     0.227 C 
HETATM    4  N   UNL     1      42.833 -10.795   6.656  1.00  0.00    -0.354 N 
HETATM    5  H   UNL     1      42.051 -10.724   7.301  1.00  0.00     0.162 HD
HETATM    6  O   UNL     1      43.473 -10.820   4.468  1.00  0.00    -0.273 OA
BRANCH   4   7
HETATM    7  C   UNL     1      44.060 -11.372   7.152  1.00  0.00     0.187 C 
BRANCH   7   8
HETATM    8  C   UNL     1      44.461 -10.678   8.401  1.00  0.00     0.071 A 
HETATM    9  O   UNL     1      43.473 -10.379   9.296  1.00  0.00    -0.307 OA
HETATM   10  C   UNL     1      44.061  -9.756  10.366  1.00  0.00     0.150 A 
HETATM   11  C   UNL     1      45.425  -9.670  10.150  1.00  0.00     0.046 A 
HETATM   12  C   UNL     1      45.680 -10.257   8.888  1.00  0.00     0.037 A 
BRANCH  10  13
HETATM   13  C   UNL     1      43.264  -9.310  11.487  1.00  0.00     0.316 C 
HETATM   14  O   UNL     1      43.618  -8.481  12.318  1.00  0.00    -0.257 OA
BRANCH  13  15
HETATM   15  O   UNL     1      42.054  -9.942  11.493  1.00  0.00    -0.321 OA
HETATM   16  C   UNL     1      41.412  -9.950  12.767  1.00  0.00     0.213 C 
ENDBRANCH  13  15
ENDBRANCH  10  13
ENDBRANCH   7   8
ENDBRANCH   4   7
ENDBRANCH   2   3
ENDBRANCH   1   2
BRANCH   1  17
HETATM   17  C   UNL     1      39.905 -12.366   5.982  1.00  0.00     0.177 C 
BRANCH  17  18
HETATM   18  C   UNL     1      40.424 -13.804   5.938  1.00  0.00     0.231 C 
HETATM   19  N   UNL     1      41.488 -13.987   5.074  1.00  0.00    -0.327 N 
HETATM   20  H   UNL     1      41.845 -13.137   4.647  1.00  0.00     0.169 HD
HETATM   21  O   UNL     1      39.849 -14.683   6.575  1.00  0.00    -0.272 OA
BRANCH  19  22
HETATM   22  C   UNL     1      42.199 -15.171   4.796  1.00  0.00     0.035 A 
HETATM   23  C   UNL     1      41.990 -15.961   3.664  1.00  0.00     0.042 A 
HETATM   24  C   UNL     1      42.717 -17.150   3.465  1.00  0.00    -0.024 A 
HETATM   25  C   UNL     1      43.684 -17.545   4.417  1.00  0.00    -0.026 A 
HETATM   26  C   UNL     1      42.501 -17.960   2.338  1.00  0.00     0.012 A 
HETATM   27  C   UNL     1      43.896 -16.740   5.544  1.00  0.00     0.014 A 
HETATM   28  C   UNL     1      44.406 -18.733   4.218  1.00  0.00     0.012 A 
HETATM   29  C   UNL     1      43.160 -15.568   5.732  1.00  0.00     0.030 A 
HETATM   30  C   UNL     1      44.175 -19.526   3.092  1.00  0.00     0.001 A 
HETATM   31  C   UNL     1      43.224 -19.139   2.154  1.00  0.00     0.001 A 
ENDBRANCH  19  22
ENDBRANCH  17  18
ENDBRANCH   1  17
TORSDOF 9
ENDMDL
MODEL 6
REMARK VINA RESULT:      -8.2      2.320      3.822
REMARK  9 active torsions:
REMARK  status: ('A' for Active; 'I' for Inactive)
REMARK    1  A    between atoms: O_2  and  C_3 
REMARK    2  A    between atoms: C_3  and  C_4 
REMARK    3  A    between atoms: C_6  and  C_7 
REMARK    4  A    between atoms: C_7  and  N_8 
REMARK       I    between atoms: N_8  and  C_9 
REMARK    5  A    between atoms: C_9  and  C_10 
REMARK    6  A    between atoms: C_10  and  S_11 
REMARK    7  A    between atoms: S_11  and  C_12 
REMARK    8  A    between atoms: C_12  and  C_13 
REMARK       I    between atoms: C_13  and  N_14 
REMARK    9  A    between atoms: N_14  and  C_15 
ROOT
HETATM    1  S   UNL     1      43.955 -12.212   6.203  1.00  0.00    -0.150 SA
ENDROOT
BRANCH   1   2
HETATM    2  C   UNL     1      43.865 -10.604   7.057  1.00  0.00     0.177 C 
BRANCH   2   3
HETATM    3  C   UNL     1      44.214 -10.651   8.537  1.00  0.00     0.227 C 
HETATM    4  N   UNL     1      43.217 -10.310   9.413  1.00  0.00    -0.354 N 
HETATM    5  H   UNL     1      42.285 -10.129   9.054  1.00  0.00     0.162 HD
HETATM    6  O   UNL     1      45.321 -11.032   8.913  1.00  0.00    -0.273 OA
BRANCH   4   7
HETATM    7  C   UNL     1      43.365 -10.471  10.841  1.00  0.00     0.187 C 
BRANCH   7   8
HETATM    8  C   UNL     1      42.930  -9.230  11.525  1.00  0.00     0.071 A 
HETATM    9  O   UNL     1      41.665  -8.782  11.266  1.00  0.00    -0.307 OA
HETATM   10  C   UNL     1      41.473  -7.641  12.001  1.00  0.00     0.150 A 
HETATM   11  C   UNL     1      42.615  -7.373  12.733  1.00  0.00     0.046 A 
HETATM   12  C   UNL     1      43.551  -8.389  12.424  1.00  0.00     0.037 A 
BRANCH  10  13
HETATM   13  C   UNL     1      40.218  -6.926  11.934  1.00  0.00     0.316 C 
HETATM   14  O   UNL     1      40.103  -5.727  11.707  1.00  0.00    -0.257 OA
BRANCH  13  15
HETATM   15  O   UNL     1      39.173  -7.774  12.158  1.00  0.00    -0.321 OA
HETATM   16  C   UNL     1      38.107  -7.194  12.909  1.00  0.00     0.213 C 
ENDBRANCH  13  15
ENDBRANCH  10  13
ENDBRANCH   7   8
ENDBRANCH   4   7
ENDBRANCH   2   3
ENDBRANCH   1   2
BRANCH   1  17
HETATM   17  C   UNL     1      42.165 -12.510   5.959  1.00  0.00     0.177 C 
BRANCH  17  18
HETATM   18  C   UNL     1      41.886 -13.884   5.347  1.00  0.00     0.231 C 
HETATM   19  N   UNL     1      43.021 -14.536   4.900  1.00  0.00    -0.327 N 
HETATM   20  H   UNL     1      43.897 -14.067   5.111  1.00  0.00     0.169 HD
HETATM   21  O   UNL     1      40.729 -14.275   5.219  1.00  0.00    -0.272 OA
BRANCH  19  22
HETATM   22  C   UNL     1      43.123 -15.803   4.293  1.00  0.00     0.035 A 
HETATM   23  C   UNL     1      43.493 -16.967   4.969  1.00  0.00     0.042 A 
HETATM   24  C   UNL     1      43.603 -18.196   4.291  1.00  0.00    -0.024 A 
HETATM   25  C   UNL     1      43.322 -18.257   2.908  1.00  0.00    -0.026 A 
HETATM   26  C   UNL     1      43.991 -19.368   4.960  1.00  0.00     0.012 A 
HETATM   27  C   UNL     1      42.940 -17.088   2.239  1.00  0.00     0.014 A 
HETATM   28  C   UNL     1      43.435 -19.484   2.233  1.00  0.00     0.012 A 
HETATM   29  C   UNL     1      42.844 -15.873   2.925  1.00  0.00     0.030 A 
HETATM   30  C   UNL     1      43.826 -20.638   2.914  1.00  0.00     0.001 A 
HETATM   31  C   UNL     1      44.103 -20.579   4.276  1.00  0.00     0.001 A 
ENDBRANCH  19  22
ENDBRANCH  17  18
ENDBRANCH   1  17
TORSDOF 9
ENDMDL
MODEL 7
REMARK VINA RESULT:      -8.1      2.555      3.998
REMARK  9 active torsions:
REMARK  status: ('A' for Active; 'I' for Inactive)
REMARK    1  A    between atoms: O_2  and  C_3 
REMARK    2  A    between atoms: C_3  and  C_4 
REMARK    3  A    between atoms: C_6  and  C_7 
REMARK    4  A    between atoms: C_7  and  N_8 
REMARK       I    between atoms: N_8  and  C_9 
REMARK    5  A    between atoms: C_9  and  C_10 
REMARK    6  A    between atoms: C_10  and  S_11 
REMARK    7  A    between atoms: S_11  and  C_12 
REMARK    8  A    between atoms: C_12  and  C_13 
REMARK       I    between atoms: C_13  and  N_14 
REMARK    9  A    between atoms: N_14  and  C_15 
ROOT
HETATM    1  S   UNL     1      40.769 -10.243   6.248  1.00  0.00    -0.150 SA
ENDROOT
BRANCH   1   2
HETATM    2  C   UNL     1      39.277  -9.442   6.922  1.00  0.00     0.177 C 
BRANCH   2   3
HETATM    3  C   UNL     1      39.351  -9.104   8.404  1.00  0.00     0.227 C 
HETATM    4  N   UNL     1      40.232  -9.836   9.156  1.00  0.00    -0.354 N 
HETATM    5  H   UNL     1      40.847 -10.497   8.691  1.00  0.00     0.162 HD
HETATM    6  O   UNL     1      38.688  -8.182   8.875  1.00  0.00    -0.273 OA
BRANCH   4   7
HETATM    7  C   UNL     1      40.518  -9.508  10.532  1.00  0.00     0.187 C 
BRANCH   7   8
HETATM    8  C   UNL     1      41.977  -9.295  10.696  1.00  0.00     0.071 A 
HETATM    9  O   UNL     1      42.744  -9.326   9.565  1.00  0.00    -0.307 OA
HETATM   10  C   UNL     1      44.043  -9.101   9.943  1.00  0.00     0.150 A 
HETATM   11  C   UNL     1      44.093  -8.917  11.313  1.00  0.00     0.046 A 
HETATM   12  C   UNL     1      42.770  -9.046  11.796  1.00  0.00     0.037 A 
BRANCH  10  13
HETATM   13  C   UNL     1      45.102  -9.078   8.958  1.00  0.00     0.316 C 
HETATM   14  O   UNL     1      45.457  -8.088   8.329  1.00  0.00    -0.257 OA
BRANCH  13  15
HETATM   15  O   UNL     1      45.656 -10.318   8.825  1.00  0.00    -0.321 OA
HETATM   16  C   UNL     1      45.546 -10.864   7.511  1.00  0.00     0.213 C 
ENDBRANCH  13  15
ENDBRANCH  10  13
ENDBRANCH   7   8
ENDBRANCH   4   7
ENDBRANCH   2   3
ENDBRANCH   1   2
BRANCH   1  17
HETATM   17  C   UNL     1      40.112 -11.938   6.028  1.00  0.00     0.177 C 
BRANCH  17  18
HETATM   18  C   UNL     1      41.102 -12.852   5.305  1.00  0.00     0.231 C 
HETATM   19  N   UNL     1      40.622 -14.129   5.080  1.00  0.00    -0.327 N 
HETATM   20  H   UNL     1      39.651 -14.274   5.341  1.00  0.00     0.169 HD
HETATM   21  O   UNL     1      42.235 -12.449   5.049  1.00  0.00    -0.272 OA
BRANCH  19  22
HETATM   22  C   UNL     1      41.265 -15.209   4.445  1.00  0.00     0.035 A 
HETATM   23  C   UNL     1      42.262 -15.985   5.041  1.00  0.00     0.042 A 
HETATM   24  C   UNL     1      42.884 -17.033   4.337  1.00  0.00    -0.024 A 
HETATM   25  C   UNL     1      42.486 -17.315   3.010  1.00  0.00    -0.026 A 
HETATM   26  C   UNL     1      43.899 -17.807   4.922  1.00  0.00     0.012 A 
HETATM   27  C   UNL     1      41.477 -16.540   2.424  1.00  0.00     0.014 A 
HETATM   28  C   UNL     1      43.110 -18.359   2.308  1.00  0.00     0.012 A 
HETATM   29  C   UNL     1      40.876 -15.497   3.134  1.00  0.00     0.030 A 
HETATM   30  C   UNL     1      44.119 -19.116   2.906  1.00  0.00     0.001 A 
HETATM   31  C   UNL     1      44.512 -18.840   4.212  1.00  0.00     0.001 A 
ENDBRANCH  19  22
ENDBRANCH  17  18
ENDBRANCH   1  17
TORSDOF 9
ENDMDL
MODEL 8
REMARK VINA RESULT:      -8.1      2.018      2.940
REMARK  9 active torsions:
REMARK  status: ('A' for Active; 'I' for Inactive)
REMARK    1  A    between atoms: O_2  and  C_3 
REMARK    2  A    between atoms: C_3  and  C_4 
REMARK    3  A    between atoms: C_6  and  C_7 
REMARK    4  A    between atoms: C_7  and  N_8 
REMARK       I    between atoms: N_8  and  C_9 
REMARK    5  A    between atoms: C_9  and  C_10 
REMARK    6  A    between atoms: C_10  and  S_11 
REMARK    7  A    between atoms: S_11  and  C_12 
REMARK    8  A    between atoms: C_12  and  C_13 
REMARK       I    between atoms: C_13  and  N_14 
REMARK    9  A    between atoms: N_14  and  C_15 
ROOT
HETATM    1  S   UNL     1      41.693 -11.653   5.129  1.00  0.00    -0.150 SA
ENDROOT
BRANCH   1   2
HETATM    2  C   UNL     1      40.002 -11.904   5.762  1.00  0.00     0.177 C 
BRANCH   2   3
HETATM    3  C   UNL     1      39.616 -10.998   6.921  1.00  0.00     0.227 C 
HETATM    4  N   UNL     1      40.621 -10.250   7.476  1.00  0.00    -0.354 N 
HETATM    5  H   UNL     1      41.542 -10.265   7.047  1.00  0.00     0.162 HD
HETATM    6  O   UNL     1      38.446 -10.910   7.290  1.00  0.00    -0.273 OA
BRANCH   4   7
HETATM    7  C   UNL     1      40.359  -9.233   8.466  1.00  0.00     0.187 C 
BRANCH   7   8
HETATM    8  C   UNL     1      41.612  -8.921   9.196  1.00  0.00     0.071 A 
HETATM    9  O   UNL     1      42.670  -9.766   9.012  1.00  0.00    -0.307 OA
HETATM   10  C   UNL     1      43.713  -9.290   9.766  1.00  0.00     0.150 A 
HETATM   11  C   UNL     1      43.314  -8.138  10.418  1.00  0.00     0.046 A 
HETATM   12  C   UNL     1      41.967  -7.904  10.057  1.00  0.00     0.037 A 
BRANCH  10  13
HETATM   13  C   UNL     1      44.983  -9.980   9.781  1.00  0.00     0.316 C 
HETATM   14  O   UNL     1      45.323 -10.811  10.616  1.00  0.00    -0.257 OA
BRANCH  13  15
HETATM   15  O   UNL     1      45.758  -9.579   8.731  1.00  0.00    -0.321 OA
HETATM   16  C   UNL     1      45.911 -10.568   7.714  1.00  0.00     0.213 C 
ENDBRANCH  13  15
ENDBRANCH  10  13
ENDBRANCH   7   8
ENDBRANCH   4   7
ENDBRANCH   2   3
ENDBRANCH   1   2
BRANCH   1  17
HETATM   17  C   UNL     1      41.535 -12.527   3.527  1.00  0.00     0.177 C 
BRANCH  17  18
HETATM   18  C   UNL     1      41.530 -14.046   3.696  1.00  0.00     0.231 C 
HETATM   19  N   UNL     1      42.793 -14.607   3.740  1.00  0.00    -0.327 N 
HETATM   20  H   UNL     1      43.559 -13.939   3.741  1.00  0.00     0.169 HD
HETATM   21  O   UNL     1      40.465 -14.660   3.703  1.00  0.00    -0.272 OA
BRANCH  19  22
HETATM   22  C   UNL     1      43.147 -15.962   3.886  1.00  0.00     0.035 A 
HETATM   23  C   UNL     1      43.026 -16.916   2.874  1.00  0.00     0.042 A 
HETATM   24  C   UNL     1      43.372 -18.262   3.100  1.00  0.00    -0.024 A 
HETATM   25  C   UNL     1      43.862 -18.653   4.366  1.00  0.00    -0.026 A 
HETATM   26  C   UNL     1      43.237 -19.231   2.092  1.00  0.00     0.012 A 
HETATM   27  C   UNL     1      43.991 -17.688   5.373  1.00  0.00     0.014 A 
HETATM   28  C   UNL     1      44.203 -19.997   4.591  1.00  0.00     0.012 A 
HETATM   29  C   UNL     1      43.635 -16.358   5.135  1.00  0.00     0.030 A 
HETATM   30  C   UNL     1      44.060 -20.947   3.577  1.00  0.00     0.001 A 
HETATM   31  C   UNL     1      43.577 -20.563   2.330  1.00  0.00     0.001 A 
ENDBRANCH  19  22
ENDBRANCH  17  18
ENDBRANCH   1  17
TORSDOF 9
ENDMDL
MODEL 9
REMARK VINA RESULT:      -7.9      3.573      7.192
REMARK  9 active torsions:
REMARK  status: ('A' for Active; 'I' for Inactive)
REMARK    1  A    between atoms: O_2  and  C_3 
REMARK    2  A    between atoms: C_3  and  C_4 
REMARK    3  A    between atoms: C_6  and  C_7 
REMARK    4  A    between atoms: C_7  and  N_8 
REMARK       I    between atoms: N_8  and  C_9 
REMARK    5  A    between atoms: C_9  and  C_10 
REMARK    6  A    between atoms: C_10  and  S_11 
REMARK    7  A    between atoms: S_11  and  C_12 
REMARK    8  A    between atoms: C_12  and  C_13 
REMARK       I    between atoms: C_13  and  N_14 
REMARK    9  A    between atoms: N_14  and  C_15 
ROOT
HETATM    1  S   UNL     1      41.485 -11.304   5.658  1.00  0.00    -0.150 SA
ENDROOT
BRANCH   1   2
HETATM    2  C   UNL     1      42.460 -10.896   4.173  1.00  0.00     0.177 C 
BRANCH   2   3
HETATM    3  C   UNL     1      41.691 -10.151   3.093  1.00  0.00     0.227 C 
HETATM    4  N   UNL     1      42.060 -10.397   1.797  1.00  0.00    -0.354 N 
HETATM    5  H   UNL     1      42.754 -11.114   1.608  1.00  0.00     0.162 HD
HETATM    6  O   UNL     1      40.752  -9.412   3.383  1.00  0.00    -0.273 OA
BRANCH   4   7
HETATM    7  C   UNL     1      41.306  -9.885   0.677  1.00  0.00     0.187 C 
BRANCH   7   8
HETATM    8  C   UNL     1      40.281 -10.879   0.276  1.00  0.00     0.071 A 
HETATM    9  O   UNL     1      40.716 -12.135  -0.038  1.00  0.00    -0.307 OA
HETATM   10  C   UNL     1      39.614 -12.883  -0.368  1.00  0.00     0.150 A 
HETATM   11  C   UNL     1      38.481 -12.098  -0.252  1.00  0.00     0.046 A 
HETATM   12  C   UNL     1      38.909 -10.813   0.156  1.00  0.00     0.037 A 
BRANCH  10  13
HETATM   13  C   UNL     1      39.755 -14.269  -0.754  1.00  0.00     0.316 C 
HETATM   14  O   UNL     1      39.237 -14.781  -1.740  1.00  0.00    -0.257 OA
BRANCH  13  15
HETATM   15  O   UNL     1      40.550 -14.934   0.134  1.00  0.00    -0.321 OA
HETATM   16  C   UNL     1      39.831 -15.573   1.189  1.00  0.00     0.213 C 
ENDBRANCH  13  15
ENDBRANCH  10  13
ENDBRANCH   7   8
ENDBRANCH   4   7
ENDBRANCH   2   3
ENDBRANCH   1   2
BRANCH   1  17
HETATM   17  C   UNL     1      42.588 -12.569   6.390  1.00  0.00     0.177 C 
BRANCH  17  18
HETATM   18  C   UNL     1      42.281 -13.974   5.871  1.00  0.00     0.231 C 
HETATM   19  N   UNL     1      43.264 -14.491   5.046  1.00  0.00    -0.327 N 
HETATM   20  H   UNL     1      44.097 -13.916   4.959  1.00  0.00     0.169 HD
HETATM   21  O   UNL     1      41.205 -14.504   6.134  1.00  0.00    -0.272 OA
BRANCH  19  22
HETATM   22  C   UNL     1      43.300 -15.744   4.404  1.00  0.00     0.035 A 
HETATM   23  C   UNL     1      43.620 -16.942   5.046  1.00  0.00     0.042 A 
HETATM   24  C   UNL     1      43.666 -18.157   4.335  1.00  0.00    -0.024 A 
HETATM   25  C   UNL     1      43.372 -18.167   2.953  1.00  0.00    -0.026 A 
HETATM   26  C   UNL     1      44.003 -19.363   4.969  1.00  0.00     0.012 A 
HETATM   27  C   UNL     1      43.041 -16.963   2.318  1.00  0.00     0.014 A 
HETATM   28  C   UNL     1      43.422 -19.379   2.244  1.00  0.00     0.012 A 
HETATM   29  C   UNL     1      43.008 -15.764   3.037  1.00  0.00     0.030 A 
HETATM   30  C   UNL     1      43.761 -20.568   2.892  1.00  0.00     0.001 A 
HETATM   31  C   UNL     1      44.051 -20.560   4.252  1.00  0.00     0.001 A 
ENDBRANCH  19  22
ENDBRANCH  17  18
ENDBRANCH   1  17
TORSDOF 9
ENDMDL
MODEL 10
REMARK VINA RESULT:      -7.8      1.951      3.386
REMARK  9 active torsions:
REMARK  status: ('A' for Active; 'I' for Inactive)
REMARK    1  A    between atoms: O_2  and  C_3 
REMARK    2  A    between atoms: C_3  and  C_4 
REMARK    3  A    between atoms: C_6  and  C_7 
REMARK    4  A    between atoms: C_7  and  N_8 
REMARK       I    between atoms: N_8  and  C_9 
REMARK    5  A    between atoms: C_9  and  C_10 
REMARK    6  A    between atoms: C_10  and  S_11 
REMARK    7  A    between atoms: S_11  and  C_12 
REMARK    8  A    between atoms: C_12  and  C_13 
REMARK       I    between atoms: C_13  and  N_14 
REMARK    9  A    between atoms: N_14  and  C_15 
ROOT
HETATM    1  S   UNL     1      40.525 -11.738   0.789  1.00  0.00    -0.150 SA
ENDROOT
BRANCH   1   2
HETATM    2  C   UNL     1      38.957 -11.929   1.698  1.00  0.00     0.177 C 
BRANCH   2   3
HETATM    3  C   UNL     1      39.011 -11.494   3.155  1.00  0.00     0.227 C 
HETATM    4  N   UNL     1      39.760 -12.270   3.999  1.00  0.00    -0.354 N 
HETATM    5  H   UNL     1      40.307 -13.035   3.613  1.00  0.00     0.162 HD
HETATM    6  O   UNL     1      38.450 -10.465   3.528  1.00  0.00    -0.273 OA
BRANCH   4   7
HETATM    7  C   UNL     1      40.028 -11.878   5.363  1.00  0.00     0.187 C 
BRANCH   7   8
HETATM    8  C   UNL     1      41.350 -12.408   5.778  1.00  0.00     0.071 A 
HETATM    9  O   UNL     1      42.197 -11.546   6.416  1.00  0.00    -0.307 OA
HETATM   10  C   UNL     1      43.343 -12.239   6.713  1.00  0.00     0.150 A 
HETATM   11  C   UNL     1      43.214 -13.543   6.269  1.00  0.00     0.046 A 
HETATM   12  C   UNL     1      41.939 -13.650   5.666  1.00  0.00     0.037 A 
BRANCH  10  13
HETATM   13  C   UNL     1      44.440 -11.588   7.393  1.00  0.00     0.316 C 
HETATM   14  O   UNL     1      45.609 -11.608   7.023  1.00  0.00    -0.257 OA
BRANCH  13  15
HETATM   15  O   UNL     1      43.994 -10.942   8.510  1.00  0.00    -0.321 OA
HETATM   16  C   UNL     1      44.358  -9.564   8.566  1.00  0.00     0.213 C 
ENDBRANCH  13  15
ENDBRANCH  10  13
ENDBRANCH   7   8
ENDBRANCH   4   7
ENDBRANCH   2   3
ENDBRANCH   1   2
BRANCH   1  17
HETATM   17  C   UNL     1      40.706 -13.450   0.164  1.00  0.00     0.177 C 
BRANCH  17  18
HETATM   18  C   UNL     1      40.956 -14.453   1.290  1.00  0.00     0.231 C 
HETATM   19  N   UNL     1      42.146 -15.147   1.166  1.00  0.00    -0.327 N 
HETATM   20  H   UNL     1      42.740 -14.847   0.399  1.00  0.00     0.169 HD
HETATM   21  O   UNL     1      40.099 -14.635   2.151  1.00  0.00    -0.272 OA
BRANCH  19  22
HETATM   22  C   UNL     1      42.680 -16.133   2.019  1.00  0.00     0.035 A 
HETATM   23  C   UNL     1      42.710 -17.496   1.717  1.00  0.00     0.042 A 
HETATM   24  C   UNL     1      43.234 -18.430   2.631  1.00  0.00    -0.024 A 
HETATM   25  C   UNL     1      43.748 -17.982   3.868  1.00  0.00    -0.026 A 
HETATM   26  C   UNL     1      43.253 -19.804   2.342  1.00  0.00     0.012 A 
HETATM   27  C   UNL     1      43.725 -16.612   4.159  1.00  0.00     0.014 A 
HETATM   28  C   UNL     1      44.267 -18.916   4.780  1.00  0.00     0.012 A 
HETATM   29  C   UNL     1      43.194 -15.698   3.245  1.00  0.00     0.030 A 
HETATM   30  C   UNL     1      44.275 -20.279   4.476  1.00  0.00     0.001 A 
HETATM   31  C   UNL     1      43.768 -20.721   3.258  1.00  0.00     0.001 A 
ENDBRANCH  19  22
ENDBRANCH  17  18
ENDBRANCH   1  17
TORSDOF 9
ENDMDL
