MODEL 1
REMARK VINA RESULT:     -10.4      0.000      0.000
REMARK  5 active torsions:
REMARK  status: ('A' for Active; 'I' for Inactive)
REMARK    1  A    between atoms: C_4  and  C_5 
REMARK    2  A    between atoms: C_5  and  N_6 
REMARK    3  A    between atoms: C_7  and  N_8 
REMARK    4  A    between atoms: N_8  and  N_9 
REMARK       I    between atoms: N_9  and  C_10 
REMARK    5  A    between atoms: C_10  and  C_11 
ROOT
HETATM    1  N   UNL     1      42.979 -13.963   5.446  1.00  0.00    -0.282 N 
HETATM    2  C   UNL     1      43.045 -14.168   4.052  1.00  0.00     0.204 A 
HETATM    3  N   UNL     1      43.229 -15.342   3.493  1.00  0.00    -0.217 NA
HETATM    4  C   UNL     1      43.408 -16.408   4.369  1.00  0.00     0.090 A 
HETATM    5  C   UNL     1      43.381 -16.268   5.730  1.00  0.00     0.103 A 
HETATM    6  S   UNL     1      43.648 -17.744   6.556  1.00  0.00    -0.086 SA
HETATM    7  C   UNL     1      43.806 -18.538   5.087  1.00  0.00    -0.008 A 
HETATM    8  C   UNL     1      43.662 -17.730   3.989  1.00  0.00    -0.015 A 
HETATM    9  C   UNL     1      43.831 -18.492   2.733  1.00  0.00     0.042 C 
HETATM   10  C   UNL     1      43.763 -19.972   3.232  1.00  0.00     0.010 C 
HETATM   11  C   UNL     1      44.087 -19.954   4.759  1.00  0.00     0.047 C 
HETATM   12  C   UNL     1      43.152 -15.009   6.365  1.00  0.00     0.269 A 
HETATM   13  O   UNL     1      43.114 -14.851   7.585  1.00  0.00    -0.266 OA
ENDROOT
BRANCH   2  14
HETATM   14  N   UNL     1      42.898 -13.061   3.231  1.00  0.00    -0.170 NA
HETATM   15  H   UNL     1      43.733 -12.492   3.083  1.00  0.00     0.156 HD
BRANCH  14  16
HETATM   16  N   UNL     1      42.200 -13.253   2.029  1.00  0.00    -0.279 N 
HETATM   17  C   UNL     1      40.849 -12.971   2.010  1.00  0.00     0.289 C 
HETATM   18  O   UNL     1      40.298 -12.433   2.974  1.00  0.00    -0.264 OA
HETATM   19  H   UNL     1      42.710 -13.652   1.244  1.00  0.00     0.184 HD
BRANCH  17  20
HETATM   20  C   UNL     1      40.161 -13.381   0.810  1.00  0.00     0.145 A 
HETATM   21  O   UNL     1      39.205 -12.563   0.266  1.00  0.00    -0.304 OA
HETATM   22  C   UNL     1      38.789 -13.145  -0.892  1.00  0.00     0.086 A 
HETATM   23  C   UNL     1      39.447 -14.353  -1.092  1.00  0.00     0.001 A 
HETATM   24  C   UNL     1      37.846 -12.615  -1.771  1.00  0.00     0.038 A 
HETATM   25  C   UNL     1      40.323 -14.500   0.013  1.00  0.00     0.057 A 
HETATM   26  C   UNL     1      39.149 -15.099  -2.245  1.00  0.00     0.014 A 
HETATM   27  C   UNL     1      38.207 -14.590  -3.151  1.00  0.00     0.001 A 
HETATM   28  C   UNL     1      37.569 -13.368  -2.917  1.00  0.00     0.003 A 
ENDBRANCH  17  20
ENDBRANCH  14  16
ENDBRANCH   2  14
BRANCH   1  29
HETATM   29  C   UNL     1      42.611 -12.668   6.021  1.00  0.00     0.173 C 
BRANCH  29  30
HETATM   30  C   UNL     1      43.798 -11.950   6.631  1.00  0.00    -0.040 A 
HETATM   31  C   UNL     1      43.702 -11.387   7.913  1.00  0.00     0.009 A 
HETATM   32  C   UNL     1      44.783 -10.704   8.473  1.00  0.00     0.001 A 
HETATM   33  C   UNL     1      45.972 -10.573   7.760  1.00  0.00     0.000 A 
HETATM   34  C   UNL     1      46.082 -11.127   6.487  1.00  0.00     0.001 A 
HETATM   35  C   UNL     1      45.002 -11.813   5.925  1.00  0.00     0.009 A 
ENDBRANCH  29  30
ENDBRANCH   1  29
TORSDOF 5
ENDMDL
MODEL 2
REMARK VINA RESULT:      -9.8      3.438      7.578
REMARK  5 active torsions:
REMARK  status: ('A' for Active; 'I' for Inactive)
REMARK    1  A    between atoms: C_4  and  C_5 
REMARK    2  A    between atoms: C_5  and  N_6 
REMARK    3  A    between atoms: C_7  and  N_8 
REMARK    4  A    between atoms: N_8  and  N_9 
REMARK       I    between atoms: N_9  and  C_10 
REMARK    5  A    between atoms: C_10  and  C_11 
ROOT
HETATM    1  N   UNL     1      40.626 -11.550   1.737  1.00  0.00    -0.282 N 
HETATM    2  C   UNL     1      41.234 -12.731   1.261  1.00  0.00     0.204 A 
HETATM    3  N   UNL     1      40.796 -13.415   0.227  1.00  0.00    -0.217 NA
HETATM    4  C   UNL     1      39.637 -12.930  -0.371  1.00  0.00     0.090 A 
HETATM    5  C   UNL     1      38.988 -11.805   0.061  1.00  0.00     0.103 A 
HETATM    6  S   UNL     1      37.582 -11.456  -0.851  1.00  0.00    -0.086 SA
HETATM    7  C   UNL     1      37.857 -12.815  -1.797  1.00  0.00    -0.008 A 
HETATM    8  C   UNL     1      38.977 -13.525  -1.450  1.00  0.00    -0.015 A 
HETATM    9  C   UNL     1      39.148 -14.716  -2.312  1.00  0.00     0.042 C 
HETATM   10  C   UNL     1      38.135 -14.433  -3.470  1.00  0.00     0.010 C 
HETATM   11  C   UNL     1      37.102 -13.395  -2.930  1.00  0.00     0.047 C 
HETATM   12  C   UNL     1      39.458 -11.025   1.162  1.00  0.00     0.269 A 
HETATM   13  O   UNL     1      38.903 -10.006   1.571  1.00  0.00    -0.266 OA
ENDROOT
BRANCH   2  14
HETATM   14  N   UNL     1      42.363 -13.186   1.923  1.00  0.00    -0.170 NA
HETATM   15  H   UNL     1      42.601 -12.709   2.793  1.00  0.00     0.156 HD
BRANCH  14  16
HETATM   16  N   UNL     1      42.500 -14.576   2.057  1.00  0.00    -0.279 N 
HETATM   17  C   UNL     1      42.885 -15.076   3.285  1.00  0.00     0.289 C 
HETATM   18  O   UNL     1      42.968 -14.342   4.272  1.00  0.00    -0.264 OA
HETATM   19  H   UNL     1      42.372 -15.147   1.224  1.00  0.00     0.184 HD
BRANCH  17  20
HETATM   20  C   UNL     1      43.201 -16.484   3.294  1.00  0.00     0.145 A 
HETATM   21  O   UNL     1      43.590 -17.081   4.465  1.00  0.00    -0.304 OA
HETATM   22  C   UNL     1      43.738 -18.410   4.209  1.00  0.00     0.086 A 
HETATM   23  C   UNL     1      43.474 -18.679   2.871  1.00  0.00     0.001 A 
HETATM   24  C   UNL     1      44.090 -19.380   5.145  1.00  0.00     0.038 A 
HETATM   25  C   UNL     1      43.137 -17.431   2.289  1.00  0.00     0.057 A 
HETATM   26  C   UNL     1      43.570 -20.006   2.420  1.00  0.00     0.014 A 
HETATM   27  C   UNL     1      43.920 -21.005   3.339  1.00  0.00     0.001 A 
HETATM   28  C   UNL     1      44.173 -20.696   4.679  1.00  0.00     0.003 A 
ENDBRANCH  17  20
ENDBRANCH  14  16
ENDBRANCH   2  14
BRANCH   1  29
HETATM   29  C   UNL     1      41.239 -10.734   2.786  1.00  0.00     0.173 C 
BRANCH  29  30
HETATM   30  C   UNL     1      40.521 -10.867   4.114  1.00  0.00    -0.040 A 
HETATM   31  C   UNL     1      40.217 -12.136   4.630  1.00  0.00     0.009 A 
HETATM   32  C   UNL     1      39.535 -12.267   5.841  1.00  0.00     0.001 A 
HETATM   33  C   UNL     1      39.147 -11.133   6.550  1.00  0.00     0.000 A 
HETATM   34  C   UNL     1      39.443  -9.867   6.050  1.00  0.00     0.001 A 
HETATM   35  C   UNL     1      40.127  -9.734   4.840  1.00  0.00     0.009 A 
ENDBRANCH  29  30
ENDBRANCH   1  29
TORSDOF 5
ENDMDL
MODEL 3
REMARK VINA RESULT:      -9.3      2.811      8.869
REMARK  5 active torsions:
REMARK  status: ('A' for Active; 'I' for Inactive)
REMARK    1  A    between atoms: C_4  and  C_5 
REMARK    2  A    between atoms: C_5  and  N_6 
REMARK    3  A    between atoms: C_7  and  N_8 
REMARK    4  A    between atoms: N_8  and  N_9 
REMARK       I    between atoms: N_9  and  C_10 
REMARK    5  A    between atoms: C_10  and  C_11 
ROOT
HETATM    1  N   UNL     1      41.388 -14.120   3.209  1.00  0.00    -0.282 N 
HETATM    2  C   UNL     1      42.378 -13.116   3.231  1.00  0.00     0.204 A 
HETATM    3  N   UNL     1      42.360 -12.053   2.458  1.00  0.00    -0.217 NA
HETATM    4  C   UNL     1      41.307 -11.983   1.552  1.00  0.00     0.090 A 
HETATM    5  C   UNL     1      40.331 -12.938   1.465  1.00  0.00     0.103 A 
HETATM    6  S   UNL     1      39.174 -12.599   0.250  1.00  0.00    -0.086 SA
HETATM    7  C   UNL     1      39.999 -11.193  -0.146  1.00  0.00    -0.008 A 
HETATM    8  C   UNL     1      41.121 -10.966   0.610  1.00  0.00    -0.015 A 
HETATM    9  C   UNL     1      41.805  -9.722   0.196  1.00  0.00     0.042 C 
HETATM   10  C   UNL     1      40.731  -9.040  -0.712  1.00  0.00     0.010 C 
HETATM   11  C   UNL     1      39.745 -10.159  -1.172  1.00  0.00     0.047 C 
HETATM   12  C   UNL     1      40.308 -14.088   2.313  1.00  0.00     0.269 A 
HETATM   13  O   UNL     1      39.443 -14.961   2.266  1.00  0.00    -0.266 OA
ENDROOT
BRANCH   2  14
HETATM   14  N   UNL     1      43.424 -13.262   4.129  1.00  0.00    -0.170 NA
HETATM   15  H   UNL     1      44.365 -13.254   3.734  1.00  0.00     0.156 HD
BRANCH  14  16
HETATM   16  N   UNL     1      43.364 -12.492   5.300  1.00  0.00    -0.279 N 
HETATM   17  C   UNL     1      44.337 -11.533   5.498  1.00  0.00     0.289 C 
HETATM   18  O   UNL     1      45.150 -11.260   4.613  1.00  0.00    -0.264 OA
HETATM   19  H   UNL     1      42.642 -12.720   5.980  1.00  0.00     0.184 HD
BRANCH  17  20
HETATM   20  C   UNL     1      44.331 -10.924   6.807  1.00  0.00     0.145 A 
HETATM   21  O   UNL     1      43.184 -10.337   7.274  1.00  0.00    -0.304 OA
HETATM   22  C   UNL     1      43.431  -9.928   8.548  1.00  0.00     0.086 A 
HETATM   23  C   UNL     1      44.742 -10.221   8.906  1.00  0.00     0.001 A 
HETATM   24  C   UNL     1      42.510  -9.313   9.394  1.00  0.00     0.038 A 
HETATM   25  C   UNL     1      45.316 -10.855   7.775  1.00  0.00     0.057 A 
HETATM   26  C   UNL     1      45.181  -9.875  10.196  1.00  0.00     0.014 A 
HETATM   27  C   UNL     1      44.276  -9.258  11.071  1.00  0.00     0.001 A 
HETATM   28  C   UNL     1      42.963  -8.985  10.676  1.00  0.00     0.003 A 
ENDBRANCH  17  20
ENDBRANCH  14  16
ENDBRANCH   2  14
BRANCH   1  29
HETATM   29  C   UNL     1      41.361 -15.200   4.197  1.00  0.00     0.173 C 
BRANCH  29  30
HETATM   30  C   UNL     1      42.286 -16.343   3.828  1.00  0.00    -0.040 A 
HETATM   31  C   UNL     1      42.188 -16.955   2.569  1.00  0.00     0.009 A 
HETATM   32  C   UNL     1      43.021 -18.023   2.230  1.00  0.00     0.001 A 
HETATM   33  C   UNL     1      43.960 -18.493   3.144  1.00  0.00     0.000 A 
HETATM   34  C   UNL     1      44.069 -17.895   4.397  1.00  0.00     0.001 A 
HETATM   35  C   UNL     1      43.239 -16.825   4.737  1.00  0.00     0.009 A 
ENDBRANCH  29  30
ENDBRANCH   1  29
TORSDOF 5
ENDMDL
MODEL 4
REMARK VINA RESULT:      -9.2      2.797      8.863
REMARK  5 active torsions:
REMARK  status: ('A' for Active; 'I' for Inactive)
REMARK    1  A    between atoms: C_4  and  C_5 
REMARK    2  A    between atoms: C_5  and  N_6 
REMARK    3  A    between atoms: C_7  and  N_8 
REMARK    4  A    between atoms: N_8  and  N_9 
REMARK       I    between atoms: N_9  and  C_10 
REMARK    5  A    between atoms: C_10  and  C_11 
ROOT
HETATM    1  N   UNL     1      41.276 -14.342   3.034  1.00  0.00    -0.282 N 
HETATM    2  C   UNL     1      42.187 -13.272   3.150  1.00  0.00     0.204 A 
HETATM    3  N   UNL     1      42.187 -12.221   2.360  1.00  0.00    -0.217 NA
HETATM    4  C   UNL     1      41.242 -12.233   1.340  1.00  0.00     0.090 A 
HETATM    5  C   UNL     1      40.348 -13.254   1.160  1.00  0.00     0.103 A 
HETATM    6  S   UNL     1      39.317 -13.008  -0.183  1.00  0.00    -0.086 SA
HETATM    7  C   UNL     1      40.086 -11.553  -0.509  1.00  0.00    -0.008 A 
HETATM    8  C   UNL     1      41.096 -11.241   0.364  1.00  0.00    -0.015 A 
HETATM    9  C   UNL     1      41.739  -9.957   0.008  1.00  0.00     0.042 C 
HETATM   10  C   UNL     1      40.732  -9.360  -1.028  1.00  0.00     0.010 C 
HETATM   11  C   UNL     1      39.881 -10.549  -1.576  1.00  0.00     0.047 C 
HETATM   12  C   UNL     1      40.306 -14.393   2.021  1.00  0.00     0.269 A 
HETATM   13  O   UNL     1      39.512 -15.324   1.892  1.00  0.00    -0.266 OA
ENDROOT
BRANCH   2  14
HETATM   14  N   UNL     1      43.131 -13.336   4.162  1.00  0.00    -0.170 NA
HETATM   15  H   UNL     1      44.110 -13.310   3.872  1.00  0.00     0.156 HD
BRANCH  14  16
HETATM   16  N   UNL     1      42.916 -12.517   5.281  1.00  0.00    -0.279 N 
HETATM   17  C   UNL     1      43.859 -11.551   5.570  1.00  0.00     0.289 C 
HETATM   18  O   UNL     1      44.788 -11.317   4.794  1.00  0.00    -0.264 OA
HETATM   19  H   UNL     1      42.106 -12.716   5.864  1.00  0.00     0.184 HD
BRANCH  17  20
HETATM   20  C   UNL     1      43.677 -10.887   6.838  1.00  0.00     0.145 A 
HETATM   21  O   UNL     1      44.621 -11.038   7.821  1.00  0.00    -0.304 OA
HETATM   22  C   UNL     1      44.247 -10.244   8.862  1.00  0.00     0.086 A 
HETATM   23  C   UNL     1      43.051  -9.597   8.574  1.00  0.00     0.001 A 
HETATM   24  C   UNL     1      44.957 -10.080  10.050  1.00  0.00     0.038 A 
HETATM   25  C   UNL     1      42.688 -10.024   7.273  1.00  0.00     0.057 A 
HETATM   26  C   UNL     1      42.510  -8.725   9.535  1.00  0.00     0.014 A 
HETATM   27  C   UNL     1      43.203  -8.537  10.739  1.00  0.00     0.001 A 
HETATM   28  C   UNL     1      44.407  -9.202  10.990  1.00  0.00     0.003 A 
ENDBRANCH  17  20
ENDBRANCH  14  16
ENDBRANCH   2  14
BRANCH   1  29
HETATM   29  C   UNL     1      41.209 -15.411   4.032  1.00  0.00     0.173 C 
BRANCH  29  30
HETATM   30  C   UNL     1      42.198 -16.526   3.751  1.00  0.00    -0.040 A 
HETATM   31  C   UNL     1      43.148 -16.890   4.717  1.00  0.00     0.009 A 
HETATM   32  C   UNL     1      44.076 -17.899   4.457  1.00  0.00     0.001 A 
HETATM   33  C   UNL     1      44.069 -18.555   3.229  1.00  0.00     0.000 A 
HETATM   34  C   UNL     1      43.131 -18.205   2.261  1.00  0.00     0.001 A 
HETATM   35  C   UNL     1      42.199 -17.198   2.519  1.00  0.00     0.009 A 
ENDBRANCH  29  30
ENDBRANCH   1  29
TORSDOF 5
ENDMDL
MODEL 5
REMARK VINA RESULT:      -9.2     15.355     17.567
REMARK  5 active torsions:
REMARK  status: ('A' for Active; 'I' for Inactive)
REMARK    1  A    between atoms: C_4  and  C_5 
REMARK    2  A    between atoms: C_5  and  N_6 
REMARK    3  A    between atoms: C_7  and  N_8 
REMARK    4  A    between atoms: N_8  and  N_9 
REMARK       I    between atoms: N_9  and  C_10 
REMARK    5  A    between atoms: C_10  and  C_11 
ROOT
HETATM    1  N   UNL     1      46.428 -28.741   0.500  1.00  0.00    -0.282 N 
HETATM    2  C   UNL     1      45.838 -29.095   1.730  1.00  0.00     0.204 A 
HETATM    3  N   UNL     1      46.470 -29.732   2.690  1.00  0.00    -0.217 NA
HETATM    4  C   UNL     1      47.783 -30.097   2.410  1.00  0.00     0.090 A 
HETATM    5  C   UNL     1      48.403 -29.805   1.225  1.00  0.00     0.103 A 
HETATM    6  S   UNL     1      50.010 -30.391   1.153  1.00  0.00    -0.086 SA
HETATM    7  C   UNL     1      49.847 -31.031   2.695  1.00  0.00    -0.008 A 
HETATM    8  C   UNL     1      48.620 -30.817   3.267  1.00  0.00    -0.015 A 
HETATM    9  C   UNL     1      48.542 -31.423   4.615  1.00  0.00     0.042 C 
HETATM   10  C   UNL     1      50.041 -31.750   4.918  1.00  0.00     0.010 C 
HETATM   11  C   UNL     1      50.783 -31.798   3.545  1.00  0.00     0.047 C 
HETATM   12  C   UNL     1      47.750 -29.086   0.177  1.00  0.00     0.269 A 
HETATM   13  O   UNL     1      48.280 -28.802  -0.897  1.00  0.00    -0.266 OA
ENDROOT
BRANCH   2  14
HETATM   14  N   UNL     1      44.514 -28.738   1.935  1.00  0.00    -0.170 NA
HETATM   15  H   UNL     1      44.069 -28.201   1.191  1.00  0.00     0.156 HD
BRANCH  14  16
HETATM   16  N   UNL     1      43.656 -29.740   2.415  1.00  0.00    -0.279 N 
HETATM   17  C   UNL     1      42.357 -29.761   1.949  1.00  0.00     0.289 C 
HETATM   18  O   UNL     1      41.997 -29.014   1.036  1.00  0.00    -0.264 OA
HETATM   19  H   UNL     1      44.015 -30.367   3.132  1.00  0.00     0.184 HD
BRANCH  17  20
HETATM   20  C   UNL     1      41.483 -30.684   2.632  1.00  0.00     0.145 A 
HETATM   21  O   UNL     1      41.427 -30.675   4.002  1.00  0.00    -0.304 OA
HETATM   22  C   UNL     1      40.472 -31.571   4.371  1.00  0.00     0.086 A 
HETATM   23  C   UNL     1      39.923 -32.186   3.251  1.00  0.00     0.001 A 
HETATM   24  C   UNL     1      40.077 -31.840   5.680  1.00  0.00     0.038 A 
HETATM   25  C   UNL     1      40.587 -31.614   2.137  1.00  0.00     0.057 A 
HETATM   26  C   UNL     1      38.912 -33.143   3.437  1.00  0.00     0.014 A 
HETATM   27  C   UNL     1      38.490 -33.432   4.743  1.00  0.00     0.001 A 
HETATM   28  C   UNL     1      39.063 -32.789   5.844  1.00  0.00     0.003 A 
ENDBRANCH  17  20
ENDBRANCH  14  16
ENDBRANCH   2  14
BRANCH   1  29
HETATM   29  C   UNL     1      45.739 -27.891  -0.473  1.00  0.00     0.173 C 
BRANCH  29  30
HETATM   30  C   UNL     1      45.231 -28.675  -1.667  1.00  0.00    -0.040 A 
HETATM   31  C   UNL     1      45.440 -28.196  -2.969  1.00  0.00     0.009 A 
HETATM   32  C   UNL     1      44.956 -28.900  -4.072  1.00  0.00     0.001 A 
HETATM   33  C   UNL     1      44.255 -30.089  -3.889  1.00  0.00     0.000 A 
HETATM   34  C   UNL     1      44.041 -30.577  -2.602  1.00  0.00     0.001 A 
HETATM   35  C   UNL     1      44.527 -29.876  -1.497  1.00  0.00     0.009 A 
ENDBRANCH  29  30
ENDBRANCH   1  29
TORSDOF 5
ENDMDL
MODEL 6
REMARK VINA RESULT:      -9.1      3.053      8.715
REMARK  5 active torsions:
REMARK  status: ('A' for Active; 'I' for Inactive)
REMARK    1  A    between atoms: C_4  and  C_5 
REMARK    2  A    between atoms: C_5  and  N_6 
REMARK    3  A    between atoms: C_7  and  N_8 
REMARK    4  A    between atoms: N_8  and  N_9 
REMARK       I    between atoms: N_9  and  C_10 
REMARK    5  A    between atoms: C_10  and  C_11 
ROOT
HETATM    1  N   UNL     1      40.288 -14.008   1.790  1.00  0.00    -0.282 N 
HETATM    2  C   UNL     1      40.593 -12.854   2.541  1.00  0.00     0.204 A 
HETATM    3  N   UNL     1      40.825 -11.675   2.010  1.00  0.00    -0.217 NA
HETATM    4  C   UNL     1      40.801 -11.623   0.620  1.00  0.00     0.090 A 
HETATM    5  C   UNL     1      40.537 -12.713  -0.164  1.00  0.00     0.103 A 
HETATM    6  S   UNL     1      40.591 -12.359  -1.838  1.00  0.00    -0.086 SA
HETATM    7  C   UNL     1      40.976 -10.764  -1.488  1.00  0.00    -0.008 A 
HETATM    8  C   UNL     1      41.063 -10.485  -0.149  1.00  0.00    -0.015 A 
HETATM    9  C   UNL     1      41.421  -9.069   0.084  1.00  0.00     0.042 C 
HETATM   10  C   UNL     1      41.204  -8.436  -1.329  1.00  0.00     0.010 C 
HETATM   11  C   UNL     1      41.251  -9.603  -2.364  1.00  0.00     0.047 C 
HETATM   12  C   UNL     1      40.251 -14.000   0.387  1.00  0.00     0.269 A 
HETATM   13  O   UNL     1      40.003 -14.999  -0.288  1.00  0.00    -0.266 OA
ENDROOT
BRANCH   2  14
HETATM   14  N   UNL     1      40.641 -12.978   3.921  1.00  0.00    -0.170 NA
HETATM   15  H   UNL     1      40.712 -13.927   4.289  1.00  0.00     0.156 HD
BRANCH  14  16
HETATM   16  N   UNL     1      41.505 -12.108   4.604  1.00  0.00    -0.279 N 
HETATM   17  C   UNL     1      42.756 -12.576   4.953  1.00  0.00     0.289 C 
HETATM   18  O   UNL     1      43.159 -13.671   4.555  1.00  0.00    -0.264 OA
HETATM   19  H   UNL     1      41.144 -11.193   4.867  1.00  0.00     0.184 HD
BRANCH  17  20
HETATM   20  C   UNL     1      43.508 -11.704   5.824  1.00  0.00     0.145 A 
HETATM   21  O   UNL     1      42.873 -10.662   6.448  1.00  0.00    -0.304 OA
HETATM   22  C   UNL     1      43.785 -10.068   7.266  1.00  0.00     0.086 A 
HETATM   23  C   UNL     1      45.019 -10.700   7.156  1.00  0.00     0.001 A 
HETATM   24  C   UNL     1      43.534  -8.987   8.108  1.00  0.00     0.038 A 
HETATM   25  C   UNL     1      44.832 -11.747   6.220  1.00  0.00     0.057 A 
HETATM   26  C   UNL     1      46.089 -10.225   7.935  1.00  0.00     0.014 A 
HETATM   27  C   UNL     1      45.866  -9.141   8.795  1.00  0.00     0.001 A 
HETATM   28  C   UNL     1      44.608  -8.535   8.880  1.00  0.00     0.003 A 
ENDBRANCH  17  20
ENDBRANCH  14  16
ENDBRANCH   2  14
BRANCH   1  29
HETATM   29  C   UNL     1      39.878 -15.260   2.429  1.00  0.00     0.173 C 
BRANCH  29  30
HETATM   30  C   UNL     1      41.055 -16.034   2.990  1.00  0.00    -0.040 A 
HETATM   31  C   UNL     1      41.126 -16.316   4.363  1.00  0.00     0.009 A 
HETATM   32  C   UNL     1      42.217 -17.008   4.891  1.00  0.00     0.001 A 
HETATM   33  C   UNL     1      43.251 -17.424   4.056  1.00  0.00     0.000 A 
HETATM   34  C   UNL     1      43.194 -17.151   2.692  1.00  0.00     0.001 A 
HETATM   35  C   UNL     1      42.102 -16.462   2.160  1.00  0.00     0.009 A 
ENDBRANCH  29  30
ENDBRANCH   1  29
TORSDOF 5
ENDMDL
MODEL 7
REMARK VINA RESULT:      -9.0      2.843      3.642
REMARK  5 active torsions:
REMARK  status: ('A' for Active; 'I' for Inactive)
REMARK    1  A    between atoms: C_4  and  C_5 
REMARK    2  A    between atoms: C_5  and  N_6 
REMARK    3  A    between atoms: C_7  and  N_8 
REMARK    4  A    between atoms: N_8  and  N_9 
REMARK       I    between atoms: N_9  and  C_10 
REMARK    5  A    between atoms: C_10  and  C_11 
ROOT
HETATM    1  N   UNL     1      40.514 -14.181   4.388  1.00  0.00    -0.282 N 
HETATM    2  C   UNL     1      40.228 -14.839   3.174  1.00  0.00     0.204 A 
HETATM    3  N   UNL     1      40.870 -15.905   2.750  1.00  0.00    -0.217 NA
HETATM    4  C   UNL     1      41.912 -16.345   3.559  1.00  0.00     0.090 A 
HETATM    5  C   UNL     1      42.254 -15.734   4.735  1.00  0.00     0.103 A 
HETATM    6  S   UNL     1      43.585 -16.480   5.511  1.00  0.00    -0.086 SA
HETATM    7  C   UNL     1      43.689 -17.596   4.262  1.00  0.00    -0.008 A 
HETATM    8  C   UNL     1      42.750 -17.428   3.277  1.00  0.00    -0.015 A 
HETATM    9  C   UNL     1      42.912 -18.433   2.204  1.00  0.00     0.042 C 
HETATM   10  C   UNL     1      43.890 -19.462   2.858  1.00  0.00     0.010 C 
HETATM   11  C   UNL     1      44.618 -18.722   4.023  1.00  0.00     0.047 C 
HETATM   12  C   UNL     1      41.555 -14.593   5.236  1.00  0.00     0.269 A 
HETATM   13  O   UNL     1      41.832 -14.024   6.291  1.00  0.00    -0.266 OA
ENDROOT
BRANCH   2  14
HETATM   14  N   UNL     1      39.204 -14.330   2.391  1.00  0.00    -0.170 NA
HETATM   15  H   UNL     1      38.302 -14.203   2.852  1.00  0.00     0.156 HD
BRANCH  14  16
HETATM   16  N   UNL     1      39.516 -13.228   1.581  1.00  0.00    -0.279 N 
HETATM   17  C   UNL     1      39.881 -13.467   0.271  1.00  0.00     0.289 C 
HETATM   18  O   UNL     1      39.800 -14.598  -0.215  1.00  0.00    -0.264 OA
HETATM   19  H   UNL     1      39.520 -12.307   2.014  1.00  0.00     0.184 HD
BRANCH  17  20
HETATM   20  C   UNL     1      40.381 -12.314  -0.439  1.00  0.00     0.145 A 
HETATM   21  O   UNL     1      40.032 -12.127  -1.752  1.00  0.00    -0.304 OA
HETATM   22  C   UNL     1      40.561 -10.935  -2.142  1.00  0.00     0.086 A 
HETATM   23  C   UNL     1      41.276 -10.357  -1.099  1.00  0.00     0.001 A 
HETATM   24  C   UNL     1      40.408 -10.354  -3.399  1.00  0.00     0.038 A 
HETATM   25  C   UNL     1      41.161 -11.257  -0.010  1.00  0.00     0.057 A 
HETATM   26  C   UNL     1      41.893  -9.112  -1.315  1.00  0.00     0.014 A 
HETATM   27  C   UNL     1      41.754  -8.501  -2.569  1.00  0.00     0.001 A 
HETATM   28  C   UNL     1      41.022  -9.112  -3.592  1.00  0.00     0.003 A 
ENDBRANCH  17  20
ENDBRANCH  14  16
ENDBRANCH   2  14
BRANCH   1  29
HETATM   29  C   UNL     1      39.671 -13.099   4.898  1.00  0.00     0.173 C 
BRANCH  29  30
HETATM   30  C   UNL     1      40.367 -11.753   4.851  1.00  0.00    -0.040 A 
HETATM   31  C   UNL     1      41.138 -11.394   3.734  1.00  0.00     0.009 A 
HETATM   32  C   UNL     1      41.801 -10.167   3.692  1.00  0.00     0.001 A 
HETATM   33  C   UNL     1      41.705  -9.285   4.766  1.00  0.00     0.000 A 
HETATM   34  C   UNL     1      40.944  -9.627   5.880  1.00  0.00     0.001 A 
HETATM   35  C   UNL     1      40.277 -10.854   5.923  1.00  0.00     0.009 A 
ENDBRANCH  29  30
ENDBRANCH   1  29
TORSDOF 5
ENDMDL
MODEL 8
REMARK VINA RESULT:      -8.7     15.836     17.912
REMARK  5 active torsions:
REMARK  status: ('A' for Active; 'I' for Inactive)
REMARK    1  A    between atoms: C_4  and  C_5 
REMARK    2  A    between atoms: C_5  and  N_6 
REMARK    3  A    between atoms: C_7  and  N_8 
REMARK    4  A    between atoms: N_8  and  N_9 
REMARK       I    between atoms: N_9  and  C_10 
REMARK    5  A    between atoms: C_10  and  C_11 
ROOT
HETATM    1  N   UNL     1      45.160 -30.459   0.461  1.00  0.00    -0.282 N 
HETATM    2  C   UNL     1      45.083 -29.832   1.722  1.00  0.00     0.204 A 
HETATM    3  N   UNL     1      46.099 -29.717   2.547  1.00  0.00    -0.217 NA
HETATM    4  C   UNL     1      47.288 -30.302   2.126  1.00  0.00     0.090 A 
HETATM    5  C   UNL     1      47.420 -30.947   0.926  1.00  0.00     0.103 A 
HETATM    6  S   UNL     1      48.989 -31.585   0.681  1.00  0.00    -0.086 SA
HETATM    7  C   UNL     1      49.462 -31.001   2.181  1.00  0.00    -0.008 A 
HETATM    8  C   UNL     1      48.476 -30.337   2.864  1.00  0.00    -0.015 A 
HETATM    9  C   UNL     1      48.957 -29.866   4.181  1.00  0.00     0.042 C 
HETATM   10  C   UNL     1      50.504 -30.051   4.054  1.00  0.00     0.010 C 
HETATM   11  C   UNL     1      50.747 -31.083   2.909  1.00  0.00     0.047 C 
HETATM   12  C   UNL     1      46.340 -31.061  -0.004  1.00  0.00     0.269 A 
HETATM   13  O   UNL     1      46.427 -31.627  -1.093  1.00  0.00    -0.266 OA
ENDROOT
BRANCH   2  14
HETATM   14  N   UNL     1      43.860 -29.302   2.103  1.00  0.00    -0.170 NA
HETATM   15  H   UNL     1      43.258 -28.964   1.351  1.00  0.00     0.156 HD
BRANCH  14  16
HETATM   16  N   UNL     1      43.122 -30.029   3.049  1.00  0.00    -0.279 N 
HETATM   17  C   UNL     1      41.848 -30.436   2.707  1.00  0.00     0.289 C 
HETATM   18  O   UNL     1      41.421 -30.292   1.559  1.00  0.00    -0.264 OA
HETATM   19  H   UNL     1      43.538 -30.168   3.968  1.00  0.00     0.184 HD
BRANCH  17  20
HETATM   20  C   UNL     1      41.079 -30.997   3.792  1.00  0.00     0.145 A 
HETATM   21  O   UNL     1      39.995 -31.789   3.513  1.00  0.00    -0.304 OA
HETATM   22  C   UNL     1      39.516 -32.248   4.701  1.00  0.00     0.086 A 
HETATM   23  C   UNL     1      40.266 -31.739   5.756  1.00  0.00     0.001 A 
HETATM   24  C   UNL     1      38.438 -33.116   4.858  1.00  0.00     0.038 A 
HETATM   25  C   UNL     1      41.264 -30.928   5.161  1.00  0.00     0.057 A 
HETATM   26  C   UNL     1      39.920 -32.110   7.067  1.00  0.00     0.014 A 
HETATM   27  C   UNL     1      38.842 -32.986   7.256  1.00  0.00     0.001 A 
HETATM   28  C   UNL     1      38.115 -33.481   6.169  1.00  0.00     0.003 A 
ENDBRANCH  17  20
ENDBRANCH  14  16
ENDBRANCH   2  14
BRANCH   1  29
HETATM   29  C   UNL     1      44.049 -30.422  -0.491  1.00  0.00     0.173 C 
BRANCH  29  30
HETATM   30  C   UNL     1      44.380 -29.618  -1.732  1.00  0.00    -0.040 A 
HETATM   31  C   UNL     1      44.063 -30.117  -3.004  1.00  0.00     0.009 A 
HETATM   32  C   UNL     1      44.384 -29.393  -4.154  1.00  0.00     0.001 A 
HETATM   33  C   UNL     1      45.028 -28.163  -4.046  1.00  0.00     0.000 A 
HETATM   34  C   UNL     1      45.349 -27.654  -2.790  1.00  0.00     0.001 A 
HETATM   35  C   UNL     1      45.025 -28.376  -1.639  1.00  0.00     0.009 A 
ENDBRANCH  29  30
ENDBRANCH   1  29
TORSDOF 5
ENDMDL
MODEL 9
REMARK VINA RESULT:      -8.7      2.808      8.177
REMARK  5 active torsions:
REMARK  status: ('A' for Active; 'I' for Inactive)
REMARK    1  A    between atoms: C_4  and  C_5 
REMARK    2  A    between atoms: C_5  and  N_6 
REMARK    3  A    between atoms: C_7  and  N_8 
REMARK    4  A    between atoms: N_8  and  N_9 
REMARK       I    between atoms: N_9  and  C_10 
REMARK    5  A    between atoms: C_10  and  C_11 
ROOT
HETATM    1  N   UNL     1      40.186 -14.994   3.265  1.00  0.00    -0.282 N 
HETATM    2  C   UNL     1      39.969 -13.682   3.735  1.00  0.00     0.204 A 
HETATM    3  N   UNL     1      39.801 -12.642   2.950  1.00  0.00    -0.217 NA
HETATM    4  C   UNL     1      39.894 -12.893   1.585  1.00  0.00     0.090 A 
HETATM    5  C   UNL     1      40.129 -14.138   1.069  1.00  0.00     0.103 A 
HETATM    6  S   UNL     1      40.211 -14.146  -0.640  1.00  0.00    -0.086 SA
HETATM    7  C   UNL     1      39.945 -12.490  -0.662  1.00  0.00    -0.008 A 
HETATM    8  C   UNL     1      39.793 -11.927   0.579  1.00  0.00    -0.015 A 
HETATM    9  C   UNL     1      39.578 -10.467   0.485  1.00  0.00     0.042 C 
HETATM   10  C   UNL     1      39.282 -10.273  -1.038  1.00  0.00     0.010 C 
HETATM   11  C   UNL     1      39.857 -11.522  -1.777  1.00  0.00     0.047 C 
HETATM   12  C   UNL     1      40.285 -15.293   1.897  1.00  0.00     0.269 A 
HETATM   13  O   UNL     1      40.490 -16.427   1.466  1.00  0.00    -0.266 OA
ENDROOT
BRANCH   2  14
HETATM   14  N   UNL     1      39.925 -13.489   5.107  1.00  0.00    -0.170 NA
HETATM   15  H   UNL     1      39.531 -14.250   5.660  1.00  0.00     0.156 HD
BRANCH  14  16
HETATM   16  N   UNL     1      41.083 -12.976   5.711  1.00  0.00    -0.279 N 
HETATM   17  C   UNL     1      41.105 -11.636   6.040  1.00  0.00     0.289 C 
HETATM   18  O   UNL     1      40.092 -10.940   5.941  1.00  0.00    -0.264 OA
HETATM   19  H   UNL     1      41.878 -13.603   5.819  1.00  0.00     0.184 HD
BRANCH  17  20
HETATM   20  C   UNL     1      42.391 -11.137   6.467  1.00  0.00     0.145 A 
HETATM   21  O   UNL     1      42.451 -10.060   7.313  1.00  0.00    -0.304 OA
HETATM   22  C   UNL     1      43.762  -9.862   7.619  1.00  0.00     0.086 A 
HETATM   23  C   UNL     1      44.561 -10.786   6.955  1.00  0.00     0.001 A 
HETATM   24  C   UNL     1      44.253  -8.884   8.482  1.00  0.00     0.038 A 
HETATM   25  C   UNL     1      43.669 -11.598   6.210  1.00  0.00     0.057 A 
HETATM   26  C   UNL     1      45.951 -10.739   7.153  1.00  0.00     0.014 A 
HETATM   27  C   UNL     1      46.475  -9.768   8.019  1.00  0.00     0.001 A 
HETATM   28  C   UNL     1      45.638  -8.859   8.673  1.00  0.00     0.003 A 
ENDBRANCH  17  20
ENDBRANCH  14  16
ENDBRANCH   2  14
BRANCH   1  29
HETATM   29  C   UNL     1      40.207 -16.146   4.169  1.00  0.00     0.173 C 
BRANCH  29  30
HETATM   30  C   UNL     1      41.568 -16.359   4.801  1.00  0.00    -0.040 A 
HETATM   31  C   UNL     1      42.700 -16.553   3.996  1.00  0.00     0.009 A 
HETATM   32  C   UNL     1      43.953 -16.773   4.570  1.00  0.00     0.001 A 
HETATM   33  C   UNL     1      44.090 -16.804   5.956  1.00  0.00     0.000 A 
HETATM   34  C   UNL     1      42.975 -16.611   6.768  1.00  0.00     0.001 A 
HETATM   35  C   UNL     1      41.721 -16.388   6.195  1.00  0.00     0.009 A 
ENDBRANCH  29  30
ENDBRANCH   1  29
TORSDOF 5
ENDMDL
MODEL 10
REMARK VINA RESULT:      -8.6      2.523      7.863
REMARK  5 active torsions:
REMARK  status: ('A' for Active; 'I' for Inactive)
REMARK    1  A    between atoms: C_4  and  C_5 
REMARK    2  A    between atoms: C_5  and  N_6 
REMARK    3  A    between atoms: C_7  and  N_8 
REMARK    4  A    between atoms: N_8  and  N_9 
REMARK       I    between atoms: N_9  and  C_10 
REMARK    5  A    between atoms: C_10  and  C_11 
ROOT
HETATM    1  N   UNL     1      40.839 -12.326   1.970  1.00  0.00    -0.282 N 
HETATM    2  C   UNL     1      42.103 -12.921   2.167  1.00  0.00     0.204 A 
HETATM    3  N   UNL     1      42.871 -12.683   3.206  1.00  0.00    -0.217 NA
HETATM    4  C   UNL     1      42.384 -11.749   4.115  1.00  0.00     0.090 A 
HETATM    5  C   UNL     1      41.179 -11.119   3.967  1.00  0.00     0.103 A 
HETATM    6  S   UNL     1      40.847 -10.009   5.227  1.00  0.00    -0.086 SA
HETATM    7  C   UNL     1      42.320 -10.379   5.941  1.00  0.00    -0.008 A 
HETATM    8  C   UNL     1      43.056 -11.316   5.263  1.00  0.00    -0.015 A 
HETATM    9  C   UNL     1      44.345 -11.579   5.939  1.00  0.00     0.042 C 
HETATM   10  C   UNL     1      44.133 -10.902   7.332  1.00  0.00     0.010 C 
HETATM   11  C   UNL     1      42.976  -9.868   7.165  1.00  0.00     0.047 C 
HETATM   12  C   UNL     1      40.310 -11.381   2.863  1.00  0.00     0.269 A 
HETATM   13  O   UNL     1      39.217 -10.838   2.703  1.00  0.00    -0.266 OA
ENDROOT
BRANCH   2  14
HETATM   14  N   UNL     1      42.550 -13.814   1.206  1.00  0.00    -0.170 NA
HETATM   15  H   UNL     1      43.147 -13.429   0.473  1.00  0.00     0.156 HD
BRANCH  14  16
HETATM   16  N   UNL     1      43.047 -15.043   1.667  1.00  0.00    -0.279 N 
HETATM   17  C   UNL     1      42.145 -16.060   1.902  1.00  0.00     0.289 C 
HETATM   18  O   UNL     1      40.958 -15.946   1.584  1.00  0.00    -0.264 OA
HETATM   19  H   UNL     1      44.042 -15.106   1.866  1.00  0.00     0.184 HD
BRANCH  17  20
HETATM   20  C   UNL     1      42.697 -17.219   2.562  1.00  0.00     0.145 A 
HETATM   21  O   UNL     1      42.914 -17.187   3.915  1.00  0.00    -0.304 OA
HETATM   22  C   UNL     1      43.349 -18.423   4.282  1.00  0.00     0.086 A 
HETATM   23  C   UNL     1      43.444 -19.254   3.172  1.00  0.00     0.001 A 
HETATM   24  C   UNL     1      43.650 -18.822   5.583  1.00  0.00     0.038 A 
HETATM   25  C   UNL     1      43.029 -18.467   2.068  1.00  0.00     0.057 A 
HETATM   26  C   UNL     1      43.874 -20.579   3.358  1.00  0.00     0.014 A 
HETATM   27  C   UNL     1      44.181 -21.011   4.656  1.00  0.00     0.001 A 
HETATM   28  C   UNL     1      44.068 -20.146   5.749  1.00  0.00     0.003 A 
ENDBRANCH  17  20
ENDBRANCH  14  16
ENDBRANCH   2  14
BRANCH   1  29
HETATM   29  C   UNL     1      39.949 -12.741   0.885  1.00  0.00     0.173 C 
BRANCH  29  30
HETATM   30  C   UNL     1      40.271 -12.046  -0.423  1.00  0.00    -0.040 A 
HETATM   31  C   UNL     1      40.992 -10.842  -0.426  1.00  0.00     0.009 A 
HETATM   32  C   UNL     1      41.272 -10.183  -1.624  1.00  0.00     0.001 A 
HETATM   33  C   UNL     1      40.834 -10.717  -2.833  1.00  0.00     0.000 A 
HETATM   34  C   UNL     1      40.118 -11.911  -2.846  1.00  0.00     0.001 A 
HETATM   35  C   UNL     1      39.839 -12.574  -1.649  1.00  0.00     0.009 A 
ENDBRANCH  29  30
ENDBRANCH   1  29
TORSDOF 5
ENDMDL
