MODEL 1
REMARK VINA RESULT:      -9.7      0.000      0.000
REMARK  6 active torsions:
REMARK  status: ('A' for Active; 'I' for Inactive)
REMARK    1  A    between atoms: C_5  and  C_6 
REMARK    2  A    between atoms: C_11  and  C_12 
REMARK       I    between atoms: C_12  and  N_13 
REMARK    3  A    between atoms: N_13  and  C_14 
REMARK    4  A    between atoms: C_16  and  C_17 
REMARK    5  A    between atoms: C_17  and  O_18 
REMARK    6  A    between atoms: C_25  and  C_26 
ROOT
HETATM    1  C   UNL     1      42.257 -16.017   2.645  1.00  0.00     0.118 C 
HETATM    2  N   UNL     1      43.155 -14.941   3.078  1.00  0.00    -0.366 N 
HETATM    3  C   UNL     1      42.723 -13.915   3.839  1.00  0.00     0.123 A 
HETATM    4  N   UNL     1      41.394 -13.615   3.927  1.00  0.00    -0.240 N 
HETATM    5  N   UNL     1      41.102 -12.666   4.836  1.00  0.00    -0.165 NA
HETATM    6  C   UNL     1      42.322 -12.289   5.290  1.00  0.00     0.148 A 
HETATM    7  C   UNL     1      43.364 -13.021   4.653  1.00  0.00     0.089 A 
HETATM    8  C   UNL     1      40.374 -14.392   3.253  1.00  0.00     0.221 C 
HETATM    9  C   UNL     1      40.829 -15.857   3.212  1.00  0.00     0.066 C 
HETATM   10  H   UNL     1      44.147 -15.176   3.041  1.00  0.00     0.161 HD
ENDROOT
BRANCH   6  11
HETATM   11  C   UNL     1      42.487 -11.286   6.357  1.00  0.00     0.276 C 
HETATM   12  N   UNL     1      43.516 -11.616   7.218  1.00  0.00    -0.322 N 
HETATM   13  H   UNL     1      43.940 -12.519   7.013  1.00  0.00     0.169 HD
HETATM   14  O   UNL     1      41.774 -10.290   6.412  1.00  0.00    -0.266 OA
BRANCH  12  15
HETATM   15  C   UNL     1      44.040 -10.863   8.280  1.00  0.00     0.035 A 
HETATM   16  C   UNL     1      43.440 -10.774   9.539  1.00  0.00     0.039 A 
HETATM   17  C   UNL     1      43.999  -9.982  10.559  1.00  0.00    -0.028 A 
HETATM   18  C   UNL     1      45.188  -9.289  10.298  1.00  0.00     0.010 A 
HETATM   19  C   UNL     1      45.793  -9.370   9.044  1.00  0.00     0.003 A 
HETATM   20  C   UNL     1      45.219 -10.149   8.039  1.00  0.00     0.029 A 
BRANCH  17  21
HETATM   21  C   UNL     1      43.312  -9.920  11.907  1.00  0.00     0.147 C 
HETATM   22  C   UNL     1      43.221  -8.489  12.424  1.00  0.00     0.044 C 
BRANCH  21  23
HETATM   23  O   UNL     1      41.996 -10.469  11.829  1.00  0.00    -0.391 OA
HETATM   24  H   UNL     1      42.070 -11.411  12.058  1.00  0.00     0.210 HD
ENDBRANCH  21  23
ENDBRANCH  17  21
ENDBRANCH  12  15
ENDBRANCH   6  11
BRANCH   8  25
HETATM   25  C   UNL     1      40.096 -13.822   1.882  1.00  0.00     0.409 C 
HETATM   26  F   UNL     1      41.140 -13.111   1.402  1.00  0.00    -0.169 F 
HETATM   27  F   UNL     1      39.770 -14.751   0.961  1.00  0.00    -0.169 F 
HETATM   28  F   UNL     1      39.044 -12.963   1.951  1.00  0.00    -0.169 F 
ENDBRANCH   8  25
BRANCH   1  29
HETATM   29  C   UNL     1      42.843 -17.356   3.064  1.00  0.00    -0.035 A 
HETATM   30  C   UNL     1      43.337 -17.553   4.366  1.00  0.00     0.010 A 
HETATM   31  C   UNL     1      43.862 -18.787   4.754  1.00  0.00     0.007 A 
HETATM   32  C   UNL     1      43.911 -19.850   3.850  1.00  0.00    -0.062 A 
HETATM   33  C   UNL     1      44.444 -21.185   4.278  1.00  0.00     0.048 C 
HETATM   34  C   UNL     1      43.400 -19.667   2.559  1.00  0.00     0.007 A 
HETATM   35  C   UNL     1      42.875 -18.432   2.167  1.00  0.00     0.010 A 
ENDBRANCH   1  29
TORSDOF 6
ENDMDL
MODEL 2
REMARK VINA RESULT:      -9.6      1.747      2.236
REMARK  6 active torsions:
REMARK  status: ('A' for Active; 'I' for Inactive)
REMARK    1  A    between atoms: C_5  and  C_6 
REMARK    2  A    between atoms: C_11  and  C_12 
REMARK       I    between atoms: C_12  and  N_13 
REMARK    3  A    between atoms: N_13  and  C_14 
REMARK    4  A    between atoms: C_16  and  C_17 
REMARK    5  A    between atoms: C_17  and  O_18 
REMARK    6  A    between atoms: C_25  and  C_26 
ROOT
HETATM    1  C   UNL     1      42.354 -16.191   2.059  1.00  0.00     0.118 C 
HETATM    2  N   UNL     1      43.156 -14.989   2.310  1.00  0.00    -0.366 N 
HETATM    3  C   UNL     1      42.607 -13.848   2.772  1.00  0.00     0.123 A 
HETATM    4  N   UNL     1      41.265 -13.622   2.669  1.00  0.00    -0.240 N 
HETATM    5  N   UNL     1      40.842 -12.514   3.305  1.00  0.00    -0.165 NA
HETATM    6  C   UNL     1      41.992 -11.966   3.766  1.00  0.00     0.148 A 
HETATM    7  C   UNL     1      43.124 -12.754   3.410  1.00  0.00     0.089 A 
HETATM    8  C   UNL     1      40.352 -14.596   2.106  1.00  0.00     0.221 C 
HETATM    9  C   UNL     1      40.870 -16.000   2.444  1.00  0.00     0.066 C 
HETATM   10  H   UNL     1      44.157 -15.163   2.417  1.00  0.00     0.161 HD
ENDROOT
BRANCH   6  11
HETATM   11  C   UNL     1      42.006 -10.739   4.584  1.00  0.00     0.276 C 
HETATM   12  N   UNL     1      41.991 -11.023   5.936  1.00  0.00    -0.322 N 
HETATM   13  H   UNL     1      41.908 -12.017   6.139  1.00  0.00     0.169 HD
HETATM   14  O   UNL     1      42.041  -9.629   4.067  1.00  0.00    -0.266 OA
BRANCH  12  15
HETATM   15  C   UNL     1      42.106 -10.133   7.015  1.00  0.00     0.035 A 
HETATM   16  C   UNL     1      43.324  -9.770   7.595  1.00  0.00     0.039 A 
HETATM   17  C   UNL     1      43.377  -8.892   8.693  1.00  0.00    -0.028 A 
HETATM   18  C   UNL     1      42.178  -8.366   9.192  1.00  0.00     0.010 A 
HETATM   19  C   UNL     1      40.958  -8.723   8.621  1.00  0.00     0.003 A 
HETATM   20  C   UNL     1      40.922  -9.607   7.541  1.00  0.00     0.029 A 
BRANCH  17  21
HETATM   21  C   UNL     1      44.722  -8.528   9.284  1.00  0.00     0.147 C 
HETATM   22  C   UNL     1      45.306  -9.676  10.099  1.00  0.00     0.044 C 
BRANCH  21  23
HETATM   23  O   UNL     1      45.647  -8.173   8.256  1.00  0.00    -0.391 OA
HETATM   24  H   UNL     1      45.557  -8.838   7.554  1.00  0.00     0.210 HD
ENDBRANCH  21  23
ENDBRANCH  17  21
ENDBRANCH  12  15
ENDBRANCH   6  11
BRANCH   8  25
HETATM   25  C   UNL     1      40.190 -14.368   0.621  1.00  0.00     0.409 C 
HETATM   26  F   UNL     1      41.319 -13.895   0.049  1.00  0.00    -0.169 F 
HETATM   27  F   UNL     1      39.812 -15.468  -0.061  1.00  0.00    -0.169 F 
HETATM   28  F   UNL     1      39.227 -13.433   0.406  1.00  0.00    -0.169 F 
ENDBRANCH   8  25
BRANCH   1  29
HETATM   29  C   UNL     1      42.950 -17.360   2.826  1.00  0.00    -0.035 A 
HETATM   30  C   UNL     1      43.370 -17.211   4.160  1.00  0.00     0.010 A 
HETATM   31  C   UNL     1      43.905 -18.288   4.868  1.00  0.00     0.007 A 
HETATM   32  C   UNL     1      44.038 -19.537   4.259  1.00  0.00    -0.062 A 
HETATM   33  C   UNL     1      44.581 -20.703   5.032  1.00  0.00     0.048 C 
HETATM   34  C   UNL     1      43.601 -19.699   2.938  1.00  0.00     0.007 A 
HETATM   35  C   UNL     1      43.067 -18.621   2.226  1.00  0.00     0.010 A 
ENDBRANCH   1  29
TORSDOF 6
ENDMDL
MODEL 3
REMARK VINA RESULT:      -9.2      1.480      1.873
REMARK  6 active torsions:
REMARK  status: ('A' for Active; 'I' for Inactive)
REMARK    1  A    between atoms: C_5  and  C_6 
REMARK    2  A    between atoms: C_11  and  C_12 
REMARK       I    between atoms: C_12  and  N_13 
REMARK    3  A    between atoms: N_13  and  C_14 
REMARK    4  A    between atoms: C_16  and  C_17 
REMARK    5  A    between atoms: C_17  and  O_18 
REMARK    6  A    between atoms: C_25  and  C_26 
ROOT
HETATM    1  C   UNL     1      41.986 -15.395   3.275  1.00  0.00     0.118 C 
HETATM    2  N   UNL     1      43.051 -14.432   3.570  1.00  0.00    -0.366 N 
HETATM    3  C   UNL     1      42.947 -13.539   4.575  1.00  0.00     0.123 A 
HETATM    4  N   UNL     1      41.733 -13.223   5.113  1.00  0.00    -0.240 N 
HETATM    5  N   UNL     1      41.800 -12.435   6.202  1.00  0.00    -0.165 NA
HETATM    6  C   UNL     1      43.125 -12.171   6.310  1.00  0.00     0.148 A 
HETATM    7  C   UNL     1      43.869 -12.811   5.278  1.00  0.00     0.089 A 
HETATM    8  C   UNL     1      40.501 -13.849   4.676  1.00  0.00     0.221 C 
HETATM    9  C   UNL     1      40.810 -15.297   4.272  1.00  0.00     0.066 C 
HETATM   10  H   UNL     1      43.966 -14.683   3.194  1.00  0.00     0.161 HD
ENDROOT
BRANCH   6  11
HETATM   11  C   UNL     1      43.678 -11.369   7.415  1.00  0.00     0.276 C 
HETATM   12  N   UNL     1      42.778 -10.420   7.862  1.00  0.00    -0.322 N 
HETATM   13  H   UNL     1      41.919 -10.390   7.317  1.00  0.00     0.169 HD
HETATM   14  O   UNL     1      44.804 -11.576   7.853  1.00  0.00    -0.266 OA
BRANCH  12  15
HETATM   15  C   UNL     1      42.899  -9.552   8.958  1.00  0.00     0.035 A 
HETATM   16  C   UNL     1      42.719  -9.949  10.286  1.00  0.00     0.039 A 
HETATM   17  C   UNL     1      42.829  -9.028  11.344  1.00  0.00    -0.028 A 
HETATM   18  C   UNL     1      43.139  -7.695  11.046  1.00  0.00     0.010 A 
HETATM   19  C   UNL     1      43.317  -7.289   9.724  1.00  0.00     0.003 A 
HETATM   20  C   UNL     1      43.193  -8.212   8.685  1.00  0.00     0.029 A 
BRANCH  17  21
HETATM   21  C   UNL     1      42.628  -9.508  12.766  1.00  0.00     0.147 C 
HETATM   22  C   UNL     1      42.378  -8.346  13.720  1.00  0.00     0.044 C 
BRANCH  21  23
HETATM   23  O   UNL     1      41.527 -10.415  12.842  1.00  0.00    -0.391 OA
HETATM   24  H   UNL     1      41.903 -11.309  12.904  1.00  0.00     0.210 HD
ENDBRANCH  21  23
ENDBRANCH  17  21
ENDBRANCH  12  15
ENDBRANCH   6  11
BRANCH   8  25
HETATM   25  C   UNL     1      39.870 -13.048   3.562  1.00  0.00     0.409 C 
HETATM   26  F   UNL     1      40.778 -12.319   2.876  1.00  0.00    -0.169 F 
HETATM   27  F   UNL     1      39.184 -13.795   2.673  1.00  0.00    -0.169 F 
HETATM   28  F   UNL     1      38.981 -12.162   4.086  1.00  0.00    -0.169 F 
ENDBRANCH   8  25
BRANCH   1  29
HETATM   29  C   UNL     1      42.566 -16.800   3.283  1.00  0.00    -0.035 A 
HETATM   30  C   UNL     1      42.398 -17.658   2.181  1.00  0.00     0.010 A 
HETATM   31  C   UNL     1      42.942 -18.943   2.183  1.00  0.00     0.007 A 
HETATM   32  C   UNL     1      43.662 -19.403   3.287  1.00  0.00    -0.062 A 
HETATM   33  C   UNL     1      44.275 -20.772   3.274  1.00  0.00     0.048 C 
HETATM   34  C   UNL     1      43.853 -18.547   4.379  1.00  0.00     0.007 A 
HETATM   35  C   UNL     1      43.306 -17.260   4.380  1.00  0.00     0.010 A 
ENDBRANCH   1  29
TORSDOF 6
ENDMDL
MODEL 4
REMARK VINA RESULT:      -9.1      2.323      4.568
REMARK  6 active torsions:
REMARK  status: ('A' for Active; 'I' for Inactive)
REMARK    1  A    between atoms: C_5  and  C_6 
REMARK    2  A    between atoms: C_11  and  C_12 
REMARK       I    between atoms: C_12  and  N_13 
REMARK    3  A    between atoms: N_13  and  C_14 
REMARK    4  A    between atoms: C_16  and  C_17 
REMARK    5  A    between atoms: C_17  and  O_18 
REMARK    6  A    between atoms: C_25  and  C_26 
ROOT
HETATM    1  C   UNL     1      40.603 -15.078   1.747  1.00  0.00     0.118 C 
HETATM    2  N   UNL     1      40.072 -14.441   2.956  1.00  0.00    -0.366 N 
HETATM    3  C   UNL     1      40.878 -13.884   3.882  1.00  0.00     0.123 A 
HETATM    4  N   UNL     1      42.203 -14.207   3.947  1.00  0.00    -0.240 N 
HETATM    5  N   UNL     1      42.910 -13.465   4.819  1.00  0.00    -0.165 NA
HETATM    6  C   UNL     1      41.964 -12.684   5.396  1.00  0.00     0.148 A 
HETATM    7  C   UNL     1      40.671 -12.954   4.864  1.00  0.00     0.089 A 
HETATM    8  C   UNL     1      42.828 -15.122   3.013  1.00  0.00     0.221 C 
HETATM    9  C   UNL     1      42.141 -14.967   1.650  1.00  0.00     0.066 C 
HETATM   10  H   UNL     1      39.089 -14.172   2.897  1.00  0.00     0.161 HD
ENDROOT
BRANCH   6  11
HETATM   11  C   UNL     1      42.298 -11.657   6.398  1.00  0.00     0.276 C 
HETATM   12  N   UNL     1      43.526 -11.893   6.987  1.00  0.00    -0.322 N 
HETATM   13  H   UNL     1      43.959 -12.762   6.682  1.00  0.00     0.169 HD
HETATM   14  O   UNL     1      41.543 -10.719   6.627  1.00  0.00    -0.266 OA
BRANCH  12  15
HETATM   15  C   UNL     1      44.227 -11.086   7.896  1.00  0.00     0.035 A 
HETATM   16  C   UNL     1      43.795 -10.830   9.200  1.00  0.00     0.039 A 
HETATM   17  C   UNL     1      44.527  -9.992  10.060  1.00  0.00    -0.028 A 
HETATM   18  C   UNL     1      45.718  -9.422   9.592  1.00  0.00     0.010 A 
HETATM   19  C   UNL     1      46.157  -9.670   8.292  1.00  0.00     0.003 A 
HETATM   20  C   UNL     1      45.412 -10.493   7.446  1.00  0.00     0.029 A 
BRANCH  17  21
HETATM   21  C   UNL     1      44.018  -9.748  11.465  1.00  0.00     0.147 C 
HETATM   22  C   UNL     1      43.216  -8.455  11.555  1.00  0.00     0.044 C 
BRANCH  21  23
HETATM   23  O   UNL     1      43.198 -10.833  11.901  1.00  0.00    -0.391 OA
HETATM   24  H   UNL     1      42.443 -10.444  12.372  1.00  0.00     0.210 HD
ENDBRANCH  21  23
ENDBRANCH  17  21
ENDBRANCH  12  15
ENDBRANCH   6  11
BRANCH   8  25
HETATM   25  C   UNL     1      42.775 -16.535   3.544  1.00  0.00     0.409 C 
HETATM   26  F   UNL     1      43.936 -16.908   4.126  1.00  0.00    -0.169 F 
HETATM   27  F   UNL     1      41.782 -16.747   4.431  1.00  0.00    -0.169 F 
HETATM   28  F   UNL     1      42.563 -17.400   2.516  1.00  0.00    -0.169 F 
ENDBRANCH   8  25
BRANCH   1  29
HETATM   29  C   UNL     1      39.952 -14.451   0.524  1.00  0.00    -0.035 A 
HETATM   30  C   UNL     1      39.658 -13.076   0.487  1.00  0.00     0.010 A 
HETATM   31  C   UNL     1      39.073 -12.498  -0.641  1.00  0.00     0.007 A 
HETATM   32  C   UNL     1      38.764 -13.281  -1.755  1.00  0.00    -0.062 A 
HETATM   33  C   UNL     1      38.166 -12.653  -2.979  1.00  0.00     0.048 C 
HETATM   34  C   UNL     1      39.074 -14.646  -1.734  1.00  0.00     0.007 A 
HETATM   35  C   UNL     1      39.658 -15.228  -0.604  1.00  0.00     0.010 A 
ENDBRANCH   1  29
TORSDOF 6
ENDMDL
MODEL 5
REMARK VINA RESULT:      -9.0      3.749      9.693
REMARK  6 active torsions:
REMARK  status: ('A' for Active; 'I' for Inactive)
REMARK    1  A    between atoms: C_5  and  C_6 
REMARK    2  A    between atoms: C_11  and  C_12 
REMARK       I    between atoms: C_12  and  N_13 
REMARK    3  A    between atoms: N_13  and  C_14 
REMARK    4  A    between atoms: C_16  and  C_17 
REMARK    5  A    between atoms: C_17  and  O_18 
REMARK    6  A    between atoms: C_25  and  C_26 
ROOT
HETATM    1  C   UNL     1      43.243  -9.555   8.429  1.00  0.00     0.118 C 
HETATM    2  N   UNL     1      42.541 -10.095   7.261  1.00  0.00    -0.366 N 
HETATM    3  C   UNL     1      42.795 -11.331   6.784  1.00  0.00     0.123 A 
HETATM    4  N   UNL     1      43.951 -11.984   7.104  1.00  0.00    -0.240 N 
HETATM    5  N   UNL     1      43.998 -13.260   6.681  1.00  0.00    -0.165 NA
HETATM    6  C   UNL     1      42.843 -13.397   5.985  1.00  0.00     0.148 A 
HETATM    7  C   UNL     1      42.086 -12.191   5.991  1.00  0.00     0.089 A 
HETATM    8  C   UNL     1      44.944 -11.419   7.996  1.00  0.00     0.221 C 
HETATM    9  C   UNL     1      44.220 -10.575   9.054  1.00  0.00     0.066 C 
HETATM   10  H   UNL     1      41.662  -9.626   7.040  1.00  0.00     0.161 HD
ENDROOT
BRANCH   6  11
HETATM   11  C   UNL     1      42.442 -14.676   5.373  1.00  0.00     0.276 C 
HETATM   12  N   UNL     1      43.476 -15.251   4.659  1.00  0.00    -0.322 N 
HETATM   13  H   UNL     1      44.311 -14.671   4.621  1.00  0.00     0.169 HD
HETATM   14  O   UNL     1      41.314 -15.131   5.527  1.00  0.00    -0.266 OA
BRANCH  12  15
HETATM   15  C   UNL     1      43.511 -16.508   4.035  1.00  0.00     0.035 A 
HETATM   16  C   UNL     1      43.883 -17.687   4.686  1.00  0.00     0.039 A 
HETATM   17  C   UNL     1      43.924 -18.916   4.002  1.00  0.00    -0.028 A 
HETATM   18  C   UNL     1      43.568 -18.945   2.647  1.00  0.00     0.010 A 
HETATM   19  C   UNL     1      43.198 -17.773   1.989  1.00  0.00     0.003 A 
HETATM   20  C   UNL     1      43.175 -16.559   2.678  1.00  0.00     0.029 A 
BRANCH  17  21
HETATM   21  C   UNL     1      44.331 -20.166   4.753  1.00  0.00     0.147 C 
HETATM   22  C   UNL     1      43.577 -20.299   6.071  1.00  0.00     0.044 C 
BRANCH  21  23
HETATM   23  O   UNL     1      44.090 -21.331   3.962  1.00  0.00    -0.391 OA
HETATM   24  H   UNL     1      43.458 -21.075   3.270  1.00  0.00     0.210 HD
ENDBRANCH  21  23
ENDBRANCH  17  21
ENDBRANCH  12  15
ENDBRANCH   6  11
BRANCH   8  25
HETATM   25  C   UNL     1      45.969 -10.633   7.213  1.00  0.00     0.409 C 
HETATM   26  F   UNL     1      47.235 -10.991   7.521  1.00  0.00    -0.169 F 
HETATM   27  F   UNL     1      45.826 -10.731   5.875  1.00  0.00    -0.169 F 
HETATM   28  F   UNL     1      45.857  -9.312   7.515  1.00  0.00    -0.169 F 
ENDBRANCH   8  25
BRANCH   1  29
HETATM   29  C   UNL     1      42.222  -9.104   9.461  1.00  0.00    -0.035 A 
HETATM   30  C   UNL     1      40.843  -9.239   9.221  1.00  0.00     0.010 A 
HETATM   31  C   UNL     1      39.906  -8.838  10.175  1.00  0.00     0.007 A 
HETATM   32  C   UNL     1      40.325  -8.288  11.388  1.00  0.00    -0.062 A 
HETATM   33  C   UNL     1      39.318  -7.888  12.426  1.00  0.00     0.048 C 
HETATM   34  C   UNL     1      41.697  -8.171  11.644  1.00  0.00     0.007 A 
HETATM   35  C   UNL     1      42.637  -8.571  10.689  1.00  0.00     0.010 A 
ENDBRANCH   1  29
TORSDOF 6
ENDMDL
MODEL 6
REMARK VINA RESULT:      -8.9      3.524      9.911
REMARK  6 active torsions:
REMARK  status: ('A' for Active; 'I' for Inactive)
REMARK    1  A    between atoms: C_5  and  C_6 
REMARK    2  A    between atoms: C_11  and  C_12 
REMARK       I    between atoms: C_12  and  N_13 
REMARK    3  A    between atoms: N_13  and  C_14 
REMARK    4  A    between atoms: C_16  and  C_17 
REMARK    5  A    between atoms: C_17  and  O_18 
REMARK    6  A    between atoms: C_25  and  C_26 
ROOT
HETATM    1  C   UNL     1      43.944  -9.186   9.792  1.00  0.00     0.118 C 
HETATM    2  N   UNL     1      43.003  -9.383   8.684  1.00  0.00    -0.366 N 
HETATM    3  C   UNL     1      43.103 -10.429   7.840  1.00  0.00     0.123 A 
HETATM    4  N   UNL     1      44.268 -11.132   7.726  1.00  0.00    -0.240 N 
HETATM    5  N   UNL     1      44.174 -12.236   6.962  1.00  0.00    -0.165 NA
HETATM    6  C   UNL     1      42.900 -12.184   6.502  1.00  0.00     0.148 A 
HETATM    7  C   UNL     1      42.214 -11.038   6.997  1.00  0.00     0.089 A 
HETATM    8  C   UNL     1      45.440 -10.831   8.523  1.00  0.00     0.221 C 
HETATM    9  C   UNL     1      44.977 -10.330   9.897  1.00  0.00     0.066 C 
HETATM   10  H   UNL     1      42.120  -8.881   8.784  1.00  0.00     0.161 HD
ENDROOT
BRANCH   6  11
HETATM   11  C   UNL     1      42.329 -13.242   5.650  1.00  0.00     0.276 C 
HETATM   12  N   UNL     1      43.250 -13.719   4.737  1.00  0.00    -0.322 N 
HETATM   13  H   UNL     1      44.137 -13.221   4.760  1.00  0.00     0.169 HD
HETATM   14  O   UNL     1      41.172 -13.621   5.793  1.00  0.00    -0.266 OA
BRANCH  12  15
HETATM   15  C   UNL     1      43.114 -14.790   3.840  1.00  0.00     0.035 A 
HETATM   16  C   UNL     1      43.400 -16.118   4.168  1.00  0.00     0.039 A 
HETATM   17  C   UNL     1      43.269 -17.149   3.220  1.00  0.00    -0.028 A 
HETATM   18  C   UNL     1      42.828 -16.825   1.931  1.00  0.00     0.010 A 
HETATM   19  C   UNL     1      42.542 -15.503   1.593  1.00  0.00     0.003 A 
HETATM   20  C   UNL     1      42.689 -14.490   2.541  1.00  0.00     0.029 A 
BRANCH  17  21
HETATM   21  C   UNL     1      43.589 -18.572   3.626  1.00  0.00     0.147 C 
HETATM   22  C   UNL     1      43.621 -19.505   2.421  1.00  0.00     0.044 C 
BRANCH  21  23
HETATM   23  O   UNL     1      44.849 -18.636   4.295  1.00  0.00    -0.391 OA
HETATM   24  H   UNL     1      44.712 -18.281   5.188  1.00  0.00     0.210 HD
ENDBRANCH  21  23
ENDBRANCH  17  21
ENDBRANCH  12  15
ENDBRANCH   6  11
BRANCH   8  25
HETATM   25  C   UNL     1      46.327  -9.843   7.802  1.00  0.00     0.409 C 
HETATM   26  F   UNL     1      46.218  -8.594   8.306  1.00  0.00    -0.169 F 
HETATM   27  F   UNL     1      47.633 -10.178   7.806  1.00  0.00    -0.169 F 
HETATM   28  F   UNL     1      45.954  -9.765   6.497  1.00  0.00    -0.169 F 
ENDBRANCH   8  25
BRANCH   1  29
HETATM   29  C   UNL     1      43.166  -9.059  11.092  1.00  0.00    -0.035 A 
HETATM   30  C   UNL     1      43.652  -8.272  12.151  1.00  0.00     0.010 A 
HETATM   31  C   UNL     1      42.931  -8.144  13.340  1.00  0.00     0.007 A 
HETATM   32  C   UNL     1      41.711  -8.804  13.499  1.00  0.00    -0.062 A 
HETATM   33  C   UNL     1      40.921  -8.639  14.764  1.00  0.00     0.048 C 
HETATM   34  C   UNL     1      41.210  -9.572  12.441  1.00  0.00     0.007 A 
HETATM   35  C   UNL     1      41.931  -9.702  11.250  1.00  0.00     0.010 A 
ENDBRANCH   1  29
TORSDOF 6
ENDMDL
MODEL 7
REMARK VINA RESULT:      -8.7      2.608      3.050
REMARK  6 active torsions:
REMARK  status: ('A' for Active; 'I' for Inactive)
REMARK    1  A    between atoms: C_5  and  C_6 
REMARK    2  A    between atoms: C_11  and  C_12 
REMARK       I    between atoms: C_12  and  N_13 
REMARK    3  A    between atoms: N_13  and  C_14 
REMARK    4  A    between atoms: C_16  and  C_17 
REMARK    5  A    between atoms: C_17  and  O_18 
REMARK    6  A    between atoms: C_25  and  C_26 
ROOT
HETATM    1  C   UNL     1      42.414 -16.219   2.202  1.00  0.00     0.118 C 
HETATM    2  N   UNL     1      43.185 -15.019   2.545  1.00  0.00    -0.366 N 
HETATM    3  C   UNL     1      42.600 -13.914   3.048  1.00  0.00     0.123 A 
HETATM    4  N   UNL     1      41.257 -13.705   2.912  1.00  0.00    -0.240 N 
HETATM    5  N   UNL     1      40.793 -12.641   3.591  1.00  0.00    -0.165 NA
HETATM    6  C   UNL     1      41.917 -12.099   4.120  1.00  0.00     0.148 A 
HETATM    7  C   UNL     1      43.074 -12.847   3.762  1.00  0.00     0.089 A 
HETATM    8  C   UNL     1      40.382 -14.663   2.266  1.00  0.00     0.221 C 
HETATM    9  C   UNL     1      40.916 -16.074   2.547  1.00  0.00     0.066 C 
HETATM   10  H   UNL     1      44.185 -15.181   2.676  1.00  0.00     0.161 HD
ENDROOT
BRANCH   6  11
HETATM   11  C   UNL     1      41.880 -10.919   5.002  1.00  0.00     0.276 C 
HETATM   12  N   UNL     1      40.588 -10.478   5.217  1.00  0.00    -0.322 N 
HETATM   13  H   UNL     1      39.892 -10.994   4.684  1.00  0.00     0.169 HD
HETATM   14  O   UNL     1      42.906 -10.441   5.472  1.00  0.00    -0.266 OA
BRANCH  12  15
HETATM   15  C   UNL     1      40.145  -9.460   6.077  1.00  0.00     0.035 A 
HETATM   16  C   UNL     1      39.965  -9.631   7.452  1.00  0.00     0.039 A 
HETATM   17  C   UNL     1      39.494  -8.581   8.261  1.00  0.00    -0.028 A 
HETATM   18  C   UNL     1      39.221  -7.343   7.666  1.00  0.00     0.010 A 
HETATM   19  C   UNL     1      39.397  -7.164   6.295  1.00  0.00     0.003 A 
HETATM   20  C   UNL     1      39.851  -8.219   5.503  1.00  0.00     0.029 A 
BRANCH  17  21
HETATM   21  C   UNL     1      39.317  -8.815   9.747  1.00  0.00     0.147 C 
HETATM   22  C   UNL     1      40.242  -7.925  10.569  1.00  0.00     0.044 C 
BRANCH  21  23
HETATM   23  O   UNL     1      37.967  -8.569  10.140  1.00  0.00    -0.391 OA
HETATM   24  H   UNL     1      37.853  -7.604  10.164  1.00  0.00     0.210 HD
ENDBRANCH  21  23
ENDBRANCH  17  21
ENDBRANCH  12  15
ENDBRANCH   6  11
BRANCH   8  25
HETATM   25  C   UNL     1      40.265 -14.358   0.791  1.00  0.00     0.409 C 
HETATM   26  F   UNL     1      41.398 -13.819   0.288  1.00  0.00    -0.169 F 
HETATM   27  F   UNL     1      39.948 -15.430   0.036  1.00  0.00    -0.169 F 
HETATM   28  F   UNL     1      39.280 -13.442   0.592  1.00  0.00    -0.169 F 
ENDBRANCH   8  25
BRANCH   1  29
HETATM   29  C   UNL     1      43.007 -17.417   2.925  1.00  0.00    -0.035 A 
HETATM   30  C   UNL     1      43.451 -17.312   4.256  1.00  0.00     0.010 A 
HETATM   31  C   UNL     1      43.983 -18.416   4.924  1.00  0.00     0.007 A 
HETATM   32  C   UNL     1      44.088 -19.649   4.277  1.00  0.00    -0.062 A 
HETATM   33  C   UNL     1      44.628 -20.844   5.007  1.00  0.00     0.048 C 
HETATM   34  C   UNL     1      43.627 -19.767   2.960  1.00  0.00     0.007 A 
HETATM   35  C   UNL     1      43.096 -18.662   2.288  1.00  0.00     0.010 A 
ENDBRANCH   1  29
TORSDOF 6
ENDMDL
MODEL 8
REMARK VINA RESULT:      -8.6      2.809      4.431
REMARK  6 active torsions:
REMARK  status: ('A' for Active; 'I' for Inactive)
REMARK    1  A    between atoms: C_5  and  C_6 
REMARK    2  A    between atoms: C_11  and  C_12 
REMARK       I    between atoms: C_12  and  N_13 
REMARK    3  A    between atoms: N_13  and  C_14 
REMARK    4  A    between atoms: C_16  and  C_17 
REMARK    5  A    between atoms: C_17  and  O_18 
REMARK    6  A    between atoms: C_25  and  C_26 
ROOT
HETATM    1  C   UNL     1      41.246 -15.106   3.406  1.00  0.00     0.118 C 
HETATM    2  N   UNL     1      40.870 -14.060   4.363  1.00  0.00    -0.366 N 
HETATM    3  C   UNL     1      41.757 -13.537   5.233  1.00  0.00     0.123 A 
HETATM    4  N   UNL     1      42.915 -14.193   5.535  1.00  0.00    -0.240 N 
HETATM    5  N   UNL     1      43.767 -13.484   6.298  1.00  0.00    -0.165 NA
HETATM    6  C   UNL     1      43.074 -12.349   6.561  1.00  0.00     0.148 A 
HETATM    7  C   UNL     1      41.791 -12.369   5.944  1.00  0.00     0.089 A 
HETATM    8  C   UNL     1      43.282 -15.452   4.919  1.00  0.00     0.221 C 
HETATM    9  C   UNL     1      42.747 -15.461   3.480  1.00  0.00     0.066 C 
HETATM   10  H   UNL     1      40.020 -13.550   4.121  1.00  0.00     0.161 HD
ENDROOT
BRANCH   6  11
HETATM   11  C   UNL     1      43.651 -11.238   7.339  1.00  0.00     0.276 C 
HETATM   12  N   UNL     1      42.673 -10.444   7.905  1.00  0.00    -0.322 N 
HETATM   13  H   UNL     1      41.729 -10.716   7.639  1.00  0.00     0.169 HD
HETATM   14  O   UNL     1      44.864 -11.098   7.446  1.00  0.00    -0.266 OA
BRANCH  12  15
HETATM   15  C   UNL     1      42.828  -9.369   8.794  1.00  0.00     0.035 A 
HETATM   16  C   UNL     1      42.991  -9.521  10.173  1.00  0.00     0.039 A 
HETATM   17  C   UNL     1      43.118  -8.404  11.020  1.00  0.00    -0.028 A 
HETATM   18  C   UNL     1      43.093  -7.123  10.453  1.00  0.00     0.010 A 
HETATM   19  C   UNL     1      42.928  -6.962   9.078  1.00  0.00     0.003 A 
HETATM   20  C   UNL     1      42.791  -8.080   8.253  1.00  0.00     0.029 A 
BRANCH  17  21
HETATM   21  C   UNL     1      43.296  -8.621  12.508  1.00  0.00     0.147 C 
HETATM   22  C   UNL     1      42.911  -7.380  13.305  1.00  0.00     0.044 C 
BRANCH  21  23
HETATM   23  O   UNL     1      42.505  -9.722  12.956  1.00  0.00    -0.391 OA
HETATM   24  H   UNL     1      42.357 -10.294  12.185  1.00  0.00     0.210 HD
ENDBRANCH  21  23
ENDBRANCH  17  21
ENDBRANCH  12  15
ENDBRANCH   6  11
BRANCH   8  25
HETATM   25  C   UNL     1      42.774 -16.610   5.745  1.00  0.00     0.409 C 
HETATM   26  F   UNL     1      43.649 -16.976   6.707  1.00  0.00    -0.169 F 
HETATM   27  F   UNL     1      41.584 -16.379   6.335  1.00  0.00    -0.169 F 
HETATM   28  F   UNL     1      42.602 -17.697   4.946  1.00  0.00    -0.169 F 
ENDBRANCH   8  25
BRANCH   1  29
HETATM   29  C   UNL     1      40.882 -14.652   2.001  1.00  0.00    -0.035 A 
HETATM   30  C   UNL     1      41.343 -13.423   1.496  1.00  0.00     0.010 A 
HETATM   31  C   UNL     1      41.021 -13.013   0.201  1.00  0.00     0.007 A 
HETATM   32  C   UNL     1      40.225 -13.818  -0.616  1.00  0.00    -0.062 A 
HETATM   33  C   UNL     1      39.907 -13.392  -2.019  1.00  0.00     0.048 C 
HETATM   34  C   UNL     1      39.780 -15.053  -0.128  1.00  0.00     0.007 A 
HETATM   35  C   UNL     1      40.101 -15.465   1.169  1.00  0.00     0.010 A 
ENDBRANCH   1  29
TORSDOF 6
ENDMDL
MODEL 9
REMARK VINA RESULT:      -8.5     17.209     19.196
REMARK  6 active torsions:
REMARK  status: ('A' for Active; 'I' for Inactive)
REMARK    1  A    between atoms: C_5  and  C_6 
REMARK    2  A    between atoms: C_11  and  C_12 
REMARK       I    between atoms: C_12  and  N_13 
REMARK    3  A    between atoms: N_13  and  C_14 
REMARK    4  A    between atoms: C_16  and  C_17 
REMARK    5  A    between atoms: C_17  and  O_18 
REMARK    6  A    between atoms: C_25  and  C_26 
ROOT
HETATM    1  C   UNL     1      46.066 -30.304  -3.460  1.00  0.00     0.118 C 
HETATM    2  N   UNL     1      45.460 -31.127  -2.408  1.00  0.00    -0.366 N 
HETATM    3  C   UNL     1      44.814 -30.580  -1.358  1.00  0.00     0.123 A 
HETATM    4  N   UNL     1      45.012 -29.274  -1.013  1.00  0.00    -0.240 N 
HETATM    5  N   UNL     1      44.191 -28.830  -0.043  1.00  0.00    -0.165 NA
HETATM    6  C   UNL     1      43.492 -29.939   0.301  1.00  0.00     0.148 A 
HETATM    7  C   UNL     1      43.890 -31.066  -0.474  1.00  0.00     0.089 A 
HETATM    8  C   UNL     1      45.880 -28.392  -1.766  1.00  0.00     0.221 C 
HETATM    9  C   UNL     1      45.814 -28.795  -3.246  1.00  0.00     0.066 C 
HETATM   10  H   UNL     1      45.285 -32.096  -2.676  1.00  0.00     0.161 HD
ENDROOT
BRANCH   6  11
HETATM   11  C   UNL     1      42.421 -29.910   1.312  1.00  0.00     0.276 C 
HETATM   12  N   UNL     1      42.276 -31.130   1.943  1.00  0.00    -0.322 N 
HETATM   13  H   UNL     1      42.880 -31.856   1.562  1.00  0.00     0.169 HD
HETATM   14  O   UNL     1      41.780 -28.888   1.533  1.00  0.00    -0.266 OA
BRANCH  12  15
HETATM   15  C   UNL     1      41.445 -31.460   3.025  1.00  0.00     0.035 A 
HETATM   16  C   UNL     1      40.246 -32.165   2.897  1.00  0.00     0.039 A 
HETATM   17  C   UNL     1      39.441 -32.446   4.016  1.00  0.00    -0.028 A 
HETATM   18  C   UNL     1      39.870 -32.017   5.278  1.00  0.00     0.010 A 
HETATM   19  C   UNL     1      41.064 -31.311   5.416  1.00  0.00     0.003 A 
HETATM   20  C   UNL     1      41.845 -31.029   4.295  1.00  0.00     0.029 A 
BRANCH  17  21
HETATM   21  C   UNL     1      38.151 -33.216   3.824  1.00  0.00     0.147 C 
HETATM   22  C   UNL     1      38.287 -34.661   4.289  1.00  0.00     0.044 C 
BRANCH  21  23
HETATM   23  O   UNL     1      37.082 -32.597   4.541  1.00  0.00    -0.391 OA
HETATM   24  H   UNL     1      37.069 -31.663   4.276  1.00  0.00     0.210 HD
ENDBRANCH  21  23
ENDBRANCH  17  21
ENDBRANCH  12  15
ENDBRANCH   6  11
BRANCH   8  25
HETATM   25  C   UNL     1      47.283 -28.430  -1.206  1.00  0.00     0.409 C 
HETATM   26  F   UNL     1      47.574 -27.330  -0.478  1.00  0.00    -0.169 F 
HETATM   27  F   UNL     1      47.535 -29.511  -0.441  1.00  0.00    -0.169 F 
HETATM   28  F   UNL     1      48.180 -28.464  -2.228  1.00  0.00    -0.169 F 
ENDBRANCH   8  25
BRANCH   1  29
HETATM   29  C   UNL     1      45.524 -30.741  -4.811  1.00  0.00    -0.035 A 
HETATM   30  C   UNL     1      46.248 -31.627  -5.629  1.00  0.00     0.010 A 
HETATM   31  C   UNL     1      45.744 -32.039  -6.863  1.00  0.00     0.007 A 
HETATM   32  C   UNL     1      44.507 -31.571  -7.312  1.00  0.00    -0.062 A 
HETATM   33  C   UNL     1      43.950 -32.040  -8.624  1.00  0.00     0.048 C 
HETATM   34  C   UNL     1      43.770 -30.705  -6.494  1.00  0.00     0.007 A 
HETATM   35  C   UNL     1      44.274 -30.290  -5.258  1.00  0.00     0.010 A 
ENDBRANCH   1  29
TORSDOF 6
ENDMDL
MODEL 10
REMARK VINA RESULT:      -8.4      4.869      7.963
REMARK  6 active torsions:
REMARK  status: ('A' for Active; 'I' for Inactive)
REMARK    1  A    between atoms: C_5  and  C_6 
REMARK    2  A    between atoms: C_11  and  C_12 
REMARK       I    between atoms: C_12  and  N_13 
REMARK    3  A    between atoms: N_13  and  C_14 
REMARK    4  A    between atoms: C_16  and  C_17 
REMARK    5  A    between atoms: C_17  and  O_18 
REMARK    6  A    between atoms: C_25  and  C_26 
ROOT
HETATM    1  C   UNL     1      42.140 -15.094   4.425  1.00  0.00     0.118 C 
HETATM    2  N   UNL     1      40.988 -14.606   3.659  1.00  0.00    -0.366 N 
HETATM    3  C   UNL     1      40.981 -13.389   3.079  1.00  0.00     0.123 A 
HETATM    4  N   UNL     1      41.851 -12.415   3.477  1.00  0.00    -0.240 N 
HETATM    5  N   UNL     1      41.830 -11.309   2.710  1.00  0.00    -0.165 NA
HETATM    6  C   UNL     1      40.833 -11.566   1.828  1.00  0.00     0.148 A 
HETATM    7  C   UNL     1      40.249 -12.844   2.060  1.00  0.00     0.089 A 
HETATM    8  C   UNL     1      42.852 -12.635   4.501  1.00  0.00     0.221 C 
HETATM    9  C   UNL     1      43.318 -14.095   4.418  1.00  0.00     0.066 C 
HETATM   10  H   UNL     1      40.353 -15.337   3.336  1.00  0.00     0.161 HD
ENDROOT
BRANCH   6  11
HETATM   11  C   UNL     1      40.483 -10.631   0.744  1.00  0.00     0.276 C 
HETATM   12  N   UNL     1      41.511 -10.496  -0.170  1.00  0.00    -0.322 N 
HETATM   13  H   UNL     1      42.352 -11.007   0.090  1.00  0.00     0.169 HD
HETATM   14  O   UNL     1      39.389 -10.081   0.704  1.00  0.00    -0.266 OA
BRANCH  12  15
HETATM   15  C   UNL     1      41.513  -9.787  -1.382  1.00  0.00     0.035 A 
HETATM   16  C   UNL     1      42.136  -8.549  -1.556  1.00  0.00     0.039 A 
HETATM   17  C   UNL     1      42.084  -7.873  -2.788  1.00  0.00    -0.028 A 
HETATM   18  C   UNL     1      41.405  -8.472  -3.857  1.00  0.00     0.010 A 
HETATM   19  C   UNL     1      40.778  -9.707  -3.692  1.00  0.00     0.003 A 
HETATM   20  C   UNL     1      40.827 -10.359  -2.459  1.00  0.00     0.029 A 
BRANCH  17  21
HETATM   21  C   UNL     1      42.778  -6.534  -2.927  1.00  0.00     0.147 C 
HETATM   22  C   UNL     1      43.763  -6.292  -1.789  1.00  0.00     0.044 C 
BRANCH  21  23
HETATM   23  O   UNL     1      43.477  -6.453  -4.169  1.00  0.00    -0.391 OA
HETATM   24  H   UNL     1      43.624  -5.510  -4.348  1.00  0.00     0.210 HD
ENDBRANCH  21  23
ENDBRANCH  17  21
ENDBRANCH  12  15
ENDBRANCH   6  11
BRANCH   8  25
HETATM   25  C   UNL     1      42.303 -12.268   5.860  1.00  0.00     0.409 C 
HETATM   26  F   UNL     1      42.586 -10.991   6.199  1.00  0.00    -0.169 F 
HETATM   27  F   UNL     1      40.971 -12.441   5.976  1.00  0.00    -0.169 F 
HETATM   28  F   UNL     1      42.876 -13.055   6.810  1.00  0.00    -0.169 F 
ENDBRANCH   8  25
BRANCH   1  29
HETATM   29  C   UNL     1      42.583 -16.434   3.862  1.00  0.00    -0.035 A 
HETATM   30  C   UNL     1      42.061 -16.917   2.648  1.00  0.00     0.010 A 
HETATM   31  C   UNL     1      42.478 -18.142   2.124  1.00  0.00     0.007 A 
HETATM   32  C   UNL     1      43.422 -18.915   2.803  1.00  0.00    -0.062 A 
HETATM   33  C   UNL     1      43.895 -20.215   2.223  1.00  0.00     0.048 C 
HETATM   34  C   UNL     1      43.963 -18.431   4.001  1.00  0.00     0.007 A 
HETATM   35  C   UNL     1      43.545 -17.205   4.529  1.00  0.00     0.010 A 
ENDBRANCH   1  29
TORSDOF 6
ENDMDL
