MODEL 1
REMARK VINA RESULT:      -8.8      0.000      0.000
REMARK  5 active torsions:
REMARK  status: ('A' for Active; 'I' for Inactive)
REMARK    1  A    between atoms: C_2  and  C_3 
REMARK       I    between atoms: C_3  and  N_4 
REMARK    2  A    between atoms: N_4  and  N_5 
REMARK       I    between atoms: N_5  and  C_6 
REMARK       I    between atoms: C_6  and  N_7 
REMARK    3  A    between atoms: N_7  and  C_8 
REMARK    4  A    between atoms: C_18  and  N_19 
REMARK       I    between atoms: N_19  and  C_20 
REMARK       I    between atoms: C_20  and  N_21 
REMARK    5  A    between atoms: N_21  and  C_22 
ROOT
HETATM    1  C   UNL     1      42.888 -10.013   7.069  1.00  0.00     0.019 A 
HETATM    2  C   UNL     1      44.108  -9.770   7.709  1.00  0.00     0.033 A 
HETATM    3  C   UNL     1      45.123 -10.729   7.630  1.00  0.00     0.019 A 
HETATM    4  C   UNL     1      44.921 -11.910   6.900  1.00  0.00     0.030 A 
HETATM    5  C   UNL     1      43.713 -12.138   6.236  1.00  0.00     0.036 A 
HETATM    6  C   UNL     1      42.693 -11.186   6.339  1.00  0.00     0.030 A 
ENDROOT
BRANCH   2   7
HETATM    7  C   UNL     1      44.285  -8.458   8.389  1.00  0.00     0.270 C 
HETATM    8  N   UNL     1      43.163  -7.880   8.961  1.00  0.00    -0.262 N 
HETATM    9  H   UNL     1      42.244  -8.106   8.591  1.00  0.00     0.190 HD
HETATM   10  O   UNL     1      45.388  -7.915   8.402  1.00  0.00    -0.266 OA
BRANCH   8  11
HETATM   11  N   UNL     1      43.334  -6.556   9.401  1.00  0.00    -0.249 N 
HETATM   12  C   UNL     1      42.705  -6.029  10.500  1.00  0.00     0.335 C 
HETATM   13  N   UNL     1      42.101  -6.968  11.289  1.00  0.00    -0.337 N 
HETATM   14  O   UNL     1      42.706  -4.823  10.697  1.00  0.00    -0.246 OA
HETATM   15  H   UNL     1      42.569  -7.861  11.218  1.00  0.00     0.164 HD
HETATM   16  H   UNL     1      43.818  -5.918   8.771  1.00  0.00     0.192 HD
BRANCH  13  17
HETATM   17  C   UNL     1      41.392  -6.721  12.544  1.00  0.00     0.086 C 
HETATM   18  C   UNL     1      40.461  -7.868  12.960  1.00  0.00     0.025 C 
HETATM   19  C   UNL     1      41.097  -8.909  13.872  1.00  0.00     0.002 C 
HETATM   20  C   UNL     1      41.797  -8.266  15.063  1.00  0.00     0.000 C 
HETATM   21  C   UNL     1      42.845  -7.251  14.627  1.00  0.00     0.002 C 
HETATM   22  C   UNL     1      42.278  -6.193  13.683  1.00  0.00     0.025 C 
ENDBRANCH  13  17
ENDBRANCH   8  11
ENDBRANCH   2   7
BRANCH   5  23
HETATM   23  N   UNL     1      43.474 -13.237   5.389  1.00  0.00    -0.309 N 
HETATM   24  C   UNL     1      42.673 -14.334   5.631  1.00  0.00     0.321 C 
HETATM   25  N   UNL     1      42.965 -15.344   4.734  1.00  0.00    -0.338 N 
HETATM   26  O   UNL     1      41.855 -14.444   6.533  1.00  0.00    -0.247 OA
HETATM   27  H   UNL     1      43.321 -15.033   3.845  1.00  0.00     0.164 HD
HETATM   28  H   UNL     1      43.968 -13.236   4.512  1.00  0.00     0.170 HD
BRANCH  25  29
HETATM   29  C   UNL     1      42.295 -16.647   4.718  1.00  0.00     0.086 C 
HETATM   30  C   UNL     1      41.977 -17.027   3.260  1.00  0.00     0.025 C 
HETATM   31  C   UNL     1      43.242 -17.353   2.460  1.00  0.00     0.002 C 
HETATM   32  C   UNL     1      44.077 -18.439   3.134  1.00  0.00     0.000 C 
HETATM   33  C   UNL     1      44.380 -18.106   4.592  1.00  0.00     0.002 C 
HETATM   34  C   UNL     1      43.105 -17.782   5.367  1.00  0.00     0.025 C 
ENDBRANCH  25  29
ENDBRANCH   5  23
TORSDOF 5
ENDMDL
MODEL 2
REMARK VINA RESULT:      -8.8      5.127      8.935
REMARK  5 active torsions:
REMARK  status: ('A' for Active; 'I' for Inactive)
REMARK    1  A    between atoms: C_2  and  C_3 
REMARK       I    between atoms: C_3  and  N_4 
REMARK    2  A    between atoms: N_4  and  N_5 
REMARK       I    between atoms: N_5  and  C_6 
REMARK       I    between atoms: C_6  and  N_7 
REMARK    3  A    between atoms: N_7  and  C_8 
REMARK    4  A    between atoms: C_18  and  N_19 
REMARK       I    between atoms: N_19  and  C_20 
REMARK       I    between atoms: C_20  and  N_21 
REMARK    5  A    between atoms: N_21  and  C_22 
ROOT
HETATM    1  C   UNL     1      42.447  -6.893  15.087  1.00  0.00     0.019 A 
HETATM    2  C   UNL     1      41.333  -7.651  15.462  1.00  0.00     0.033 A 
HETATM    3  C   UNL     1      40.936  -8.724  14.659  1.00  0.00     0.019 A 
HETATM    4  C   UNL     1      41.661  -9.043  13.500  1.00  0.00     0.030 A 
HETATM    5  C   UNL     1      42.791  -8.304  13.143  1.00  0.00     0.036 A 
HETATM    6  C   UNL     1      43.169  -7.217  13.938  1.00  0.00     0.030 A 
ENDROOT
BRANCH   2   7
HETATM    7  C   UNL     1      40.665  -7.313  16.749  1.00  0.00     0.270 C 
HETATM    8  N   UNL     1      40.608  -8.303  17.717  1.00  0.00    -0.262 N 
HETATM    9  H   UNL     1      40.632  -9.278  17.433  1.00  0.00     0.190 HD
HETATM   10  O   UNL     1      40.165  -6.201  16.909  1.00  0.00    -0.266 OA
BRANCH   8  11
HETATM   11  N   UNL     1      39.790  -8.009  18.823  1.00  0.00    -0.249 N 
HETATM   12  C   UNL     1      39.821  -8.706  20.003  1.00  0.00     0.335 C 
HETATM   13  N   UNL     1      40.895  -9.544  20.116  1.00  0.00    -0.337 N 
HETATM   14  O   UNL     1      38.936  -8.560  20.833  1.00  0.00    -0.246 OA
HETATM   15  H   UNL     1      41.683  -9.204  19.584  1.00  0.00     0.164 HD
HETATM   16  H   UNL     1      39.026  -7.353  18.669  1.00  0.00     0.192 HD
BRANCH  13  17
HETATM   17  C   UNL     1      41.223 -10.382  21.269  1.00  0.00     0.086 C 
HETATM   18  C   UNL     1      42.169 -11.544  20.935  1.00  0.00     0.025 C 
HETATM   19  C   UNL     1      43.650 -11.235  21.117  1.00  0.00     0.002 C 
HETATM   20  C   UNL     1      43.937 -10.624  22.482  1.00  0.00     0.000 C 
HETATM   21  C   UNL     1      43.113  -9.368  22.728  1.00  0.00     0.002 C 
HETATM   22  C   UNL     1      41.617  -9.602  22.533  1.00  0.00     0.025 C 
ENDBRANCH  13  17
ENDBRANCH   8  11
ENDBRANCH   2   7
BRANCH   5  23
HETATM   23  N   UNL     1      43.639  -8.630  12.067  1.00  0.00    -0.309 N 
HETATM   24  C   UNL     1      43.586  -8.155  10.773  1.00  0.00     0.321 C 
HETATM   25  N   UNL     1      44.344  -8.955   9.941  1.00  0.00    -0.338 N 
HETATM   26  O   UNL     1      42.931  -7.200  10.383  1.00  0.00    -0.247 OA
HETATM   27  H   UNL     1      45.115  -9.424  10.387  1.00  0.00     0.164 HD
HETATM   28  H   UNL     1      44.353  -9.314  12.258  1.00  0.00     0.170 HD
BRANCH  25  29
HETATM   29  C   UNL     1      44.499  -8.729   8.501  1.00  0.00     0.086 C 
HETATM   30  C   UNL     1      45.934  -9.104   8.088  1.00  0.00     0.025 C 
HETATM   31  C   UNL     1      46.180 -10.614   8.162  1.00  0.00     0.002 C 
HETATM   32  C   UNL     1      45.159 -11.397   7.341  1.00  0.00     0.000 C 
HETATM   33  C   UNL     1      43.725 -11.022   7.704  1.00  0.00     0.002 C 
HETATM   34  C   UNL     1      43.506  -9.512   7.627  1.00  0.00     0.025 C 
ENDBRANCH  25  29
ENDBRANCH   5  23
TORSDOF 5
ENDMDL
MODEL 3
REMARK VINA RESULT:      -8.2      7.327     10.337
REMARK  5 active torsions:
REMARK  status: ('A' for Active; 'I' for Inactive)
REMARK    1  A    between atoms: C_2  and  C_3 
REMARK       I    between atoms: C_3  and  N_4 
REMARK    2  A    between atoms: N_4  and  N_5 
REMARK       I    between atoms: N_5  and  C_6 
REMARK       I    between atoms: C_6  and  N_7 
REMARK    3  A    between atoms: N_7  and  C_8 
REMARK    4  A    between atoms: C_18  and  N_19 
REMARK       I    between atoms: N_19  and  C_20 
REMARK       I    between atoms: C_20  and  N_21 
REMARK    5  A    between atoms: N_21  and  C_22 
ROOT
HETATM    1  C   UNL     1      39.540 -14.029   2.568  1.00  0.00     0.019 A 
HETATM    2  C   UNL     1      39.353 -12.879   3.342  1.00  0.00     0.033 A 
HETATM    3  C   UNL     1      39.860 -12.842   4.644  1.00  0.00     0.019 A 
HETATM    4  C   UNL     1      40.565 -13.942   5.157  1.00  0.00     0.030 A 
HETATM    5  C   UNL     1      40.779 -15.078   4.373  1.00  0.00     0.036 A 
HETATM    6  C   UNL     1      40.247 -15.118   3.080  1.00  0.00     0.030 A 
ENDROOT
BRANCH   2   7
HETATM    7  C   UNL     1      38.675 -11.717   2.704  1.00  0.00     0.270 C 
HETATM    8  N   UNL     1      37.468 -11.955   2.065  1.00  0.00    -0.262 N 
HETATM    9  H   UNL     1      37.275 -12.882   1.697  1.00  0.00     0.190 HD
HETATM   10  O   UNL     1      39.202 -10.607   2.730  1.00  0.00    -0.266 OA
BRANCH   8  11
HETATM   11  N   UNL     1      36.976 -10.881   1.303  1.00  0.00    -0.249 N 
HETATM   12  C   UNL     1      37.164 -10.754  -0.049  1.00  0.00     0.335 C 
HETATM   13  N   UNL     1      37.642 -11.888  -0.645  1.00  0.00    -0.337 N 
HETATM   14  O   UNL     1      36.921  -9.698  -0.613  1.00  0.00    -0.246 OA
HETATM   15  H   UNL     1      37.357 -12.715  -0.139  1.00  0.00     0.164 HD
HETATM   16  H   UNL     1      36.608 -10.081   1.816  1.00  0.00     0.192 HD
BRANCH  13  17
HETATM   17  C   UNL     1      37.902 -12.075  -2.072  1.00  0.00     0.086 C 
HETATM   18  C   UNL     1      39.263 -11.531  -2.526  1.00  0.00     0.025 C 
HETATM   19  C   UNL     1      40.400 -12.545  -2.492  1.00  0.00     0.002 C 
HETATM   20  C   UNL     1      40.025 -13.839  -3.201  1.00  0.00     0.000 C 
HETATM   21  C   UNL     1      38.761 -14.460  -2.621  1.00  0.00     0.002 C 
HETATM   22  C   UNL     1      37.587 -13.485  -2.598  1.00  0.00     0.025 C 
ENDBRANCH  13  17
ENDBRANCH   8  11
ENDBRANCH   2   7
BRANCH   5  23
HETATM   23  N   UNL     1      41.573 -16.171   4.768  1.00  0.00    -0.309 N 
HETATM   24  C   UNL     1      42.848 -16.487   4.346  1.00  0.00     0.321 C 
HETATM   25  N   UNL     1      43.149 -17.794   4.680  1.00  0.00    -0.338 N 
HETATM   26  O   UNL     1      43.602 -15.756   3.722  1.00  0.00    -0.247 OA
HETATM   27  H   UNL     1      42.670 -18.147   5.492  1.00  0.00     0.164 HD
HETATM   28  H   UNL     1      41.149 -16.815   5.415  1.00  0.00     0.170 HD
BRANCH  25  29
HETATM   29  C   UNL     1      44.425 -18.447   4.375  1.00  0.00     0.086 C 
HETATM   30  C   UNL     1      44.538 -19.737   5.207  1.00  0.00     0.025 C 
HETATM   31  C   UNL     1      43.554 -20.813   4.738  1.00  0.00     0.002 C 
HETATM   32  C   UNL     1      43.707 -21.114   3.250  1.00  0.00     0.000 C 
HETATM   33  C   UNL     1      43.634 -19.848   2.400  1.00  0.00     0.002 C 
HETATM   34  C   UNL     1      44.620 -18.790   2.889  1.00  0.00     0.025 C 
ENDBRANCH  25  29
ENDBRANCH   5  23
TORSDOF 5
ENDMDL
MODEL 4
REMARK VINA RESULT:      -8.2     20.132     22.471
REMARK  5 active torsions:
REMARK  status: ('A' for Active; 'I' for Inactive)
REMARK    1  A    between atoms: C_2  and  C_3 
REMARK       I    between atoms: C_3  and  N_4 
REMARK    2  A    between atoms: N_4  and  N_5 
REMARK       I    between atoms: N_5  and  C_6 
REMARK       I    between atoms: C_6  and  N_7 
REMARK    3  A    between atoms: N_7  and  C_8 
REMARK    4  A    between atoms: C_18  and  N_19 
REMARK       I    between atoms: N_19  and  C_20 
REMARK       I    between atoms: C_20  and  N_21 
REMARK    5  A    between atoms: N_21  and  C_22 
ROOT
HETATM    1  C   UNL     1      42.912 -29.746   1.934  1.00  0.00     0.019 A 
HETATM    2  C   UNL     1      44.045 -30.258   2.574  1.00  0.00     0.033 A 
HETATM    3  C   UNL     1      43.903 -31.334   3.457  1.00  0.00     0.019 A 
HETATM    4  C   UNL     1      42.638 -31.900   3.679  1.00  0.00     0.030 A 
HETATM    5  C   UNL     1      41.512 -31.407   3.016  1.00  0.00     0.036 A 
HETATM    6  C   UNL     1      41.657 -30.315   2.154  1.00  0.00     0.030 A 
ENDROOT
BRANCH   2   7
HETATM    7  C   UNL     1      45.366 -29.668   2.223  1.00  0.00     0.270 C 
HETATM    8  N   UNL     1      45.365 -28.497   1.483  1.00  0.00    -0.262 N 
HETATM    9  H   UNL     1      44.574 -28.291   0.879  1.00  0.00     0.190 HD
HETATM   10  O   UNL     1      46.403 -30.235   2.563  1.00  0.00    -0.266 OA
BRANCH   8  11
HETATM   11  N   UNL     1      46.622 -28.096   0.999  1.00  0.00    -0.249 N 
HETATM   12  C   UNL     1      47.020 -28.239  -0.305  1.00  0.00     0.335 C 
HETATM   13  N   UNL     1      46.000 -28.559  -1.157  1.00  0.00    -0.337 N 
HETATM   14  O   UNL     1      48.193 -28.093  -0.616  1.00  0.00    -0.246 OA
HETATM   15  H   UNL     1      45.116 -28.205  -0.820  1.00  0.00     0.164 HD
HETATM   16  H   UNL     1      47.325 -27.844   1.693  1.00  0.00     0.192 HD
BRANCH  13  17
HETATM   17  C   UNL     1      46.102 -28.734  -2.606  1.00  0.00     0.086 C 
HETATM   18  C   UNL     1      46.563 -30.137  -3.025  1.00  0.00     0.025 C 
HETATM   19  C   UNL     1      45.437 -31.129  -3.286  1.00  0.00     0.002 C 
HETATM   20  C   UNL     1      44.385 -30.556  -4.227  1.00  0.00     0.000 C 
HETATM   21  C   UNL     1      43.810 -29.246  -3.708  1.00  0.00     0.002 C 
HETATM   22  C   UNL     1      44.892 -28.214  -3.397  1.00  0.00     0.025 C 
ENDBRANCH  13  17
ENDBRANCH   8  11
ENDBRANCH   2   7
BRANCH   5  23
HETATM   23  N   UNL     1      40.233 -31.991   3.093  1.00  0.00    -0.309 N 
HETATM   24  C   UNL     1      39.434 -32.137   4.208  1.00  0.00     0.321 C 
HETATM   25  N   UNL     1      38.430 -33.052   3.958  1.00  0.00    -0.338 N 
HETATM   26  O   UNL     1      39.598 -31.588   5.288  1.00  0.00    -0.247 OA
HETATM   27  H   UNL     1      38.151 -33.124   2.993  1.00  0.00     0.164 HD
HETATM   28  H   UNL     1      39.869 -32.373   2.236  1.00  0.00     0.170 HD
BRANCH  25  29
HETATM   29  C   UNL     1      37.410 -33.440   4.935  1.00  0.00     0.086 C 
HETATM   30  C   UNL     1      36.021 -33.078   4.378  1.00  0.00     0.025 C 
HETATM   31  C   UNL     1      35.625 -33.966   3.194  1.00  0.00     0.002 C 
HETATM   32  C   UNL     1      35.698 -35.449   3.547  1.00  0.00     0.000 C 
HETATM   33  C   UNL     1      37.053 -35.832   4.135  1.00  0.00     0.002 C 
HETATM   34  C   UNL     1      37.426 -34.931   5.310  1.00  0.00     0.025 C 
ENDBRANCH  25  29
ENDBRANCH   5  23
TORSDOF 5
ENDMDL
MODEL 5
REMARK VINA RESULT:      -8.1      3.071      4.387
REMARK  5 active torsions:
REMARK  status: ('A' for Active; 'I' for Inactive)
REMARK    1  A    between atoms: C_2  and  C_3 
REMARK       I    between atoms: C_3  and  N_4 
REMARK    2  A    between atoms: N_4  and  N_5 
REMARK       I    between atoms: N_5  and  C_6 
REMARK       I    between atoms: C_6  and  N_7 
REMARK    3  A    between atoms: N_7  and  C_8 
REMARK    4  A    between atoms: C_18  and  N_19 
REMARK       I    between atoms: N_19  and  C_20 
REMARK       I    between atoms: C_20  and  N_21 
REMARK    5  A    between atoms: N_21  and  C_22 
ROOT
HETATM    1  C   UNL     1      40.901 -12.611   4.432  1.00  0.00     0.019 A 
HETATM    2  C   UNL     1      40.325 -12.505   5.703  1.00  0.00     0.033 A 
HETATM    3  C   UNL     1      40.081 -13.667   6.441  1.00  0.00     0.019 A 
HETATM    4  C   UNL     1      40.428 -14.922   5.916  1.00  0.00     0.030 A 
HETATM    5  C   UNL     1      41.031 -15.024   4.660  1.00  0.00     0.036 A 
HETATM    6  C   UNL     1      41.250 -13.860   3.916  1.00  0.00     0.030 A 
ENDROOT
BRANCH   2   7
HETATM    7  C   UNL     1      40.065 -11.139   6.234  1.00  0.00     0.270 C 
HETATM    8  N   UNL     1      39.730 -11.029   7.574  1.00  0.00    -0.262 N 
HETATM    9  H   UNL     1      39.289 -11.816   8.043  1.00  0.00     0.190 HD
HETATM   10  O   UNL     1      40.122 -10.166   5.485  1.00  0.00    -0.266 OA
BRANCH   8  11
HETATM   11  N   UNL     1      39.291  -9.756   7.976  1.00  0.00    -0.249 N 
HETATM   12  C   UNL     1      39.927  -8.990   8.920  1.00  0.00     0.335 C 
HETATM   13  N   UNL     1      41.172  -9.449   9.249  1.00  0.00    -0.337 N 
HETATM   14  O   UNL     1      39.378  -8.007   9.395  1.00  0.00    -0.246 OA
HETATM   15  H   UNL     1      41.593  -9.951   8.480  1.00  0.00     0.164 HD
HETATM   16  H   UNL     1      38.362  -9.469   7.669  1.00  0.00     0.192 HD
BRANCH  13  17
HETATM   17  C   UNL     1      42.106  -8.827  10.187  1.00  0.00     0.086 C 
HETATM   18  C   UNL     1      42.546  -9.758  11.325  1.00  0.00     0.025 C 
HETATM   19  C   UNL     1      43.819 -10.549  11.048  1.00  0.00     0.002 C 
HETATM   20  C   UNL     1      44.948  -9.651  10.560  1.00  0.00     0.000 C 
HETATM   21  C   UNL     1      44.551  -8.860   9.322  1.00  0.00     0.002 C 
HETATM   22  C   UNL     1      43.263  -8.065   9.522  1.00  0.00     0.025 C 
ENDBRANCH  13  17
ENDBRANCH   8  11
ENDBRANCH   2   7
BRANCH   5  23
HETATM   23  N   UNL     1      41.516 -16.228   4.114  1.00  0.00    -0.309 N 
HETATM   24  C   UNL     1      42.820 -16.676   4.076  1.00  0.00     0.321 C 
HETATM   25  N   UNL     1      42.943 -17.709   3.167  1.00  0.00    -0.338 N 
HETATM   26  O   UNL     1      43.759 -16.212   4.706  1.00  0.00    -0.247 OA
HETATM   27  H   UNL     1      42.106 -18.252   3.024  1.00  0.00     0.164 HD
HETATM   28  H   UNL     1      40.832 -16.820   3.671  1.00  0.00     0.170 HD
BRANCH  25  29
HETATM   29  C   UNL     1      44.198 -18.409   2.883  1.00  0.00     0.086 C 
HETATM   30  C   UNL     1      44.826 -18.868   4.212  1.00  0.00     0.025 C 
HETATM   31  C   UNL     1      44.022 -19.993   4.871  1.00  0.00     0.002 C 
HETATM   32  C   UNL     1      43.822 -21.177   3.929  1.00  0.00     0.000 C 
HETATM   33  C   UNL     1      43.233 -20.748   2.588  1.00  0.00     0.002 C 
HETATM   34  C   UNL     1      44.049 -19.625   1.953  1.00  0.00     0.025 C 
ENDBRANCH  25  29
ENDBRANCH   5  23
TORSDOF 5
ENDMDL
MODEL 6
REMARK VINA RESULT:      -8.1      4.896      6.106
REMARK  5 active torsions:
REMARK  status: ('A' for Active; 'I' for Inactive)
REMARK    1  A    between atoms: C_2  and  C_3 
REMARK       I    between atoms: C_3  and  N_4 
REMARK    2  A    between atoms: N_4  and  N_5 
REMARK       I    between atoms: N_5  and  C_6 
REMARK       I    between atoms: C_6  and  N_7 
REMARK    3  A    between atoms: N_7  and  C_8 
REMARK    4  A    between atoms: C_18  and  N_19 
REMARK       I    between atoms: N_19  and  C_20 
REMARK       I    between atoms: C_20  and  N_21 
REMARK    5  A    between atoms: N_21  and  C_22 
ROOT
HETATM    1  C   UNL     1      39.512 -11.868   5.969  1.00  0.00     0.019 A 
HETATM    2  C   UNL     1      39.133 -10.523   6.015  1.00  0.00     0.033 A 
HETATM    3  C   UNL     1      38.749  -9.881   4.833  1.00  0.00     0.019 A 
HETATM    4  C   UNL     1      38.729 -10.589   3.621  1.00  0.00     0.030 A 
HETATM    5  C   UNL     1      39.078 -11.941   3.582  1.00  0.00     0.036 A 
HETATM    6  C   UNL     1      39.485 -12.571   4.763  1.00  0.00     0.030 A 
ENDROOT
BRANCH   2   7
HETATM    7  C   UNL     1      39.092  -9.859   7.347  1.00  0.00     0.270 C 
HETATM    8  N   UNL     1      39.489 -10.607   8.444  1.00  0.00    -0.262 N 
HETATM    9  H   UNL     1      39.408 -11.619   8.411  1.00  0.00     0.190 HD
HETATM   10  O   UNL     1      38.688  -8.702   7.446  1.00  0.00    -0.266 OA
BRANCH   8  11
HETATM   11  N   UNL     1      39.235 -10.014   9.693  1.00  0.00    -0.249 N 
HETATM   12  C   UNL     1      40.207  -9.471  10.493  1.00  0.00     0.335 C 
HETATM   13  N   UNL     1      41.410  -9.314   9.864  1.00  0.00    -0.337 N 
HETATM   14  O   UNL     1      39.965  -9.185  11.656  1.00  0.00    -0.246 OA
HETATM   15  H   UNL     1      41.289  -9.182   8.869  1.00  0.00     0.164 HD
HETATM   16  H   UNL     1      38.305 -10.150  10.087  1.00  0.00     0.192 HD
BRANCH  13  17
HETATM   17  C   UNL     1      42.620  -8.725  10.439  1.00  0.00     0.086 C 
HETATM   18  C   UNL     1      43.458  -9.719  11.254  1.00  0.00     0.025 C 
HETATM   19  C   UNL     1      44.545 -10.438  10.464  1.00  0.00     0.002 C 
HETATM   20  C   UNL     1      45.405  -9.464   9.670  1.00  0.00     0.000 C 
HETATM   21  C   UNL     1      44.570  -8.600   8.734  1.00  0.00     0.002 C 
HETATM   22  C   UNL     1      43.441  -7.873   9.459  1.00  0.00     0.025 C 
ENDBRANCH  13  17
ENDBRANCH   8  11
ENDBRANCH   2   7
BRANCH   5  23
HETATM   23  N   UNL     1      38.971 -12.750   2.434  1.00  0.00    -0.309 N 
HETATM   24  C   UNL     1      39.932 -12.987   1.473  1.00  0.00     0.321 C 
HETATM   25  N   UNL     1      39.351 -13.535   0.345  1.00  0.00    -0.338 N 
HETATM   26  O   UNL     1      41.120 -12.714   1.559  1.00  0.00    -0.247 OA
HETATM   27  H   UNL     1      38.512 -14.066   0.514  1.00  0.00     0.164 HD
HETATM   28  H   UNL     1      38.076 -13.185   2.282  1.00  0.00     0.170 HD
BRANCH  25  29
HETATM   29  C   UNL     1      40.092 -13.905  -0.863  1.00  0.00     0.086 C 
HETATM   30  C   UNL     1      39.161 -14.699  -1.798  1.00  0.00     0.025 C 
HETATM   31  C   UNL     1      38.064 -13.818  -2.402  1.00  0.00     0.002 C 
HETATM   32  C   UNL     1      38.642 -12.602  -3.119  1.00  0.00     0.000 C 
HETATM   33  C   UNL     1      39.597 -11.813  -2.229  1.00  0.00     0.002 C 
HETATM   34  C   UNL     1      40.679 -12.712  -1.636  1.00  0.00     0.025 C 
ENDBRANCH  25  29
ENDBRANCH   5  23
TORSDOF 5
ENDMDL
MODEL 7
REMARK VINA RESULT:      -8.0      5.101     11.010
REMARK  5 active torsions:
REMARK  status: ('A' for Active; 'I' for Inactive)
REMARK    1  A    between atoms: C_2  and  C_3 
REMARK       I    between atoms: C_3  and  N_4 
REMARK    2  A    between atoms: N_4  and  N_5 
REMARK       I    between atoms: N_5  and  C_6 
REMARK       I    between atoms: C_6  and  N_7 
REMARK    3  A    between atoms: N_7  and  C_8 
REMARK    4  A    between atoms: C_18  and  N_19 
REMARK       I    between atoms: N_19  and  C_20 
REMARK       I    between atoms: C_20  and  N_21 
REMARK    5  A    between atoms: N_21  and  C_22 
ROOT
HETATM    1  C   UNL     1      42.191 -12.384   3.404  1.00  0.00     0.019 A 
HETATM    2  C   UNL     1      42.373 -13.770   3.353  1.00  0.00     0.033 A 
HETATM    3  C   UNL     1      42.781 -14.448   4.507  1.00  0.00     0.019 A 
HETATM    4  C   UNL     1      42.984 -13.742   5.703  1.00  0.00     0.030 A 
HETATM    5  C   UNL     1      42.772 -12.363   5.761  1.00  0.00     0.036 A 
HETATM    6  C   UNL     1      42.389 -11.687   4.597  1.00  0.00     0.030 A 
ENDROOT
BRANCH   2   7
HETATM    7  C   UNL     1      42.053 -14.465   2.077  1.00  0.00     0.270 C 
HETATM    8  N   UNL     1      41.591 -13.688   1.026  1.00  0.00    -0.262 N 
HETATM    9  H   UNL     1      41.114 -12.813   1.227  1.00  0.00     0.190 HD
HETATM   10  O   UNL     1      42.172 -15.686   1.994  1.00  0.00    -0.266 OA
BRANCH   8  11
HETATM   11  N   UNL     1      41.105 -14.408  -0.079  1.00  0.00    -0.249 N 
HETATM   12  C   UNL     1      39.938 -14.107  -0.734  1.00  0.00     0.335 C 
HETATM   13  N   UNL     1      39.417 -12.890  -0.394  1.00  0.00    -0.337 N 
HETATM   14  O   UNL     1      39.451 -14.898  -1.528  1.00  0.00    -0.246 OA
HETATM   15  H   UNL     1      40.143 -12.248  -0.106  1.00  0.00     0.164 HD
HETATM   16  H   UNL     1      41.561 -15.294  -0.289  1.00  0.00     0.192 HD
BRANCH  13  17
HETATM   17  C   UNL     1      38.212 -12.275  -0.951  1.00  0.00     0.086 C 
HETATM   18  C   UNL     1      37.540 -11.272  -0.004  1.00  0.00     0.025 C 
HETATM   19  C   UNL     1      37.994  -9.828  -0.177  1.00  0.00     0.002 C 
HETATM   20  C   UNL     1      37.932  -9.386  -1.633  1.00  0.00     0.000 C 
HETATM   21  C   UNL     1      38.750 -10.296  -2.539  1.00  0.00     0.002 C 
HETATM   22  C   UNL     1      38.365 -11.766  -2.393  1.00  0.00     0.025 C 
ENDBRANCH  13  17
ENDBRANCH   8  11
ENDBRANCH   2   7
BRANCH   5  23
HETATM   23  N   UNL     1      42.839 -11.603   6.944  1.00  0.00    -0.309 N 
HETATM   24  C   UNL     1      43.921 -11.439   7.785  1.00  0.00     0.321 C 
HETATM   25  N   UNL     1      43.507 -10.924   8.998  1.00  0.00    -0.338 N 
HETATM   26  O   UNL     1      45.078 -11.744   7.537  1.00  0.00    -0.247 OA
HETATM   27  H   UNL     1      42.673 -10.361   8.959  1.00  0.00     0.164 HD
HETATM   28  H   UNL     1      41.987 -11.148   7.227  1.00  0.00     0.170 HD
BRANCH  25  29
HETATM   29  C   UNL     1      44.407 -10.632  10.116  1.00  0.00     0.086 C 
HETATM   30  C   UNL     1      44.814  -9.148  10.056  1.00  0.00     0.025 C 
HETATM   31  C   UNL     1      43.645  -8.216  10.387  1.00  0.00     0.002 C 
HETATM   32  C   UNL     1      43.016  -8.550  11.737  1.00  0.00     0.000 C 
HETATM   33  C   UNL     1      42.633 -10.023  11.840  1.00  0.00     0.002 C 
HETATM   34  C   UNL     1      43.813 -10.932  11.503  1.00  0.00     0.025 C 
ENDBRANCH  25  29
ENDBRANCH   5  23
TORSDOF 5
ENDMDL
MODEL 8
REMARK VINA RESULT:      -7.9      4.823      5.759
REMARK  5 active torsions:
REMARK  status: ('A' for Active; 'I' for Inactive)
REMARK    1  A    between atoms: C_2  and  C_3 
REMARK       I    between atoms: C_3  and  N_4 
REMARK    2  A    between atoms: N_4  and  N_5 
REMARK       I    between atoms: N_5  and  C_6 
REMARK       I    between atoms: C_6  and  N_7 
REMARK    3  A    between atoms: N_7  and  C_8 
REMARK    4  A    between atoms: C_18  and  N_19 
REMARK       I    between atoms: N_19  and  C_20 
REMARK       I    between atoms: C_20  and  N_21 
REMARK    5  A    between atoms: N_21  and  C_22 
ROOT
HETATM    1  C   UNL     1      39.570 -11.772   6.202  1.00  0.00     0.019 A 
HETATM    2  C   UNL     1      39.174 -10.433   6.284  1.00  0.00     0.033 A 
HETATM    3  C   UNL     1      38.760  -9.771   5.124  1.00  0.00     0.019 A 
HETATM    4  C   UNL     1      38.728 -10.452   3.897  1.00  0.00     0.030 A 
HETATM    5  C   UNL     1      39.095 -11.798   3.821  1.00  0.00     0.036 A 
HETATM    6  C   UNL     1      39.531 -12.448   4.981  1.00  0.00     0.030 A 
ENDROOT
BRANCH   2   7
HETATM    7  C   UNL     1      39.147  -9.800   7.631  1.00  0.00     0.270 C 
HETATM    8  N   UNL     1      39.328 -10.627   8.728  1.00  0.00    -0.262 N 
HETATM    9  H   UNL     1      39.079 -11.610   8.657  1.00  0.00     0.190 HD
HETATM   10  O   UNL     1      38.939  -8.593   7.740  1.00  0.00    -0.266 OA
BRANCH   8  11
HETATM   11  N   UNL     1      39.086 -10.025   9.975  1.00  0.00    -0.249 N 
HETATM   12  C   UNL     1      40.068  -9.736  10.888  1.00  0.00     0.335 C 
HETATM   13  N   UNL     1      41.333  -9.837  10.382  1.00  0.00    -0.337 N 
HETATM   14  O   UNL     1      39.778  -9.433  12.036  1.00  0.00    -0.246 OA
HETATM   15  H   UNL     1      41.346  -9.656   9.388  1.00  0.00     0.164 HD
HETATM   16  H   UNL     1      38.114  -9.958  10.275  1.00  0.00     0.192 HD
BRANCH  13  17
HETATM   17  C   UNL     1      42.578  -9.552  11.095  1.00  0.00     0.086 C 
HETATM   18  C   UNL     1      42.968  -8.068  11.082  1.00  0.00     0.025 C 
HETATM   19  C   UNL     1      42.454  -7.261  12.268  1.00  0.00     0.002 C 
HETATM   20  C   UNL     1      42.779  -7.937  13.594  1.00  0.00     0.000 C 
HETATM   21  C   UNL     1      42.233  -9.357  13.658  1.00  0.00     0.002 C 
HETATM   22  C   UNL     1      42.686 -10.213  12.478  1.00  0.00     0.025 C 
ENDBRANCH  13  17
ENDBRANCH   8  11
ENDBRANCH   2   7
BRANCH   5  23
HETATM   23  N   UNL     1      38.979 -12.583   2.658  1.00  0.00    -0.309 N 
HETATM   24  C   UNL     1      39.952 -12.852   1.718  1.00  0.00     0.321 C 
HETATM   25  N   UNL     1      39.375 -13.353   0.567  1.00  0.00    -0.338 N 
HETATM   26  O   UNL     1      41.149 -12.639   1.839  1.00  0.00    -0.247 OA
HETATM   27  H   UNL     1      38.508 -13.845   0.705  1.00  0.00     0.164 HD
HETATM   28  H   UNL     1      38.069 -12.971   2.476  1.00  0.00     0.170 HD
BRANCH  25  29
HETATM   29  C   UNL     1      40.129 -13.740  -0.628  1.00  0.00     0.086 C 
HETATM   30  C   UNL     1      39.212 -14.558  -1.556  1.00  0.00     0.025 C 
HETATM   31  C   UNL     1      38.113 -13.696  -2.185  1.00  0.00     0.002 C 
HETATM   32  C   UNL     1      38.689 -12.489  -2.921  1.00  0.00     0.000 C 
HETATM   33  C   UNL     1      39.632 -11.677  -2.037  1.00  0.00     0.002 C 
HETATM   34  C   UNL     1      40.715 -12.558  -1.418  1.00  0.00     0.025 C 
ENDBRANCH  25  29
ENDBRANCH   5  23
TORSDOF 5
ENDMDL
MODEL 9
REMARK VINA RESULT:      -7.8     20.016     24.705
REMARK  5 active torsions:
REMARK  status: ('A' for Active; 'I' for Inactive)
REMARK    1  A    between atoms: C_2  and  C_3 
REMARK       I    between atoms: C_3  and  N_4 
REMARK    2  A    between atoms: N_4  and  N_5 
REMARK       I    between atoms: N_5  and  C_6 
REMARK       I    between atoms: C_6  and  N_7 
REMARK    3  A    between atoms: N_7  and  C_8 
REMARK    4  A    between atoms: C_18  and  N_19 
REMARK       I    between atoms: N_19  and  C_20 
REMARK       I    between atoms: C_20  and  N_21 
REMARK    5  A    between atoms: N_21  and  C_22 
ROOT
HETATM    1  C   UNL     1      50.967 -30.640  -1.644  1.00  0.00     0.019 A 
HETATM    2  C   UNL     1      50.873 -31.201  -0.366  1.00  0.00     0.033 A 
HETATM    3  C   UNL     1      51.794 -32.180   0.019  1.00  0.00     0.019 A 
HETATM    4  C   UNL     1      52.811 -32.577  -0.863  1.00  0.00     0.030 A 
HETATM    5  C   UNL     1      52.923 -31.994  -2.128  1.00  0.00     0.036 A 
HETATM    6  C   UNL     1      51.983 -31.033  -2.516  1.00  0.00     0.030 A 
ENDROOT
BRANCH   2   7
HETATM    7  C   UNL     1      49.826 -30.669   0.549  1.00  0.00     0.270 C 
HETATM    8  N   UNL     1      49.308 -29.416   0.264  1.00  0.00    -0.262 N 
HETATM    9  H   UNL     1      49.873 -28.749  -0.254  1.00  0.00     0.190 HD
HETATM   10  O   UNL     1      49.477 -31.322   1.530  1.00  0.00    -0.266 OA
BRANCH   8  11
HETATM   11  N   UNL     1      48.485 -28.870   1.265  1.00  0.00    -0.249 N 
HETATM   12  C   UNL     1      47.169 -28.534   1.073  1.00  0.00     0.335 C 
HETATM   13  N   UNL     1      46.645 -29.016  -0.093  1.00  0.00    -0.337 N 
HETATM   14  O   UNL     1      46.576 -27.854   1.897  1.00  0.00    -0.246 OA
HETATM   15  H   UNL     1      47.109 -29.866  -0.380  1.00  0.00     0.164 HD
HETATM   16  H   UNL     1      48.943 -28.557   2.120  1.00  0.00     0.192 HD
BRANCH  13  17
HETATM   17  C   UNL     1      45.265 -28.861  -0.554  1.00  0.00     0.086 C 
HETATM   18  C   UNL     1      45.074 -27.705  -1.544  1.00  0.00     0.025 C 
HETATM   19  C   UNL     1      45.204 -28.092  -3.012  1.00  0.00     0.002 C 
HETATM   20  C   UNL     1      44.344 -29.301  -3.356  1.00  0.00     0.000 C 
HETATM   21  C   UNL     1      44.669 -30.499  -2.474  1.00  0.00     0.002 C 
HETATM   22  C   UNL     1      44.587 -30.171  -0.986  1.00  0.00     0.025 C 
ENDBRANCH  13  17
ENDBRANCH   8  11
ENDBRANCH   2   7
BRANCH   5  23
HETATM   23  N   UNL     1      53.979 -32.250  -3.023  1.00  0.00    -0.309 N 
HETATM   24  C   UNL     1      54.232 -33.411  -3.724  1.00  0.00     0.321 C 
HETATM   25  N   UNL     1      55.524 -33.398  -4.213  1.00  0.00    -0.338 N 
HETATM   26  O   UNL     1      53.463 -34.350  -3.864  1.00  0.00    -0.247 OA
HETATM   27  H   UNL     1      55.903 -32.483  -4.392  1.00  0.00     0.164 HD
HETATM   28  H   UNL     1      54.645 -31.505  -3.145  1.00  0.00     0.170 HD
BRANCH  25  29
HETATM   29  C   UNL     1      56.114 -34.483  -5.002  1.00  0.00     0.086 C 
HETATM   30  C   UNL     1      56.433 -33.959  -6.414  1.00  0.00     0.025 C 
HETATM   31  C   UNL     1      57.590 -32.956  -6.409  1.00  0.00     0.002 C 
HETATM   32  C   UNL     1      58.840 -33.533  -5.751  1.00  0.00     0.000 C 
HETATM   33  C   UNL     1      58.549 -34.093  -4.362  1.00  0.00     0.002 C 
HETATM   34  C   UNL     1      57.390 -35.087  -4.392  1.00  0.00     0.025 C 
ENDBRANCH  25  29
ENDBRANCH   5  23
TORSDOF 5
ENDMDL
MODEL 10
REMARK VINA RESULT:      -7.8      2.006     10.397
REMARK  5 active torsions:
REMARK  status: ('A' for Active; 'I' for Inactive)
REMARK    1  A    between atoms: C_2  and  C_3 
REMARK       I    between atoms: C_3  and  N_4 
REMARK    2  A    between atoms: N_4  and  N_5 
REMARK       I    between atoms: N_5  and  C_6 
REMARK       I    between atoms: C_6  and  N_7 
REMARK    3  A    between atoms: N_7  and  C_8 
REMARK    4  A    between atoms: C_18  and  N_19 
REMARK       I    between atoms: N_19  and  C_20 
REMARK       I    between atoms: C_20  and  N_21 
REMARK    5  A    between atoms: N_21  and  C_22 
ROOT
HETATM    1  C   UNL     1      41.993  -9.776   6.655  1.00  0.00     0.019 A 
HETATM    2  C   UNL     1      42.970 -10.644   6.157  1.00  0.00     0.033 A 
HETATM    3  C   UNL     1      44.166 -10.803   6.865  1.00  0.00     0.019 A 
HETATM    4  C   UNL     1      44.370 -10.112   8.069  1.00  0.00     0.030 A 
HETATM    5  C   UNL     1      43.381  -9.268   8.581  1.00  0.00     0.036 A 
HETATM    6  C   UNL     1      42.197  -9.094   7.856  1.00  0.00     0.030 A 
ENDROOT
BRANCH   2   7
HETATM    7  C   UNL     1      42.651 -11.413   4.923  1.00  0.00     0.270 C 
HETATM    8  N   UNL     1      43.677 -12.142   4.343  1.00  0.00    -0.262 N 
HETATM    9  H   UNL     1      44.639 -11.849   4.488  1.00  0.00     0.190 HD
HETATM   10  O   UNL     1      41.521 -11.360   4.441  1.00  0.00    -0.266 OA
BRANCH   8  11
HETATM   11  N   UNL     1      43.386 -12.675   3.075  1.00  0.00    -0.249 N 
HETATM   12  C   UNL     1      43.072 -13.991   2.854  1.00  0.00     0.335 C 
HETATM   13  N   UNL     1      42.806 -14.691   3.997  1.00  0.00    -0.337 N 
HETATM   14  O   UNL     1      43.060 -14.444   1.719  1.00  0.00    -0.246 OA
HETATM   15  H   UNL     1      42.442 -14.087   4.720  1.00  0.00     0.164 HD
HETATM   16  H   UNL     1      43.584 -12.084   2.269  1.00  0.00     0.192 HD
BRANCH  13  17
HETATM   17  C   UNL     1      42.402 -16.095   4.081  1.00  0.00     0.086 C 
HETATM   18  C   UNL     1      43.549 -17.081   3.822  1.00  0.00     0.025 C 
HETATM   19  C   UNL     1      44.298 -17.532   5.070  1.00  0.00     0.002 C 
HETATM   20  C   UNL     1      43.347 -18.018   6.156  1.00  0.00     0.000 C 
HETATM   21  C   UNL     1      42.318 -16.959   6.525  1.00  0.00     0.002 C 
HETATM   22  C   UNL     1      41.550 -16.440   5.312  1.00  0.00     0.025 C 
ENDBRANCH  13  17
ENDBRANCH   8  11
ENDBRANCH   2   7
BRANCH   5  23
HETATM   23  N   UNL     1      43.457  -8.633   9.835  1.00  0.00    -0.309 N 
HETATM   24  C   UNL     1      43.270  -9.195  11.082  1.00  0.00     0.321 C 
HETATM   25  N   UNL     1      43.081  -8.204  12.026  1.00  0.00    -0.338 N 
HETATM   26  O   UNL     1      43.221 -10.390  11.333  1.00  0.00    -0.247 OA
HETATM   27  H   UNL     1      43.521  -7.324  11.813  1.00  0.00     0.164 HD
HETATM   28  H   UNL     1      43.643  -7.644   9.820  1.00  0.00     0.170 HD
BRANCH  25  29
HETATM   29  C   UNL     1      42.853  -8.460  13.450  1.00  0.00     0.086 C 
HETATM   30  C   UNL     1      43.171  -7.181  14.246  1.00  0.00     0.025 C 
HETATM   31  C   UNL     1      42.144  -6.074  13.993  1.00  0.00     0.002 C 
HETATM   32  C   UNL     1      40.719  -6.545  14.273  1.00  0.00     0.000 C 
HETATM   33  C   UNL     1      40.385  -7.832  13.524  1.00  0.00     0.002 C 
HETATM   34  C   UNL     1      41.424  -8.919  13.790  1.00  0.00     0.025 C 
ENDBRANCH  25  29
ENDBRANCH   5  23
TORSDOF 5
ENDMDL
