MODEL 1
REMARK VINA RESULT:      -8.3      0.000      0.000
REMARK  4 active torsions:
REMARK  status: ('A' for Active; 'I' for Inactive)
REMARK    1  A    between atoms: C_4  and  N_5 
REMARK    2  A    between atoms: N_5  and  C_6 
REMARK    3  A    between atoms: C_6  and  N_7 
REMARK       I    between atoms: N_7  and  C_8 
REMARK    4  A    between atoms: C_8  and  C_9 
ROOT
HETATM    1  N   UNL     1      41.949 -14.387   2.112  1.00  0.00    -0.299 N 
HETATM    2  C   UNL     1      41.459 -15.686   2.031  1.00  0.00     0.257 C 
HETATM    3  O   UNL     1      40.380 -16.037   1.575  1.00  0.00    -0.267 OA
HETATM    4  H   UNL     1      42.732 -14.252   2.746  1.00  0.00     0.171 HD
ENDROOT
BRANCH   1   5
HETATM    5  C   UNL     1      41.606 -13.225   1.453  1.00  0.00     0.180 C 
HETATM    6  S   UNL     1      41.433 -11.704   2.121  1.00  0.00    -0.040 SA
BRANCH   5   7
HETATM    7  N   UNL     1      41.359 -13.350   0.105  1.00  0.00    -0.318 N 
HETATM    8  H   UNL     1      42.176 -13.592  -0.442  1.00  0.00     0.170 HD
BRANCH   7   9
HETATM    9  C   UNL     1      40.141 -13.213  -0.578  1.00  0.00     0.129 A 
HETATM   10  C   UNL     1      39.849 -14.123  -1.587  1.00  0.00     0.057 A 
HETATM   11  C   UNL     1      38.632 -14.016  -2.270  1.00  0.00    -0.057 A 
HETATM   12  C   UNL     1      38.274 -14.963  -3.375  1.00  0.00     0.048 C 
HETATM   13  C   UNL     1      37.752 -12.995  -1.912  1.00  0.00     0.026 A 
HETATM   14  C   UNL     1      38.125 -12.130  -0.899  1.00  0.00     0.119 A 
HETATM   15  N   UNL     1      39.299 -12.211  -0.236  1.00  0.00    -0.243 NA
ENDBRANCH   7   9
ENDBRANCH   5   7
ENDBRANCH   1   5
BRANCH   2  16
HETATM   16  C   UNL     1      42.340 -16.686   2.689  1.00  0.00     0.033 A 
HETATM   17  C   UNL     1      42.946 -16.362   3.906  1.00  0.00     0.023 A 
HETATM   18  C   UNL     1      43.819 -17.271   4.516  1.00  0.00    -0.061 A 
HETATM   19  C   UNL     1      44.498 -16.934   5.811  1.00  0.00     0.048 C 
HETATM   20  C   UNL     1      44.047 -18.517   3.911  1.00  0.00     0.013 A 
HETATM   21  C   UNL     1      43.422 -18.860   2.705  1.00  0.00    -0.061 A 
HETATM   22  C   UNL     1      43.651 -20.199   2.067  1.00  0.00     0.048 C 
HETATM   23  C   UNL     1      42.569 -17.934   2.095  1.00  0.00     0.023 A 
ENDBRANCH   2  16
TORSDOF 4
ENDMDL
MODEL 2
REMARK VINA RESULT:      -8.2      0.055      1.884
REMARK  4 active torsions:
REMARK  status: ('A' for Active; 'I' for Inactive)
REMARK    1  A    between atoms: C_4  and  N_5 
REMARK    2  A    between atoms: N_5  and  C_6 
REMARK    3  A    between atoms: C_6  and  N_7 
REMARK       I    between atoms: N_7  and  C_8 
REMARK    4  A    between atoms: C_8  and  C_9 
ROOT
HETATM    1  N   UNL     1      41.962 -14.343   2.104  1.00  0.00    -0.299 N 
HETATM    2  C   UNL     1      41.507 -15.654   2.012  1.00  0.00     0.257 C 
HETATM    3  O   UNL     1      40.444 -16.032   1.542  1.00  0.00    -0.267 OA
HETATM    4  H   UNL     1      42.735 -14.192   2.748  1.00  0.00     0.171 HD
ENDROOT
BRANCH   1   5
HETATM    5  C   UNL     1      41.596 -13.188   1.446  1.00  0.00     0.180 C 
HETATM    6  S   UNL     1      41.391 -11.672   2.117  1.00  0.00    -0.040 SA
BRANCH   5   7
HETATM    7  N   UNL     1      41.354 -13.316   0.099  1.00  0.00    -0.318 N 
HETATM    8  H   UNL     1      42.176 -13.538  -0.449  1.00  0.00     0.170 HD
BRANCH   7   9
HETATM    9  C   UNL     1      40.134 -13.204  -0.586  1.00  0.00     0.129 A 
HETATM   10  C   UNL     1      39.865 -14.116  -1.599  1.00  0.00     0.057 A 
HETATM   11  C   UNL     1      38.646 -14.036  -2.283  1.00  0.00    -0.057 A 
HETATM   12  C   UNL     1      38.313 -14.986  -3.393  1.00  0.00     0.048 C 
HETATM   13  C   UNL     1      37.742 -13.038  -1.922  1.00  0.00     0.026 A 
HETATM   14  C   UNL     1      38.093 -12.168  -0.905  1.00  0.00     0.119 A 
HETATM   15  N   UNL     1      39.267 -12.224  -0.240  1.00  0.00    -0.243 NA
ENDBRANCH   7   9
ENDBRANCH   5   7
ENDBRANCH   1   5
BRANCH   2  16
HETATM   16  C   UNL     1      42.408 -16.634   2.675  1.00  0.00     0.033 A 
HETATM   17  C   UNL     1      42.605 -17.885   2.084  1.00  0.00     0.023 A 
HETATM   18  C   UNL     1      43.409 -18.839   2.717  1.00  0.00    -0.061 A 
HETATM   19  C   UNL     1      43.615 -20.196   2.112  1.00  0.00     0.048 C 
HETATM   20  C   UNL     1      44.040 -18.512   3.928  1.00  0.00     0.013 A 
HETATM   21  C   UNL     1      43.870 -17.250   4.513  1.00  0.00    -0.061 A 
HETATM   22  C   UNL     1      44.559 -16.893   5.797  1.00  0.00     0.048 C 
HETATM   23  C   UNL     1      43.046 -16.313   3.880  1.00  0.00     0.023 A 
ENDBRANCH   2  16
TORSDOF 4
ENDMDL
MODEL 3
REMARK VINA RESULT:      -8.1      1.601      7.161
REMARK  4 active torsions:
REMARK  status: ('A' for Active; 'I' for Inactive)
REMARK    1  A    between atoms: C_4  and  N_5 
REMARK    2  A    between atoms: N_5  and  C_6 
REMARK    3  A    between atoms: C_6  and  N_7 
REMARK       I    between atoms: N_7  and  C_8 
REMARK    4  A    between atoms: C_8  and  C_9 
ROOT
HETATM    1  N   UNL     1      41.334 -14.353   1.552  1.00  0.00    -0.299 N 
HETATM    2  C   UNL     1      40.329 -14.940   0.791  1.00  0.00     0.257 C 
HETATM    3  O   UNL     1      39.726 -15.974   1.041  1.00  0.00    -0.267 OA
HETATM    4  H   UNL     1      41.895 -13.653   1.072  1.00  0.00     0.171 HD
ENDROOT
BRANCH   1   5
HETATM    5  C   UNL     1      41.701 -14.501   2.873  1.00  0.00     0.180 C 
HETATM    6  S   UNL     1      40.793 -14.105   4.218  1.00  0.00    -0.040 SA
BRANCH   5   7
HETATM    7  N   UNL     1      42.961 -15.007   3.092  1.00  0.00    -0.318 N 
HETATM    8  H   UNL     1      43.703 -14.327   2.978  1.00  0.00     0.170 HD
BRANCH   7   9
HETATM    9  C   UNL     1      43.328 -16.307   3.469  1.00  0.00     0.129 A 
HETATM   10  C   UNL     1      43.098 -17.341   2.569  1.00  0.00     0.057 A 
HETATM   11  C   UNL     1      43.473 -18.643   2.915  1.00  0.00    -0.057 A 
HETATM   12  C   UNL     1      43.235 -19.795   1.986  1.00  0.00     0.048 C 
HETATM   13  C   UNL     1      44.066 -18.859   4.159  1.00  0.00     0.026 A 
HETATM   14  C   UNL     1      44.253 -17.775   4.997  1.00  0.00     0.119 A 
HETATM   15  N   UNL     1      43.889 -16.512   4.683  1.00  0.00    -0.243 NA
ENDBRANCH   7   9
ENDBRANCH   5   7
ENDBRANCH   1   5
BRANCH   2  16
HETATM   16  C   UNL     1      40.093 -14.246  -0.503  1.00  0.00     0.033 A 
HETATM   17  C   UNL     1      40.695 -13.005  -0.729  1.00  0.00     0.023 A 
HETATM   18  C   UNL     1      40.447 -12.313  -1.920  1.00  0.00    -0.061 A 
HETATM   19  C   UNL     1      41.064 -10.969  -2.172  1.00  0.00     0.048 C 
HETATM   20  C   UNL     1      39.618 -12.895  -2.893  1.00  0.00     0.013 A 
HETATM   21  C   UNL     1      39.033 -14.151  -2.686  1.00  0.00    -0.061 A 
HETATM   22  C   UNL     1      38.164 -14.782  -3.733  1.00  0.00     0.048 C 
HETATM   23  C   UNL     1      39.273 -14.823  -1.482  1.00  0.00     0.023 A 
ENDBRANCH   2  16
TORSDOF 4
ENDMDL
MODEL 4
REMARK VINA RESULT:      -8.0      5.248      8.160
REMARK  4 active torsions:
REMARK  status: ('A' for Active; 'I' for Inactive)
REMARK    1  A    between atoms: C_4  and  N_5 
REMARK    2  A    between atoms: N_5  and  C_6 
REMARK    3  A    between atoms: C_6  and  N_7 
REMARK       I    between atoms: N_7  and  C_8 
REMARK    4  A    between atoms: C_8  and  C_9 
ROOT
HETATM    1  N   UNL     1      43.371 -13.711   5.705  1.00  0.00    -0.299 N 
HETATM    2  C   UNL     1      43.315 -15.011   6.197  1.00  0.00     0.257 C 
HETATM    3  O   UNL     1      43.294 -15.352   7.371  1.00  0.00    -0.267 OA
HETATM    4  H   UNL     1      43.642 -13.623   4.728  1.00  0.00     0.171 HD
ENDROOT
BRANCH   1   5
HETATM    5  C   UNL     1      43.081 -12.491   6.278  1.00  0.00     0.180 C 
HETATM    6  S   UNL     1      42.249 -11.224   5.576  1.00  0.00    -0.040 SA
BRANCH   5   7
HETATM    7  N   UNL     1      43.554 -12.300   7.555  1.00  0.00    -0.318 N 
HETATM    8  H   UNL     1      43.337 -13.057   8.192  1.00  0.00     0.170 HD
BRANCH   7   9
HETATM    9  C   UNL     1      44.301 -11.226   8.060  1.00  0.00     0.129 A 
HETATM   10  C   UNL     1      43.892 -10.648   9.257  1.00  0.00     0.057 A 
HETATM   11  C   UNL     1      44.633  -9.587   9.789  1.00  0.00    -0.057 A 
HETATM   12  C   UNL     1      44.228  -8.920  11.069  1.00  0.00     0.048 C 
HETATM   13  C   UNL     1      45.760  -9.144   9.097  1.00  0.00     0.026 A 
HETATM   14  C   UNL     1      46.092  -9.772   7.910  1.00  0.00     0.119 A 
HETATM   15  N   UNL     1      45.384 -10.791   7.376  1.00  0.00    -0.243 NA
ENDBRANCH   7   9
ENDBRANCH   5   7
ENDBRANCH   1   5
BRANCH   2  16
HETATM   16  C   UNL     1      43.407 -16.044   5.132  1.00  0.00     0.033 A 
HETATM   17  C   UNL     1      43.733 -17.357   5.484  1.00  0.00     0.023 A 
HETATM   18  C   UNL     1      43.873 -18.333   4.491  1.00  0.00    -0.061 A 
HETATM   19  C   UNL     1      44.246 -19.742   4.845  1.00  0.00     0.048 C 
HETATM   20  C   UNL     1      43.647 -17.986   3.149  1.00  0.00     0.013 A 
HETATM   21  C   UNL     1      43.292 -16.679   2.791  1.00  0.00    -0.061 A 
HETATM   22  C   UNL     1      43.032 -16.312   1.359  1.00  0.00     0.048 C 
HETATM   23  C   UNL     1      43.177 -15.708   3.791  1.00  0.00     0.023 A 
ENDBRANCH   2  16
TORSDOF 4
ENDMDL
MODEL 5
REMARK VINA RESULT:      -8.0      5.260      8.204
REMARK  4 active torsions:
REMARK  status: ('A' for Active; 'I' for Inactive)
REMARK    1  A    between atoms: C_4  and  N_5 
REMARK    2  A    between atoms: N_5  and  C_6 
REMARK    3  A    between atoms: C_6  and  N_7 
REMARK       I    between atoms: N_7  and  C_8 
REMARK    4  A    between atoms: C_8  and  C_9 
ROOT
HETATM    1  N   UNL     1      43.355 -13.826   5.868  1.00  0.00    -0.299 N 
HETATM    2  C   UNL     1      43.133 -15.135   6.282  1.00  0.00     0.257 C 
HETATM    3  O   UNL     1      42.893 -15.516   7.419  1.00  0.00    -0.267 OA
HETATM    4  H   UNL     1      43.792 -13.724   4.955  1.00  0.00     0.171 HD
ENDROOT
BRANCH   1   5
HETATM    5  C   UNL     1      43.051 -12.610   6.441  1.00  0.00     0.180 C 
HETATM    6  S   UNL     1      42.141 -11.381   5.770  1.00  0.00    -0.040 SA
BRANCH   5   7
HETATM    7  N   UNL     1      43.581 -12.387   7.691  1.00  0.00    -0.318 N 
HETATM    8  H   UNL     1      43.423 -13.143   8.346  1.00  0.00     0.170 HD
BRANCH   7   9
HETATM    9  C   UNL     1      44.316 -11.281   8.145  1.00  0.00     0.129 A 
HETATM   10  C   UNL     1      43.904 -10.657   9.317  1.00  0.00     0.057 A 
HETATM   11  C   UNL     1      44.632  -9.564   9.799  1.00  0.00    -0.057 A 
HETATM   12  C   UNL     1      44.222  -8.847  11.051  1.00  0.00     0.048 C 
HETATM   13  C   UNL     1      45.749  -9.137   9.084  1.00  0.00     0.026 A 
HETATM   14  C   UNL     1      46.086  -9.812   7.924  1.00  0.00     0.119 A 
HETATM   15  N   UNL     1      45.390 -10.862   7.437  1.00  0.00    -0.243 NA
ENDBRANCH   7   9
ENDBRANCH   5   7
ENDBRANCH   1   5
BRANCH   2  16
HETATM   16  C   UNL     1      43.336 -16.134   5.199  1.00  0.00     0.033 A 
HETATM   17  C   UNL     1      43.136 -15.748   3.871  1.00  0.00     0.023 A 
HETATM   18  C   UNL     1      43.274 -16.686   2.842  1.00  0.00    -0.061 A 
HETATM   19  C   UNL     1      43.041 -16.298   1.411  1.00  0.00     0.048 C 
HETATM   20  C   UNL     1      43.648 -18.002   3.157  1.00  0.00     0.013 A 
HETATM   21  C   UNL     1      43.877 -18.390   4.484  1.00  0.00    -0.061 A 
HETATM   22  C   UNL     1      44.295 -19.792   4.819  1.00  0.00     0.048 C 
HETATM   23  C   UNL     1      43.715 -17.448   5.505  1.00  0.00     0.023 A 
ENDBRANCH   2  16
TORSDOF 4
ENDMDL
MODEL 6
REMARK VINA RESULT:      -7.9      2.617      3.900
REMARK  4 active torsions:
REMARK  status: ('A' for Active; 'I' for Inactive)
REMARK    1  A    between atoms: C_4  and  N_5 
REMARK    2  A    between atoms: N_5  and  C_6 
REMARK    3  A    between atoms: C_6  and  N_7 
REMARK       I    between atoms: N_7  and  C_8 
REMARK    4  A    between atoms: C_8  and  C_9 
ROOT
HETATM    1  N   UNL     1      41.026 -15.641   1.689  1.00  0.00    -0.299 N 
HETATM    2  C   UNL     1      42.365 -15.434   2.003  1.00  0.00     0.257 C 
HETATM    3  O   UNL     1      43.084 -14.531   1.599  1.00  0.00    -0.267 OA
HETATM    4  H   UNL     1      40.665 -16.569   1.898  1.00  0.00     0.171 HD
ENDROOT
BRANCH   1   5
HETATM    5  C   UNL     1      40.054 -14.805   1.181  1.00  0.00     0.180 C 
HETATM    6  S   UNL     1      39.841 -14.365  -0.416  1.00  0.00    -0.040 SA
BRANCH   5   7
HETATM    7  N   UNL     1      39.189 -14.263   2.102  1.00  0.00    -0.318 N 
HETATM    8  H   UNL     1      38.271 -14.690   2.105  1.00  0.00     0.170 HD
BRANCH   7   9
HETATM    9  C   UNL     1      39.427 -13.237   3.029  1.00  0.00     0.129 A 
HETATM   10  C   UNL     1      38.875 -11.986   2.778  1.00  0.00     0.057 A 
HETATM   11  C   UNL     1      39.083 -10.952   3.698  1.00  0.00    -0.057 A 
HETATM   12  C   UNL     1      38.521  -9.581   3.468  1.00  0.00     0.048 C 
HETATM   13  C   UNL     1      39.842 -11.214   4.838  1.00  0.00     0.026 A 
HETATM   14  C   UNL     1      40.359 -12.486   5.006  1.00  0.00     0.119 A 
HETATM   15  N   UNL     1      40.176 -13.494   4.125  1.00  0.00    -0.243 NA
ENDBRANCH   7   9
ENDBRANCH   5   7
ENDBRANCH   1   5
BRANCH   2  16
HETATM   16  C   UNL     1      42.949 -16.525   2.827  1.00  0.00     0.033 A 
HETATM   17  C   UNL     1      43.350 -16.248   4.137  1.00  0.00     0.023 A 
HETATM   18  C   UNL     1      43.947 -17.249   4.912  1.00  0.00    -0.061 A 
HETATM   19  C   UNL     1      44.406 -16.965   6.312  1.00  0.00     0.048 C 
HETATM   20  C   UNL     1      44.103 -18.535   4.372  1.00  0.00     0.013 A 
HETATM   21  C   UNL     1      43.677 -18.829   3.070  1.00  0.00    -0.061 A 
HETATM   22  C   UNL     1      43.826 -20.208   2.499  1.00  0.00     0.048 C 
HETATM   23  C   UNL     1      43.102 -17.813   2.298  1.00  0.00     0.023 A 
ENDBRANCH   2  16
TORSDOF 4
ENDMDL
MODEL 7
REMARK VINA RESULT:      -7.7      2.651      4.498
REMARK  4 active torsions:
REMARK  status: ('A' for Active; 'I' for Inactive)
REMARK    1  A    between atoms: C_4  and  N_5 
REMARK    2  A    between atoms: N_5  and  C_6 
REMARK    3  A    between atoms: C_6  and  N_7 
REMARK       I    between atoms: N_7  and  C_8 
REMARK    4  A    between atoms: C_8  and  C_9 
ROOT
HETATM    1  N   UNL     1      41.581 -15.274   1.523  1.00  0.00    -0.299 N 
HETATM    2  C   UNL     1      42.899 -15.317   1.964  1.00  0.00     0.257 C 
HETATM    3  O   UNL     1      43.790 -14.523   1.695  1.00  0.00    -0.267 OA
HETATM    4  H   UNL     1      41.056 -16.139   1.627  1.00  0.00     0.171 HD
ENDROOT
BRANCH   1   5
HETATM    5  C   UNL     1      40.811 -14.256   1.003  1.00  0.00     0.180 C 
HETATM    6  S   UNL     1      39.871 -14.310  -0.377  1.00  0.00    -0.040 SA
BRANCH   5   7
HETATM    7  N   UNL     1      40.847 -13.065   1.691  1.00  0.00    -0.318 N 
HETATM    8  H   UNL     1      41.239 -12.296   1.161  1.00  0.00     0.170 HD
BRANCH   7   9
HETATM    9  C   UNL     1      40.397 -12.791   2.991  1.00  0.00     0.129 A 
HETATM   10  C   UNL     1      39.741 -11.587   3.217  1.00  0.00     0.057 A 
HETATM   11  C   UNL     1      39.266 -11.300   4.502  1.00  0.00    -0.057 A 
HETATM   12  C   UNL     1      38.564 -10.011   4.803  1.00  0.00     0.048 C 
HETATM   13  C   UNL     1      39.471 -12.237   5.514  1.00  0.00     0.026 A 
HETATM   14  C   UNL     1      40.138 -13.408   5.203  1.00  0.00     0.119 A 
HETATM   15  N   UNL     1      40.612 -13.698   3.972  1.00  0.00    -0.243 NA
ENDBRANCH   7   9
ENDBRANCH   5   7
ENDBRANCH   1   5
BRANCH   2  16
HETATM   16  C   UNL     1      43.216 -16.541   2.746  1.00  0.00     0.033 A 
HETATM   17  C   UNL     1      43.333 -17.763   2.078  1.00  0.00     0.023 A 
HETATM   18  C   UNL     1      43.582 -18.934   2.803  1.00  0.00    -0.061 A 
HETATM   19  C   UNL     1      43.688 -20.260   2.108  1.00  0.00     0.048 C 
HETATM   20  C   UNL     1      43.746 -18.860   4.195  1.00  0.00     0.013 A 
HETATM   21  C   UNL     1      43.658 -17.634   4.869  1.00  0.00    -0.061 A 
HETATM   22  C   UNL     1      43.852 -17.551   6.354  1.00  0.00     0.048 C 
HETATM   23  C   UNL     1      43.387 -16.474   4.135  1.00  0.00     0.023 A 
ENDBRANCH   2  16
TORSDOF 4
ENDMDL
MODEL 8
REMARK VINA RESULT:      -7.6      2.555      4.242
REMARK  4 active torsions:
REMARK  status: ('A' for Active; 'I' for Inactive)
REMARK    1  A    between atoms: C_4  and  N_5 
REMARK    2  A    between atoms: N_5  and  C_6 
REMARK    3  A    between atoms: C_6  and  N_7 
REMARK       I    between atoms: N_7  and  C_8 
REMARK    4  A    between atoms: C_8  and  C_9 
ROOT
HETATM    1  N   UNL     1      41.135 -15.675   1.582  1.00  0.00    -0.299 N 
HETATM    2  C   UNL     1      42.504 -15.634   1.820  1.00  0.00     0.257 C 
HETATM    3  O   UNL     1      43.308 -14.838   1.356  1.00  0.00    -0.267 OA
HETATM    4  H   UNL     1      40.672 -16.545   1.833  1.00  0.00     0.171 HD
ENDROOT
BRANCH   1   5
HETATM    5  C   UNL     1      40.250 -14.732   1.103  1.00  0.00     0.180 C 
HETATM    6  S   UNL     1      40.041 -14.265  -0.487  1.00  0.00    -0.040 SA
BRANCH   5   7
HETATM    7  N   UNL     1      39.479 -14.098   2.049  1.00  0.00    -0.318 N 
HETATM    8  H   UNL     1      38.487 -14.109   1.847  1.00  0.00     0.170 HD
BRANCH   7   9
HETATM    9  C   UNL     1      39.889 -13.477   3.239  1.00  0.00     0.129 A 
HETATM   10  C   UNL     1      40.446 -14.271   4.235  1.00  0.00     0.057 A 
HETATM   11  C   UNL     1      40.879 -13.672   5.423  1.00  0.00    -0.057 A 
HETATM   12  C   UNL     1      41.473 -14.484   6.533  1.00  0.00     0.048 C 
HETATM   13  C   UNL     1      40.735 -12.292   5.566  1.00  0.00     0.026 A 
HETATM   14  C   UNL     1      40.165 -11.578   4.527  1.00  0.00     0.119 A 
HETATM   15  N   UNL     1      39.733 -12.140   3.377  1.00  0.00    -0.243 NA
ENDBRANCH   7   9
ENDBRANCH   5   7
ENDBRANCH   1   5
BRANCH   2  16
HETATM   16  C   UNL     1      42.989 -16.774   2.642  1.00  0.00     0.033 A 
HETATM   17  C   UNL     1      43.246 -16.573   4.001  1.00  0.00     0.023 A 
HETATM   18  C   UNL     1      43.750 -17.621   4.780  1.00  0.00    -0.061 A 
HETATM   19  C   UNL     1      44.054 -17.418   6.236  1.00  0.00     0.048 C 
HETATM   20  C   UNL     1      43.959 -18.877   4.190  1.00  0.00     0.013 A 
HETATM   21  C   UNL     1      43.678 -19.095   2.835  1.00  0.00    -0.061 A 
HETATM   22  C   UNL     1      43.883 -20.443   2.209  1.00  0.00     0.048 C 
HETATM   23  C   UNL     1      43.195 -18.033   2.062  1.00  0.00     0.023 A 
ENDBRANCH   2  16
TORSDOF 4
ENDMDL
MODEL 9
REMARK VINA RESULT:      -7.5      2.825      5.351
REMARK  4 active torsions:
REMARK  status: ('A' for Active; 'I' for Inactive)
REMARK    1  A    between atoms: C_4  and  N_5 
REMARK    2  A    between atoms: N_5  and  C_6 
REMARK    3  A    between atoms: C_6  and  N_7 
REMARK       I    between atoms: N_7  and  C_8 
REMARK    4  A    between atoms: C_8  and  C_9 
ROOT
HETATM    1  N   UNL     1      42.084 -14.362   2.311  1.00  0.00    -0.299 N 
HETATM    2  C   UNL     1      41.615 -15.660   2.140  1.00  0.00     0.257 C 
HETATM    3  O   UNL     1      40.556 -15.998   1.631  1.00  0.00    -0.267 OA
HETATM    4  H   UNL     1      42.845 -14.255   2.977  1.00  0.00     0.171 HD
ENDROOT
BRANCH   1   5
HETATM    5  C   UNL     1      41.745 -13.169   1.709  1.00  0.00     0.180 C 
HETATM    6  S   UNL     1      40.969 -12.966   0.244  1.00  0.00    -0.040 SA
BRANCH   5   7
HETATM    7  N   UNL     1      42.113 -12.030   2.387  1.00  0.00    -0.318 N 
HETATM    8  H   UNL     1      42.154 -11.201   1.807  1.00  0.00     0.170 HD
BRANCH   7   9
HETATM    9  C   UNL     1      42.404 -11.879   3.751  1.00  0.00     0.129 A 
HETATM   10  C   UNL     1      43.729 -11.684   4.121  1.00  0.00     0.057 A 
HETATM   11  C   UNL     1      44.041 -11.512   5.475  1.00  0.00    -0.057 A 
HETATM   12  C   UNL     1      45.456 -11.312   5.928  1.00  0.00     0.048 C 
HETATM   13  C   UNL     1      43.006 -11.545   6.408  1.00  0.00     0.026 A 
HETATM   14  C   UNL     1      41.716 -11.751   5.954  1.00  0.00     0.119 A 
HETATM   15  N   UNL     1      41.396 -11.928   4.654  1.00  0.00    -0.243 NA
ENDBRANCH   7   9
ENDBRANCH   5   7
ENDBRANCH   1   5
BRANCH   2  16
HETATM   16  C   UNL     1      42.490 -16.686   2.767  1.00  0.00     0.033 A 
HETATM   17  C   UNL     1      42.675 -17.910   2.119  1.00  0.00     0.023 A 
HETATM   18  C   UNL     1      43.455 -18.907   2.717  1.00  0.00    -0.061 A 
HETATM   19  C   UNL     1      43.647 -20.237   2.049  1.00  0.00     0.048 C 
HETATM   20  C   UNL     1      44.073 -18.649   3.951  1.00  0.00     0.013 A 
HETATM   21  C   UNL     1      43.916 -17.414   4.593  1.00  0.00    -0.061 A 
HETATM   22  C   UNL     1      44.592 -17.130   5.902  1.00  0.00     0.048 C 
HETATM   23  C   UNL     1      43.116 -16.434   3.995  1.00  0.00     0.023 A 
ENDBRANCH   2  16
TORSDOF 4
ENDMDL
MODEL 10
REMARK VINA RESULT:      -7.4     14.257     15.688
REMARK  4 active torsions:
REMARK  status: ('A' for Active; 'I' for Inactive)
REMARK    1  A    between atoms: C_4  and  N_5 
REMARK    2  A    between atoms: N_5  and  C_6 
REMARK    3  A    between atoms: C_6  and  N_7 
REMARK       I    between atoms: N_7  and  C_8 
REMARK    4  A    between atoms: C_8  and  C_9 
ROOT
HETATM    1  N   UNL     1      45.965 -29.750   0.841  1.00  0.00    -0.299 N 
HETATM    2  C   UNL     1      46.913 -28.925   1.436  1.00  0.00     0.257 C 
HETATM    3  O   UNL     1      46.729 -27.807   1.895  1.00  0.00    -0.267 OA
HETATM    4  H   UNL     1      46.338 -30.520   0.289  1.00  0.00     0.171 HD
ENDROOT
BRANCH   1   5
HETATM    5  C   UNL     1      44.587 -29.761   0.887  1.00  0.00     0.180 C 
HETATM    6  S   UNL     1      43.627 -29.709   2.252  1.00  0.00    -0.040 SA
BRANCH   5   7
HETATM    7  N   UNL     1      43.947 -29.849  -0.327  1.00  0.00    -0.318 N 
HETATM    8  H   UNL     1      43.060 -30.338  -0.291  1.00  0.00     0.170 HD
BRANCH   7   9
HETATM    9  C   UNL     1      44.351 -29.336  -1.569  1.00  0.00     0.129 A 
HETATM   10  C   UNL     1      44.003 -30.042  -2.715  1.00  0.00     0.057 A 
HETATM   11  C   UNL     1      44.380 -29.539  -3.965  1.00  0.00    -0.057 A 
HETATM   12  C   UNL     1      44.042 -30.268  -5.231  1.00  0.00     0.048 C 
HETATM   13  C   UNL     1      45.095 -28.343  -4.017  1.00  0.00     0.026 A 
HETATM   14  C   UNL     1      45.404 -27.709  -2.828  1.00  0.00     0.119 A 
HETATM   15  N   UNL     1      45.058 -28.183  -1.611  1.00  0.00    -0.243 NA
ENDBRANCH   7   9
ENDBRANCH   5   7
ENDBRANCH   1   5
BRANCH   2  16
HETATM   16  C   UNL     1      48.292 -29.476   1.371  1.00  0.00     0.033 A 
HETATM   17  C   UNL     1      48.866 -29.727   0.122  1.00  0.00     0.023 A 
HETATM   18  C   UNL     1      50.144 -30.292   0.041  1.00  0.00    -0.061 A 
HETATM   19  C   UNL     1      50.769 -30.592  -1.290  1.00  0.00     0.048 C 
HETATM   20  C   UNL     1      50.851 -30.568   1.223  1.00  0.00     0.013 A 
HETATM   21  C   UNL     1      50.293 -30.293   2.479  1.00  0.00    -0.061 A 
HETATM   22  C   UNL     1      51.055 -30.569   3.741  1.00  0.00     0.048 C 
HETATM   23  C   UNL     1      49.006 -29.748   2.546  1.00  0.00     0.023 A 
ENDBRANCH   2  16
TORSDOF 4
ENDMDL
