MODEL 1
REMARK VINA RESULT:     -10.6      0.000      0.000
REMARK  5 active torsions:
REMARK  status: ('A' for Active; 'I' for Inactive)
REMARK    1  A    between atoms: C_4  and  N_5 
REMARK       I    between atoms: N_5  and  C_6 
REMARK    2  A    between atoms: C_6  and  C_7 
REMARK    3  A    between atoms: C_8  and  N_9 
REMARK    4  A    between atoms: N_10  and  N_11 
REMARK    5  A    between atoms: C_12  and  C_13 
ROOT
HETATM    1  C   UNL     1      41.167 -13.612   3.106  1.00  0.00     0.105 C 
HETATM    2  C   UNL     1      41.351 -12.836   4.245  1.00  0.00     0.123 C 
HETATM    3  N   UNL     1      42.382 -13.376   5.003  1.00  0.00    -0.202 N 
HETATM    4  C   UNL     1      42.689 -14.620   4.485  1.00  0.00     0.183 A 
HETATM    5  C   UNL     1      41.962 -14.778   3.307  1.00  0.00     0.124 A 
HETATM    6  N   UNL     1      42.072 -15.917   2.575  1.00  0.00    -0.242 NA
HETATM    7  C   UNL     1      42.855 -16.868   3.108  1.00  0.00     0.086 A 
HETATM    8  C   UNL     1      43.567 -16.684   4.321  1.00  0.00     0.088 A 
HETATM    9  N   UNL     1      43.521 -15.542   5.025  1.00  0.00    -0.225 NA
HETATM   10  C   UNL     1      42.955 -18.089   2.451  1.00  0.00     0.034 A 
HETATM   11  C   UNL     1      43.726 -19.134   2.964  1.00  0.00     0.002 A 
HETATM   12  C   UNL     1      44.419 -18.954   4.152  1.00  0.00     0.002 A 
HETATM   13  C   UNL     1      44.336 -17.729   4.815  1.00  0.00     0.034 A 
ENDROOT
BRANCH   1  14
HETATM   14  C   UNL     1      40.312 -13.290   1.957  1.00  0.00     0.262 C 
HETATM   15  N   UNL     1      40.926 -13.559   0.746  1.00  0.00    -0.323 N 
HETATM   16  H   UNL     1      41.874 -13.922   0.820  1.00  0.00     0.169 HD
HETATM   17  O   UNL     1      39.182 -12.837   2.091  1.00  0.00    -0.267 OA
BRANCH  15  18
HETATM   18  C   UNL     1      40.438 -13.388  -0.559  1.00  0.00     0.036 A 
HETATM   19  C   UNL     1      39.597 -14.290  -1.209  1.00  0.00     0.036 A 
HETATM   20  C   UNL     1      39.174 -14.045  -2.526  1.00  0.00    -0.059 A 
HETATM   21  C   UNL     1      38.280 -15.030  -3.220  1.00  0.00     0.048 C 
HETATM   22  C   UNL     1      39.561 -12.860  -3.167  1.00  0.00     0.013 A 
HETATM   23  C   UNL     1      40.406 -11.948  -2.530  1.00  0.00    -0.059 A 
HETATM   24  C   UNL     1      40.847 -12.227  -1.231  1.00  0.00     0.036 A 
HETATM   25  C   UNL     1      40.779 -10.655  -3.191  1.00  0.00     0.048 C 
ENDBRANCH  15  18
ENDBRANCH   1  14
BRANCH   2  26
HETATM   26  N   UNL     1      40.735 -11.681   4.663  1.00  0.00    -0.286 NA
HETATM   27  H   UNL     1      40.430 -11.686   5.640  1.00  0.00     0.125 HD
HETATM   28  H   UNL     1      41.343 -10.855   4.559  1.00  0.00     0.125 HD
ENDBRANCH   2  26
BRANCH   3  29
HETATM   29  N   UNL     1      42.847 -12.730   6.119  1.00  0.00    -0.176 NA
HETATM   30  C   UNL     1      43.763 -11.845   5.902  1.00  0.00     0.153 C 
BRANCH  30  31
HETATM   31  C   UNL     1      44.286 -11.108   7.034  1.00  0.00     0.011 A 
HETATM   32  C   UNL     1      43.587 -10.163   7.854  1.00  0.00     0.004 A 
HETATM   33  C   UNL     1      44.477  -9.726   8.838  1.00  0.00     0.043 A 
HETATM   34  C   UNL     1      42.272  -9.652   7.867  1.00  0.00     0.014 A 
HETATM   35  C   UNL     1      44.120  -8.805   9.829  1.00  0.00     0.030 A 
HETATM   36  N   UNL     1      45.673 -10.369   8.618  1.00  0.00    -0.364 N 
HETATM   37  C   UNL     1      42.811  -8.316   9.820  1.00  0.00     0.002 A 
HETATM   38  C   UNL     1      41.898  -8.733   8.854  1.00  0.00     0.001 A 
HETATM   39  H   UNL     1      46.503 -10.244   9.182  1.00  0.00     0.165 HD
HETATM   40  C   UNL     1      45.567 -11.210   7.545  1.00  0.00     0.102 A 
ENDBRANCH  30  31
ENDBRANCH   3  29
TORSDOF 5
ENDMDL
MODEL 2
REMARK VINA RESULT:     -10.4      1.794      8.752
REMARK  5 active torsions:
REMARK  status: ('A' for Active; 'I' for Inactive)
REMARK    1  A    between atoms: C_4  and  N_5 
REMARK       I    between atoms: N_5  and  C_6 
REMARK    2  A    between atoms: C_6  and  C_7 
REMARK    3  A    between atoms: C_8  and  N_9 
REMARK    4  A    between atoms: N_10  and  N_11 
REMARK    5  A    between atoms: C_12  and  C_13 
ROOT
HETATM    1  C   UNL     1      42.405 -13.605   5.082  1.00  0.00     0.105 C 
HETATM    2  C   UNL     1      41.527 -12.955   4.220  1.00  0.00     0.123 C 
HETATM    3  N   UNL     1      41.002 -13.876   3.325  1.00  0.00    -0.202 N 
HETATM    4  C   UNL     1      41.718 -15.052   3.448  1.00  0.00     0.183 A 
HETATM    5  C   UNL     1      42.577 -14.910   4.536  1.00  0.00     0.124 A 
HETATM    6  N   UNL     1      43.406 -15.924   4.899  1.00  0.00    -0.242 NA
HETATM    7  C   UNL     1      43.378 -17.002   4.099  1.00  0.00     0.086 A 
HETATM    8  C   UNL     1      42.505 -17.107   2.987  1.00  0.00     0.088 A 
HETATM    9  N   UNL     1      41.634 -16.143   2.651  1.00  0.00    -0.225 NA
HETATM   10  C   UNL     1      44.253 -18.048   4.366  1.00  0.00     0.034 A 
HETATM   11  C   UNL     1      44.300 -19.185   3.559  1.00  0.00     0.002 A 
HETATM   12  C   UNL     1      43.449 -19.286   2.468  1.00  0.00     0.002 A 
HETATM   13  C   UNL     1      42.556 -18.248   2.196  1.00  0.00     0.034 A 
ENDROOT
BRANCH   1  14
HETATM   14  C   UNL     1      43.027 -13.040   6.285  1.00  0.00     0.262 C 
HETATM   15  N   UNL     1      43.208 -11.671   6.197  1.00  0.00    -0.323 N 
HETATM   16  H   UNL     1      42.903 -11.256   5.319  1.00  0.00     0.169 HD
HETATM   17  O   UNL     1      43.338 -13.733   7.246  1.00  0.00    -0.267 OA
BRANCH  15  18
HETATM   18  C   UNL     1      43.763 -10.782   7.131  1.00  0.00     0.036 A 
HETATM   19  C   UNL     1      43.023 -10.060   8.066  1.00  0.00     0.036 A 
HETATM   20  C   UNL     1      43.663  -9.177   8.951  1.00  0.00    -0.059 A 
HETATM   21  C   UNL     1      42.855  -8.395   9.944  1.00  0.00     0.048 C 
HETATM   22  C   UNL     1      45.060  -9.063   8.923  1.00  0.00     0.013 A 
HETATM   23  C   UNL     1      45.816  -9.777   7.990  1.00  0.00    -0.059 A 
HETATM   24  C   UNL     1      45.156 -10.624   7.092  1.00  0.00     0.036 A 
HETATM   25  C   UNL     1      47.313  -9.699   7.992  1.00  0.00     0.048 C 
ENDBRANCH  15  18
ENDBRANCH   1  14
BRANCH   2  26
HETATM   26  N   UNL     1      41.112 -11.646   4.169  1.00  0.00    -0.286 NA
HETATM   27  H   UNL     1      40.277 -11.482   3.599  1.00  0.00     0.125 HD
HETATM   28  H   UNL     1      40.896 -11.269   5.104  1.00  0.00     0.125 HD
ENDBRANCH   2  26
BRANCH   3  29
HETATM   29  N   UNL     1      40.016 -13.517   2.442  1.00  0.00    -0.176 NA
HETATM   30  C   UNL     1      40.432 -13.063   1.307  1.00  0.00     0.153 C 
BRANCH  30  31
HETATM   31  C   UNL     1      39.445 -12.685   0.316  1.00  0.00     0.011 A 
HETATM   32  C   UNL     1      39.086 -13.403  -0.871  1.00  0.00     0.004 A 
HETATM   33  C   UNL     1      38.074 -12.678  -1.505  1.00  0.00     0.043 A 
HETATM   34  C   UNL     1      39.508 -14.616  -1.456  1.00  0.00     0.014 A 
HETATM   35  C   UNL     1      37.469 -13.102  -2.694  1.00  0.00     0.030 A 
HETATM   36  N   UNL     1      37.838 -11.558  -0.744  1.00  0.00    -0.364 N 
HETATM   37  C   UNL     1      37.905 -14.307  -3.251  1.00  0.00     0.002 A 
HETATM   38  C   UNL     1      38.909 -15.055  -2.642  1.00  0.00     0.001 A 
HETATM   39  H   UNL     1      37.152 -10.849  -0.966  1.00  0.00     0.165 HD
HETATM   40  C   UNL     1      38.646 -11.556   0.358  1.00  0.00     0.102 A 
ENDBRANCH  30  31
ENDBRANCH   3  29
TORSDOF 5
ENDMDL
MODEL 3
REMARK VINA RESULT:     -10.1      1.868      8.399
REMARK  5 active torsions:
REMARK  status: ('A' for Active; 'I' for Inactive)
REMARK    1  A    between atoms: C_4  and  N_5 
REMARK       I    between atoms: N_5  and  C_6 
REMARK    2  A    between atoms: C_6  and  C_7 
REMARK    3  A    between atoms: C_8  and  N_9 
REMARK    4  A    between atoms: N_10  and  N_11 
REMARK    5  A    between atoms: C_12  and  C_13 
ROOT
HETATM    1  C   UNL     1      42.836 -14.183   4.324  1.00  0.00     0.105 C 
HETATM    2  C   UNL     1      42.415 -13.574   3.146  1.00  0.00     0.123 C 
HETATM    3  N   UNL     1      42.073 -14.553   2.224  1.00  0.00    -0.202 N 
HETATM    4  C   UNL     1      42.503 -15.772   2.712  1.00  0.00     0.183 A 
HETATM    5  C   UNL     1      42.962 -15.568   4.012  1.00  0.00     0.124 A 
HETATM    6  N   UNL     1      43.444 -16.605   4.745  1.00  0.00    -0.242 NA
HETATM    7  C   UNL     1      43.506 -17.782   4.103  1.00  0.00     0.086 A 
HETATM    8  C   UNL     1      43.048 -17.953   2.772  1.00  0.00     0.088 A 
HETATM    9  N   UNL     1      42.509 -16.955   2.053  1.00  0.00    -0.225 NA
HETATM   10  C   UNL     1      44.058 -18.871   4.767  1.00  0.00     0.034 A 
HETATM   11  C   UNL     1      44.182 -20.117   4.150  1.00  0.00     0.002 A 
HETATM   12  C   UNL     1      43.738 -20.283   2.846  1.00  0.00     0.002 A 
HETATM   13  C   UNL     1      43.170 -19.200   2.173  1.00  0.00     0.034 A 
ENDROOT
BRANCH   1  14
HETATM   14  C   UNL     1      43.108 -13.518   5.604  1.00  0.00     0.262 C 
HETATM   15  N   UNL     1      43.601 -12.235   5.442  1.00  0.00    -0.323 N 
HETATM   16  H   UNL     1      43.718 -11.942   4.474  1.00  0.00     0.169 HD
HETATM   17  O   UNL     1      42.907 -14.066   6.680  1.00  0.00    -0.267 OA
BRANCH  15  18
HETATM   18  C   UNL     1      43.974 -11.293   6.413  1.00  0.00     0.036 A 
HETATM   19  C   UNL     1      45.292 -10.947   6.708  1.00  0.00     0.036 A 
HETATM   20  C   UNL     1      45.572 -10.006   7.713  1.00  0.00    -0.059 A 
HETATM   21  C   UNL     1      46.995  -9.652   8.031  1.00  0.00     0.048 C 
HETATM   22  C   UNL     1      44.515  -9.377   8.385  1.00  0.00     0.013 A 
HETATM   23  C   UNL     1      43.189  -9.716   8.104  1.00  0.00    -0.059 A 
HETATM   24  C   UNL     1      42.931 -10.683   7.124  1.00  0.00     0.036 A 
HETATM   25  C   UNL     1      42.054  -9.008   8.781  1.00  0.00     0.048 C 
ENDBRANCH  15  18
ENDBRANCH   1  14
BRANCH   2  26
HETATM   26  N   UNL     1      42.262 -12.249   2.818  1.00  0.00    -0.286 NA
HETATM   27  H   UNL     1      41.370 -12.017   2.372  1.00  0.00     0.125 HD
HETATM   28  H   UNL     1      42.337 -11.632   3.640  1.00  0.00     0.125 HD
ENDBRANCH   2  26
BRANCH   3  29
HETATM   29  N   UNL     1      41.510 -14.219   1.019  1.00  0.00    -0.176 NA
HETATM   30  C   UNL     1      40.229 -14.368   0.950  1.00  0.00     0.153 C 
BRANCH  30  31
HETATM   31  C   UNL     1      39.562 -14.013  -0.287  1.00  0.00     0.011 A 
HETATM   32  C   UNL     1      38.963 -12.756  -0.621  1.00  0.00     0.004 A 
HETATM   33  C   UNL     1      38.468 -12.863  -1.923  1.00  0.00     0.043 A 
HETATM   34  C   UNL     1      38.813 -11.525   0.053  1.00  0.00     0.014 A 
HETATM   35  C   UNL     1      37.830 -11.806  -2.582  1.00  0.00     0.030 A 
HETATM   36  N   UNL     1      38.743 -14.138  -2.358  1.00  0.00    -0.364 N 
HETATM   37  C   UNL     1      37.696 -10.598  -1.893  1.00  0.00     0.002 A 
HETATM   38  C   UNL     1      38.180 -10.457  -0.594  1.00  0.00     0.001 A 
HETATM   39  H   UNL     1      38.497 -14.497  -3.271  1.00  0.00     0.165 HD
HETATM   40  C   UNL     1      39.410 -14.835  -1.390  1.00  0.00     0.102 A 
ENDBRANCH  30  31
ENDBRANCH   3  29
TORSDOF 5
ENDMDL
MODEL 4
REMARK VINA RESULT:     -10.1      1.646      2.461
REMARK  5 active torsions:
REMARK  status: ('A' for Active; 'I' for Inactive)
REMARK    1  A    between atoms: C_4  and  N_5 
REMARK       I    between atoms: N_5  and  C_6 
REMARK    2  A    between atoms: C_6  and  C_7 
REMARK    3  A    between atoms: C_8  and  N_9 
REMARK    4  A    between atoms: N_10  and  N_11 
REMARK    5  A    between atoms: C_12  and  C_13 
ROOT
HETATM    1  C   UNL     1      40.550 -14.819   2.380  1.00  0.00     0.105 C 
HETATM    2  C   UNL     1      40.399 -13.905   3.417  1.00  0.00     0.123 C 
HETATM    3  N   UNL     1      41.395 -14.116   4.360  1.00  0.00    -0.202 N 
HETATM    4  C   UNL     1      42.026 -15.308   4.058  1.00  0.00     0.183 A 
HETATM    5  C   UNL     1      41.531 -15.748   2.833  1.00  0.00     0.124 A 
HETATM    6  N   UNL     1      41.982 -16.905   2.280  1.00  0.00    -0.242 NA
HETATM    7  C   UNL     1      42.857 -17.595   3.029  1.00  0.00     0.086 A 
HETATM    8  C   UNL     1      43.328 -17.128   4.283  1.00  0.00     0.088 A 
HETATM    9  N   UNL     1      42.942 -15.958   4.815  1.00  0.00    -0.225 NA
HETATM   10  C   UNL     1      43.305 -18.824   2.561  1.00  0.00     0.034 A 
HETATM   11  C   UNL     1      44.191 -19.610   3.300  1.00  0.00     0.002 A 
HETATM   12  C   UNL     1      44.648 -19.154   4.529  1.00  0.00     0.002 A 
HETATM   13  C   UNL     1      44.215 -17.915   5.005  1.00  0.00     0.034 A 
ENDROOT
BRANCH   1  14
HETATM   14  C   UNL     1      39.827 -14.820   1.103  1.00  0.00     0.262 C 
HETATM   15  N   UNL     1      39.502 -13.544   0.675  1.00  0.00    -0.323 N 
HETATM   16  H   UNL     1      39.792 -12.797   1.303  1.00  0.00     0.169 HD
HETATM   17  O   UNL     1      39.559 -15.854   0.505  1.00  0.00    -0.267 OA
BRANCH  15  18
HETATM   18  C   UNL     1      38.821 -13.138  -0.483  1.00  0.00     0.036 A 
HETATM   19  C   UNL     1      38.191 -11.904  -0.633  1.00  0.00     0.036 A 
HETATM   20  C   UNL     1      37.515 -11.591  -1.824  1.00  0.00    -0.059 A 
HETATM   21  C   UNL     1      36.828 -10.265  -1.969  1.00  0.00     0.048 C 
HETATM   22  C   UNL     1      37.522 -12.508  -2.884  1.00  0.00     0.013 A 
HETATM   23  C   UNL     1      38.147 -13.750  -2.748  1.00  0.00    -0.059 A 
HETATM   24  C   UNL     1      38.783 -14.058  -1.540  1.00  0.00     0.036 A 
HETATM   25  C   UNL     1      38.203 -14.712  -3.897  1.00  0.00     0.048 C 
ENDBRANCH  15  18
ENDBRANCH   1  14
BRANCH   2  26
HETATM   26  N   UNL     1      39.501 -12.879   3.596  1.00  0.00    -0.286 NA
HETATM   27  H   UNL     1      38.644 -13.140   4.093  1.00  0.00     0.125 HD
HETATM   28  H   UNL     1      39.907 -12.093   4.124  1.00  0.00     0.125 HD
ENDBRANCH   2  26
BRANCH   3  29
HETATM   29  N   UNL     1      41.545 -13.269   5.428  1.00  0.00    -0.176 NA
HETATM   30  C   UNL     1      42.420 -12.331   5.267  1.00  0.00     0.153 C 
BRANCH  30  31
HETATM   31  C   UNL     1      42.616 -11.384   6.346  1.00  0.00     0.011 A 
HETATM   32  C   UNL     1      43.859 -10.988   6.939  1.00  0.00     0.004 A 
HETATM   33  C   UNL     1      43.568 -10.037   7.919  1.00  0.00     0.043 A 
HETATM   34  C   UNL     1      45.210 -11.331   6.719  1.00  0.00     0.014 A 
HETATM   35  C   UNL     1      44.556  -9.416   8.692  1.00  0.00     0.030 A 
HETATM   36  N   UNL     1      42.203  -9.871   7.932  1.00  0.00    -0.364 N 
HETATM   37  C   UNL     1      45.886  -9.772   8.453  1.00  0.00     0.002 A 
HETATM   38  C   UNL     1      46.211 -10.716   7.481  1.00  0.00     0.001 A 
HETATM   39  H   UNL     1      41.708  -9.240   8.548  1.00  0.00     0.165 HD
HETATM   40  C   UNL     1      41.621 -10.666   6.984  1.00  0.00     0.102 A 
ENDBRANCH  30  31
ENDBRANCH   3  29
TORSDOF 5
ENDMDL
MODEL 5
REMARK VINA RESULT:     -10.0      4.029      8.631
REMARK  5 active torsions:
REMARK  status: ('A' for Active; 'I' for Inactive)
REMARK    1  A    between atoms: C_4  and  N_5 
REMARK       I    between atoms: N_5  and  C_6 
REMARK    2  A    between atoms: C_6  and  C_7 
REMARK    3  A    between atoms: C_8  and  N_9 
REMARK    4  A    between atoms: N_10  and  N_11 
REMARK    5  A    between atoms: C_12  and  C_13 
ROOT
HETATM    1  C   UNL     1      41.436 -12.785   1.698  1.00  0.00     0.105 C 
HETATM    2  C   UNL     1      41.737 -11.433   1.575  1.00  0.00     0.123 C 
HETATM    3  N   UNL     1      40.989 -10.891   0.539  1.00  0.00    -0.202 N 
HETATM    4  C   UNL     1      40.402 -11.932  -0.157  1.00  0.00     0.183 A 
HETATM    5  C   UNL     1      40.653 -13.106   0.551  1.00  0.00     0.124 A 
HETATM    6  N   UNL     1      40.184 -14.298   0.098  1.00  0.00    -0.242 NA
HETATM    7  C   UNL     1      39.549 -14.254  -1.083  1.00  0.00     0.086 A 
HETATM    8  C   UNL     1      39.327 -13.043  -1.789  1.00  0.00     0.088 A 
HETATM    9  N   UNL     1      39.726 -11.848  -1.327  1.00  0.00    -0.225 NA
HETATM   10  C   UNL     1      39.107 -15.446  -1.644  1.00  0.00     0.034 A 
HETATM   11  C   UNL     1      38.467 -15.479  -2.884  1.00  0.00     0.002 A 
HETATM   12  C   UNL     1      38.254 -14.295  -3.575  1.00  0.00     0.002 A 
HETATM   13  C   UNL     1      38.682 -13.089  -3.018  1.00  0.00     0.034 A 
ENDROOT
BRANCH   1  14
HETATM   14  C   UNL     1      41.861 -13.682   2.779  1.00  0.00     0.262 C 
HETATM   15  N   UNL     1      42.386 -14.872   2.306  1.00  0.00    -0.323 N 
HETATM   16  H   UNL     1      42.390 -14.964   1.293  1.00  0.00     0.169 HD
HETATM   17  O   UNL     1      41.753 -13.378   3.960  1.00  0.00    -0.267 OA
BRANCH  15  18
HETATM   18  C   UNL     1      42.895 -15.969   3.020  1.00  0.00     0.036 A 
HETATM   19  C   UNL     1      43.329 -15.913   4.344  1.00  0.00     0.036 A 
HETATM   20  C   UNL     1      43.843 -17.059   4.972  1.00  0.00    -0.059 A 
HETATM   21  C   UNL     1      44.319 -16.984   6.393  1.00  0.00     0.048 C 
HETATM   22  C   UNL     1      43.871 -18.275   4.276  1.00  0.00     0.013 A 
HETATM   23  C   UNL     1      43.444 -18.347   2.947  1.00  0.00    -0.059 A 
HETATM   24  C   UNL     1      42.969 -17.185   2.326  1.00  0.00     0.036 A 
HETATM   25  C   UNL     1      43.422 -19.655   2.216  1.00  0.00     0.048 C 
ENDBRANCH  15  18
ENDBRANCH   1  14
BRANCH   2  26
HETATM   26  N   UNL     1      42.569 -10.622   2.308  1.00  0.00    -0.286 NA
HETATM   27  H   UNL     1      43.357 -11.103   2.752  1.00  0.00     0.125 HD
HETATM   28  H   UNL     1      42.980  -9.868   1.738  1.00  0.00     0.125 HD
ENDBRANCH   2  26
BRANCH   3  29
HETATM   29  N   UNL     1      41.009  -9.544   0.286  1.00  0.00    -0.176 NA
HETATM   30  C   UNL     1      41.744  -9.181  -0.712  1.00  0.00     0.153 C 
BRANCH  30  31
HETATM   31  C   UNL     1      41.795  -7.774  -1.052  1.00  0.00     0.011 A 
HETATM   32  C   UNL     1      42.011  -7.199  -2.346  1.00  0.00     0.004 A 
HETATM   33  C   UNL     1      41.950  -5.811  -2.201  1.00  0.00     0.043 A 
HETATM   34  C   UNL     1      42.231  -7.728  -3.635  1.00  0.00     0.014 A 
HETATM   35  C   UNL     1      42.102  -4.928  -3.277  1.00  0.00     0.030 A 
HETATM   36  N   UNL     1      41.720  -5.551  -0.871  1.00  0.00    -0.364 N 
HETATM   37  C   UNL     1      42.316  -5.479  -4.543  1.00  0.00     0.002 A 
HETATM   38  C   UNL     1      42.380  -6.859  -4.722  1.00  0.00     0.001 A 
HETATM   39  H   UNL     1      41.629  -4.625  -0.475  1.00  0.00     0.165 HD
HETATM   40  C   UNL     1      41.613  -6.721  -0.172  1.00  0.00     0.102 A 
ENDBRANCH  30  31
ENDBRANCH   3  29
TORSDOF 5
ENDMDL
MODEL 6
REMARK VINA RESULT:      -9.7      1.858      6.859
REMARK  5 active torsions:
REMARK  status: ('A' for Active; 'I' for Inactive)
REMARK    1  A    between atoms: C_4  and  N_5 
REMARK       I    between atoms: N_5  and  C_6 
REMARK    2  A    between atoms: C_6  and  C_7 
REMARK    3  A    between atoms: C_8  and  N_9 
REMARK    4  A    between atoms: N_10  and  N_11 
REMARK    5  A    between atoms: C_12  and  C_13 
ROOT
HETATM    1  C   UNL     1      41.594 -12.599   2.162  1.00  0.00     0.105 C 
HETATM    2  C   UNL     1      42.251 -13.823   2.228  1.00  0.00     0.123 C 
HETATM    3  N   UNL     1      42.641 -14.061   3.539  1.00  0.00    -0.202 N 
HETATM    4  C   UNL     1      42.459 -12.896   4.260  1.00  0.00     0.183 A 
HETATM    5  C   UNL     1      41.800 -11.988   3.433  1.00  0.00     0.124 A 
HETATM    6  N   UNL     1      41.482 -10.747   3.886  1.00  0.00    -0.242 NA
HETATM    7  C   UNL     1      41.911 -10.461   5.126  1.00  0.00     0.086 A 
HETATM    8  C   UNL     1      42.597 -11.402   5.935  1.00  0.00     0.088 A 
HETATM    9  N   UNL     1      42.864 -12.653   5.529  1.00  0.00    -0.225 NA
HETATM   10  C   UNL     1      41.686  -9.184   5.627  1.00  0.00     0.034 A 
HETATM   11  C   UNL     1      42.132  -8.807   6.895  1.00  0.00     0.002 A 
HETATM   12  C   UNL     1      42.806  -9.727   7.684  1.00  0.00     0.002 A 
HETATM   13  C   UNL     1      43.027 -11.017   7.198  1.00  0.00     0.034 A 
ENDROOT
BRANCH   1  14
HETATM   14  C   UNL     1      40.864 -12.059   1.010  1.00  0.00     0.262 C 
HETATM   15  N   UNL     1      39.905 -12.935   0.530  1.00  0.00    -0.323 N 
HETATM   16  H   UNL     1      39.851 -13.821   1.027  1.00  0.00     0.169 HD
HETATM   17  O   UNL     1      41.100 -10.950   0.548  1.00  0.00    -0.267 OA
BRANCH  15  18
HETATM   18  C   UNL     1      39.014 -12.782  -0.544  1.00  0.00     0.036 A 
HETATM   19  C   UNL     1      38.192 -11.673  -0.732  1.00  0.00     0.036 A 
HETATM   20  C   UNL     1      37.315 -11.616  -1.828  1.00  0.00    -0.059 A 
HETATM   21  C   UNL     1      36.425 -10.422  -2.013  1.00  0.00     0.048 C 
HETATM   22  C   UNL     1      37.309 -12.660  -2.763  1.00  0.00     0.013 A 
HETATM   23  C   UNL     1      38.125 -13.780  -2.587  1.00  0.00    -0.059 A 
HETATM   24  C   UNL     1      38.965 -13.836  -1.468  1.00  0.00     0.036 A 
HETATM   25  C   UNL     1      38.161 -14.874  -3.612  1.00  0.00     0.048 C 
ENDBRANCH  15  18
ENDBRANCH   1  14
BRANCH   2  26
HETATM   26  N   UNL     1      42.504 -14.767   1.263  1.00  0.00    -0.286 NA
HETATM   27  H   UNL     1      41.685 -15.056   0.720  1.00  0.00     0.125 HD
HETATM   28  H   UNL     1      43.201 -14.445   0.575  1.00  0.00     0.125 HD
ENDBRANCH   2  26
BRANCH   3  29
HETATM   29  N   UNL     1      43.204 -15.258   3.900  1.00  0.00    -0.176 NA
HETATM   30  C   UNL     1      42.440 -16.041   4.587  1.00  0.00     0.153 C 
BRANCH  30  31
HETATM   31  C   UNL     1      42.961 -17.333   4.984  1.00  0.00     0.011 A 
HETATM   32  C   UNL     1      43.301 -18.432   4.131  1.00  0.00     0.004 A 
HETATM   33  C   UNL     1      43.789 -19.457   4.946  1.00  0.00     0.043 A 
HETATM   34  C   UNL     1      43.263 -18.647   2.737  1.00  0.00     0.014 A 
HETATM   35  C   UNL     1      44.234 -20.683   4.438  1.00  0.00     0.030 A 
HETATM   36  N   UNL     1      43.735 -19.005   6.243  1.00  0.00    -0.364 N 
HETATM   37  C   UNL     1      44.187 -20.869   3.054  1.00  0.00     0.002 A 
HETATM   38  C   UNL     1      43.709 -19.866   2.214  1.00  0.00     0.001 A 
HETATM   39  H   UNL     1      44.026 -19.541   7.049  1.00  0.00     0.165 HD
HETATM   40  C   UNL     1      43.251 -17.727   6.278  1.00  0.00     0.102 A 
ENDBRANCH  30  31
ENDBRANCH   3  29
TORSDOF 5
ENDMDL
MODEL 7
REMARK VINA RESULT:      -9.7      1.693      2.130
REMARK  5 active torsions:
REMARK  status: ('A' for Active; 'I' for Inactive)
REMARK    1  A    between atoms: C_4  and  N_5 
REMARK       I    between atoms: N_5  and  C_6 
REMARK    2  A    between atoms: C_6  and  C_7 
REMARK    3  A    between atoms: C_8  and  N_9 
REMARK    4  A    between atoms: N_10  and  N_11 
REMARK    5  A    between atoms: C_12  and  C_13 
ROOT
HETATM    1  C   UNL     1      41.081 -12.789   2.282  1.00  0.00     0.105 C 
HETATM    2  C   UNL     1      40.802 -12.040   3.420  1.00  0.00     0.123 C 
HETATM    3  N   UNL     1      41.518 -12.554   4.492  1.00  0.00    -0.202 N 
HETATM    4  C   UNL     1      42.057 -13.767   4.106  1.00  0.00     0.183 A 
HETATM    5  C   UNL     1      41.812 -13.922   2.743  1.00  0.00     0.124 A 
HETATM    6  N   UNL     1      42.239 -15.033   2.087  1.00  0.00    -0.242 NA
HETATM    7  C   UNL     1      42.828 -15.963   2.856  1.00  0.00     0.086 A 
HETATM    8  C   UNL     1      43.045 -15.782   4.246  1.00  0.00     0.088 A 
HETATM    9  N   UNL     1      42.688 -14.665   4.899  1.00  0.00    -0.225 NA
HETATM   10  C   UNL     1      43.224 -17.157   2.266  1.00  0.00     0.034 A 
HETATM   11  C   UNL     1      43.813 -18.180   3.010  1.00  0.00     0.002 A 
HETATM   12  C   UNL     1      44.022 -18.004   4.370  1.00  0.00     0.002 A 
HETATM   13  C   UNL     1      43.641 -16.804   4.973  1.00  0.00     0.034 A 
ENDROOT
BRANCH   1  14
HETATM   14  C   UNL     1      40.681 -12.473   0.906  1.00  0.00     0.262 C 
HETATM   15  N   UNL     1      39.464 -13.037   0.564  1.00  0.00    -0.323 N 
HETATM   16  H   UNL     1      39.031 -13.595   1.297  1.00  0.00     0.169 HD
HETATM   17  O   UNL     1      41.370 -11.780   0.168  1.00  0.00    -0.267 OA
BRANCH  15  18
HETATM   18  C   UNL     1      38.755 -12.963  -0.646  1.00  0.00     0.036 A 
HETATM   19  C   UNL     1      38.777 -13.947  -1.632  1.00  0.00     0.036 A 
HETATM   20  C   UNL     1      38.049 -13.778  -2.822  1.00  0.00    -0.059 A 
HETATM   21  C   UNL     1      38.092 -14.838  -3.882  1.00  0.00     0.048 C 
HETATM   22  C   UNL     1      37.258 -12.634  -2.991  1.00  0.00     0.013 A 
HETATM   23  C   UNL     1      37.228 -11.636  -2.013  1.00  0.00    -0.059 A 
HETATM   24  C   UNL     1      37.989 -11.806  -0.850  1.00  0.00     0.036 A 
HETATM   25  C   UNL     1      36.341 -10.436  -2.165  1.00  0.00     0.048 C 
ENDBRANCH  15  18
ENDBRANCH   1  14
BRANCH   2  26
HETATM   26  N   UNL     1      40.015 -10.928   3.600  1.00  0.00    -0.286 NA
HETATM   27  H   UNL     1      39.324 -10.766   2.862  1.00  0.00     0.125 HD
HETATM   28  H   UNL     1      39.485 -10.963   4.483  1.00  0.00     0.125 HD
ENDBRANCH   2  26
BRANCH   3  29
HETATM   29  N   UNL     1      41.515 -11.922   5.709  1.00  0.00    -0.176 NA
HETATM   30  C   UNL     1      42.471 -11.072   5.890  1.00  0.00     0.153 C 
BRANCH  30  31
HETATM   31  C   UNL     1      42.518 -10.349   7.145  1.00  0.00     0.011 A 
HETATM   32  C   UNL     1      43.640 -10.209   8.025  1.00  0.00     0.004 A 
HETATM   33  C   UNL     1      43.232  -9.408   9.094  1.00  0.00     0.043 A 
HETATM   34  C   UNL     1      44.973 -10.670   8.004  1.00  0.00     0.014 A 
HETATM   35  C   UNL     1      44.088  -9.048  10.142  1.00  0.00     0.030 A 
HETATM   36  N   UNL     1      41.913  -9.084   8.880  1.00  0.00    -0.364 N 
HETATM   37  C   UNL     1      45.403  -9.516  10.096  1.00  0.00     0.002 A 
HETATM   38  C   UNL     1      45.842 -10.315   9.043  1.00  0.00     0.001 A 
HETATM   39  H   UNL     1      41.356  -8.510   9.498  1.00  0.00     0.165 HD
HETATM   40  C   UNL     1      41.476  -9.634   7.707  1.00  0.00     0.102 A 
ENDBRANCH  30  31
ENDBRANCH   3  29
TORSDOF 5
ENDMDL
MODEL 8
REMARK VINA RESULT:      -9.5      1.560      2.632
REMARK  5 active torsions:
REMARK  status: ('A' for Active; 'I' for Inactive)
REMARK    1  A    between atoms: C_4  and  N_5 
REMARK       I    between atoms: N_5  and  C_6 
REMARK    2  A    between atoms: C_6  and  C_7 
REMARK    3  A    between atoms: C_8  and  N_9 
REMARK    4  A    between atoms: N_10  and  N_11 
REMARK    5  A    between atoms: C_12  and  C_13 
ROOT
HETATM    1  C   UNL     1      40.251 -12.514   3.481  1.00  0.00     0.105 C 
HETATM    2  C   UNL     1      39.985 -11.662   4.548  1.00  0.00     0.123 C 
HETATM    3  N   UNL     1      40.902 -11.900   5.561  1.00  0.00    -0.202 N 
HETATM    4  C   UNL     1      41.593 -13.057   5.253  1.00  0.00     0.183 A 
HETATM    5  C   UNL     1      41.216 -13.442   3.968  1.00  0.00     0.124 A 
HETATM    6  N   UNL     1      41.747 -14.555   3.397  1.00  0.00    -0.242 NA
HETATM    7  C   UNL     1      42.575 -15.263   4.182  1.00  0.00     0.086 A 
HETATM    8  C   UNL     1      42.923 -14.854   5.494  1.00  0.00     0.088 A 
HETATM    9  N   UNL     1      42.459 -13.724   6.052  1.00  0.00    -0.225 NA
HETATM   10  C   UNL     1      43.098 -16.454   3.690  1.00  0.00     0.034 A 
HETATM   11  C   UNL     1      43.940 -17.256   4.462  1.00  0.00     0.002 A 
HETATM   12  C   UNL     1      44.276 -16.857   5.747  1.00  0.00     0.002 A 
HETATM   13  C   UNL     1      43.768 -15.657   6.248  1.00  0.00     0.034 A 
ENDROOT
BRANCH   1  14
HETATM   14  C   UNL     1      39.640 -12.463   2.147  1.00  0.00     0.262 C 
HETATM   15  N   UNL     1      40.525 -12.817   1.144  1.00  0.00    -0.323 N 
HETATM   16  H   UNL     1      41.464 -13.046   1.464  1.00  0.00     0.169 HD
HETATM   17  O   UNL     1      38.472 -12.140   1.976  1.00  0.00    -0.267 OA
BRANCH  15  18
HETATM   18  C   UNL     1      40.319 -12.891  -0.243  1.00  0.00     0.036 A 
HETATM   19  C   UNL     1      40.730 -11.918  -1.152  1.00  0.00     0.036 A 
HETATM   20  C   UNL     1      40.462 -12.067  -2.523  1.00  0.00    -0.059 A 
HETATM   21  C   UNL     1      40.897 -11.007  -3.491  1.00  0.00     0.048 C 
HETATM   22  C   UNL     1      39.822 -13.228  -2.979  1.00  0.00     0.013 A 
HETATM   23  C   UNL     1      39.401 -14.211  -2.080  1.00  0.00    -0.059 A 
HETATM   24  C   UNL     1      39.645 -14.027  -0.714  1.00  0.00     0.036 A 
HETATM   25  C   UNL     1      38.765 -15.478  -2.569  1.00  0.00     0.048 C 
ENDBRANCH  15  18
ENDBRANCH   1  14
BRANCH   2  26
HETATM   26  N   UNL     1      39.046 -10.671   4.701  1.00  0.00    -0.286 NA
HETATM   27  H   UNL     1      39.411  -9.717   4.622  1.00  0.00     0.125 HD
HETATM   28  H   UNL     1      38.286 -10.742   4.008  1.00  0.00     0.125 HD
ENDBRANCH   2  26
BRANCH   3  29
HETATM   29  N   UNL     1      40.936 -11.109   6.681  1.00  0.00    -0.176 NA
HETATM   30  C   UNL     1      41.864 -10.210   6.692  1.00  0.00     0.153 C 
BRANCH  30  31
HETATM   31  C   UNL     1      41.946  -9.322   7.834  1.00  0.00     0.011 A 
HETATM   32  C   UNL     1      42.791  -9.460   8.983  1.00  0.00     0.004 A 
HETATM   33  C   UNL     1      42.552  -8.360   9.809  1.00  0.00     0.043 A 
HETATM   34  C   UNL     1      43.757 -10.405   9.389  1.00  0.00     0.014 A 
HETATM   35  C   UNL     1      43.226  -8.160  11.020  1.00  0.00     0.030 A 
HETATM   36  N   UNL     1      41.591  -7.591   9.196  1.00  0.00    -0.364 N 
HETATM   37  C   UNL     1      44.178  -9.110  11.398  1.00  0.00     0.002 A 
HETATM   38  C   UNL     1      44.442 -10.217  10.595  1.00  0.00     0.001 A 
HETATM   39  H   UNL     1      41.221  -6.729   9.571  1.00  0.00     0.165 HD
HETATM   40  C   UNL     1      41.227  -8.153   8.004  1.00  0.00     0.102 A 
ENDBRANCH  30  31
ENDBRANCH   3  29
TORSDOF 5
ENDMDL
MODEL 9
REMARK VINA RESULT:      -9.5      2.132      8.691
REMARK  5 active torsions:
REMARK  status: ('A' for Active; 'I' for Inactive)
REMARK    1  A    between atoms: C_4  and  N_5 
REMARK       I    between atoms: N_5  and  C_6 
REMARK    2  A    between atoms: C_6  and  C_7 
REMARK    3  A    between atoms: C_8  and  N_9 
REMARK    4  A    between atoms: N_10  and  N_11 
REMARK    5  A    between atoms: C_12  and  C_13 
ROOT
HETATM    1  C   UNL     1      40.400 -12.277   4.531  1.00  0.00     0.105 C 
HETATM    2  C   UNL     1      40.670 -13.487   5.161  1.00  0.00     0.123 C 
HETATM    3  N   UNL     1      40.877 -14.466   4.199  1.00  0.00    -0.202 N 
HETATM    4  C   UNL     1      40.500 -13.951   2.974  1.00  0.00     0.183 A 
HETATM    5  C   UNL     1      40.218 -12.599   3.154  1.00  0.00     0.124 A 
HETATM    6  N   UNL     1      39.824 -11.829   2.106  1.00  0.00    -0.242 NA
HETATM    7  C   UNL     1      39.664 -12.482   0.944  1.00  0.00     0.086 A 
HETATM    8  C   UNL     1      39.941 -13.865   0.797  1.00  0.00     0.088 A 
HETATM    9  N   UNL     1      40.392 -14.627   1.806  1.00  0.00    -0.225 NA
HETATM   10  C   UNL     1      39.191 -11.774  -0.155  1.00  0.00     0.034 A 
HETATM   11  C   UNL     1      38.971 -12.394  -1.386  1.00  0.00     0.002 A 
HETATM   12  C   UNL     1      39.239 -13.748  -1.527  1.00  0.00     0.002 A 
HETATM   13  C   UNL     1      39.726 -14.468  -0.435  1.00  0.00     0.034 A 
ENDROOT
BRANCH   1  14
HETATM   14  C   UNL     1      40.307 -10.960   5.170  1.00  0.00     0.262 C 
HETATM   15  N   UNL     1      40.750 -10.972   6.481  1.00  0.00    -0.323 N 
HETATM   16  H   UNL     1      41.060 -11.882   6.817  1.00  0.00     0.169 HD
HETATM   17  O   UNL     1      39.882  -9.975   4.578  1.00  0.00    -0.267 OA
BRANCH  15  18
HETATM   18  C   UNL     1      40.819  -9.923   7.410  1.00  0.00     0.036 A 
HETATM   19  C   UNL     1      39.732  -9.450   8.145  1.00  0.00     0.036 A 
HETATM   20  C   UNL     1      39.890  -8.379   9.040  1.00  0.00    -0.059 A 
HETATM   21  C   UNL     1      38.711  -7.870   9.814  1.00  0.00     0.048 C 
HETATM   22  C   UNL     1      41.161  -7.820   9.230  1.00  0.00     0.013 A 
HETATM   23  C   UNL     1      42.260  -8.280   8.498  1.00  0.00    -0.059 A 
HETATM   24  C   UNL     1      42.074  -9.324   7.584  1.00  0.00     0.036 A 
HETATM   25  C   UNL     1      43.631  -7.721   8.737  1.00  0.00     0.048 C 
ENDBRANCH  15  18
ENDBRANCH   1  14
BRANCH   2  26
HETATM   26  N   UNL     1      40.795 -13.806   6.492  1.00  0.00    -0.286 NA
HETATM   27  H   UNL     1      40.204 -13.256   7.123  1.00  0.00     0.125 HD
HETATM   28  H   UNL     1      40.568 -14.793   6.679  1.00  0.00     0.125 HD
ENDBRANCH   2  26
BRANCH   3  29
HETATM   29  N   UNL     1      41.281 -15.728   4.554  1.00  0.00    -0.176 NA
HETATM   30  C   UNL     1      42.541 -15.966   4.402  1.00  0.00     0.153 C 
BRANCH  30  31
HETATM   31  C   UNL     1      43.044 -17.272   4.778  1.00  0.00     0.011 A 
HETATM   32  C   UNL     1      43.275 -18.394   3.919  1.00  0.00     0.004 A 
HETATM   33  C   UNL     1      43.786 -19.426   4.710  1.00  0.00     0.043 A 
HETATM   34  C   UNL     1      43.121 -18.625   2.535  1.00  0.00     0.014 A 
HETATM   35  C   UNL     1      44.146 -20.674   4.189  1.00  0.00     0.030 A 
HETATM   36  N   UNL     1      43.850 -18.955   6.000  1.00  0.00    -0.364 N 
HETATM   37  C   UNL     1      43.985 -20.876   2.816  1.00  0.00     0.002 A 
HETATM   38  C   UNL     1      43.480 -19.867   1.999  1.00  0.00     0.001 A 
HETATM   39  H   UNL     1      44.183 -19.491   6.790  1.00  0.00     0.165 HD
HETATM   40  C   UNL     1      43.418 -17.659   6.052  1.00  0.00     0.102 A 
ENDBRANCH  30  31
ENDBRANCH   3  29
TORSDOF 5
ENDMDL
MODEL 10
REMARK VINA RESULT:      -9.5      3.561      8.895
REMARK  5 active torsions:
REMARK  status: ('A' for Active; 'I' for Inactive)
REMARK    1  A    between atoms: C_4  and  N_5 
REMARK       I    between atoms: N_5  and  C_6 
REMARK    2  A    between atoms: C_6  and  C_7 
REMARK    3  A    between atoms: C_8  and  N_9 
REMARK    4  A    between atoms: N_10  and  N_11 
REMARK    5  A    between atoms: C_12  and  C_13 
ROOT
HETATM    1  C   UNL     1      40.222 -14.121   1.547  1.00  0.00     0.105 C 
HETATM    2  C   UNL     1      40.052 -13.625   0.259  1.00  0.00     0.123 C 
HETATM    3  N   UNL     1      39.877 -12.249   0.319  1.00  0.00    -0.202 N 
HETATM    4  C   UNL     1      39.688 -11.898   1.642  1.00  0.00     0.183 A 
HETATM    5  C   UNL     1      39.911 -13.035   2.416  1.00  0.00     0.124 A 
HETATM    6  N   UNL     1      39.799 -12.982   3.769  1.00  0.00    -0.242 NA
HETATM    7  C   UNL     1      39.396 -11.802   4.266  1.00  0.00     0.086 A 
HETATM    8  C   UNL     1      39.157 -10.668   3.448  1.00  0.00     0.088 A 
HETATM    9  N   UNL     1      39.324 -10.683   2.116  1.00  0.00    -0.225 NA
HETATM   10  C   UNL     1      39.187 -11.695   5.636  1.00  0.00     0.034 A 
HETATM   11  C   UNL     1      38.738 -10.509   6.217  1.00  0.00     0.002 A 
HETATM   12  C   UNL     1      38.501  -9.401   5.416  1.00  0.00     0.002 A 
HETATM   13  C   UNL     1      38.718  -9.491   4.040  1.00  0.00     0.034 A 
ENDROOT
BRANCH   1  14
HETATM   14  C   UNL     1      40.618 -15.485   1.914  1.00  0.00     0.262 C 
HETATM   15  N   UNL     1      41.728 -15.513   2.740  1.00  0.00    -0.323 N 
HETATM   16  H   UNL     1      42.117 -14.598   2.962  1.00  0.00     0.169 HD
HETATM   17  O   UNL     1      40.009 -16.471   1.518  1.00  0.00    -0.267 OA
BRANCH  15  18
HETATM   18  C   UNL     1      42.398 -16.612   3.298  1.00  0.00     0.036 A 
HETATM   19  C   UNL     1      42.705 -16.743   4.652  1.00  0.00     0.036 A 
HETATM   20  C   UNL     1      43.398 -17.872   5.118  1.00  0.00    -0.059 A 
HETATM   21  C   UNL     1      43.735 -17.995   6.575  1.00  0.00     0.048 C 
HETATM   22  C   UNL     1      43.734 -18.895   4.221  1.00  0.00     0.013 A 
HETATM   23  C   UNL     1      43.437 -18.778   2.861  1.00  0.00    -0.059 A 
HETATM   24  C   UNL     1      42.779 -17.628   2.410  1.00  0.00     0.036 A 
HETATM   25  C   UNL     1      43.747 -19.893   1.907  1.00  0.00     0.048 C 
ENDBRANCH  15  18
ENDBRANCH   1  14
BRANCH   2  26
HETATM   26  N   UNL     1      40.079 -14.253  -0.963  1.00  0.00    -0.286 NA
HETATM   27  H   UNL     1      39.238 -14.120  -1.533  1.00  0.00     0.125 HD
HETATM   28  H   UNL     1      40.869 -13.941  -1.545  1.00  0.00     0.125 HD
ENDBRANCH   2  26
BRANCH   3  29
HETATM   29  N   UNL     1      39.810 -11.498  -0.826  1.00  0.00    -0.176 NA
HETATM   30  C   UNL     1      40.827 -10.732  -1.042  1.00  0.00     0.153 C 
BRANCH  30  31
HETATM   31  C   UNL     1      40.835  -9.925  -2.246  1.00  0.00     0.011 A 
HETATM   32  C   UNL     1      41.648  -8.777  -2.517  1.00  0.00     0.004 A 
HETATM   33  C   UNL     1      41.336  -8.341  -3.807  1.00  0.00     0.043 A 
HETATM   34  C   UNL     1      42.640  -8.078  -1.796  1.00  0.00     0.014 A 
HETATM   35  C   UNL     1      41.961  -7.243  -4.409  1.00  0.00     0.030 A 
HETATM   36  N   UNL     1      40.363  -9.181  -4.295  1.00  0.00    -0.364 N 
HETATM   37  C   UNL     1      42.941  -6.570  -3.674  1.00  0.00     0.002 A 
HETATM   38  C   UNL     1      43.277  -6.980  -2.386  1.00  0.00     0.001 A 
HETATM   39  H   UNL     1      39.944  -9.101  -5.212  1.00  0.00     0.165 HD
HETATM   40  C   UNL     1      40.061 -10.143  -3.372  1.00  0.00     0.102 A 
ENDBRANCH  30  31
ENDBRANCH   3  29
TORSDOF 5
ENDMDL
