MODEL 1
REMARK VINA RESULT:      -8.2      0.000      0.000
REMARK  2 active torsions:
REMARK  status: ('A' for Active; 'I' for Inactive)
REMARK    1  A    between atoms: N_8  and  C_9 
REMARK    2  A    between atoms: C_11  and  C_12 
ROOT
HETATM    1  C   UNL     1      42.628 -10.670   5.723  1.00  0.00     0.269 C 
HETATM    2  N   UNL     1      43.426 -11.819   5.168  1.00  0.00    -0.075 N 
HETATM    3  H   UNL     1      44.291 -11.830   5.727  1.00  0.00     0.279 HD
HETATM    4  C   UNL     1      42.790 -13.166   5.410  1.00  0.00     0.235 C 
HETATM    5  C   UNL     1      41.633 -13.392   4.445  1.00  0.00     0.039 C 
HETATM    6  C   UNL     1      42.051 -13.260   2.957  1.00  0.00    -0.021 C 
HETATM    7  C   UNL     1      43.023 -14.396   2.547  1.00  0.00     0.151 C 
HETATM    8  N   UNL     1      42.322 -15.656   2.697  1.00  0.00    -0.213 N 
HETATM    9  C   UNL     1      41.202 -15.881   1.793  1.00  0.00     0.141 C 
HETATM   10  C   UNL     1      40.174 -14.763   2.016  1.00  0.00     0.021 C 
HETATM   11  C   UNL     1      40.806 -13.363   2.029  1.00  0.00     0.013 C 
HETATM   12  C   UNL     1      42.723 -11.880   2.765  1.00  0.00     0.039 C 
HETATM   13  C   UNL     1      43.866 -11.618   3.743  1.00  0.00     0.235 C 
ENDROOT
BRANCH   8  14
HETATM   14  C   UNL     1      42.965 -16.717   3.285  1.00  0.00     0.724 A 
HETATM   15  N   UNL     1      42.895 -17.905   2.663  1.00  0.00    -0.058 NA
HETATM   16  C   UNL     1      43.601 -18.951   3.173  1.00  0.00     0.160 A 
HETATM   17  C   UNL     1      44.361 -18.826   4.317  1.00  0.00     0.057 A 
HETATM   18  C   UNL     1      44.375 -17.580   4.886  1.00  0.00     0.139 A 
HETATM   19  N   UNL     1      43.704 -16.528   4.384  1.00  0.00    -0.075 NA
BRANCH  16  20
HETATM   20  C   UNL     1      43.542 -20.283   2.450  1.00  0.00     0.435 C 
HETATM   21  F   UNL     1      42.336 -20.512   1.846  1.00  0.00    -0.165 F 
HETATM   22  F   UNL     1      44.471 -20.388   1.459  1.00  0.00    -0.165 F 
HETATM   23  F   UNL     1      43.751 -21.344   3.276  1.00  0.00    -0.165 F 
ENDBRANCH  16  20
ENDBRANCH   8  14
TORSDOF 2
ENDMDL
MODEL 2
REMARK VINA RESULT:      -7.7      1.912      3.269
REMARK  2 active torsions:
REMARK  status: ('A' for Active; 'I' for Inactive)
REMARK    1  A    between atoms: N_8  and  C_9 
REMARK    2  A    between atoms: C_11  and  C_12 
ROOT
HETATM    1  C   UNL     1      41.287 -11.294   1.611  1.00  0.00     0.269 C 
HETATM    2  N   UNL     1      41.097 -12.757   1.907  1.00  0.00    -0.075 N 
HETATM    3  H   UNL     1      40.698 -13.149   1.042  1.00  0.00     0.279 HD
HETATM    4  C   UNL     1      42.393 -13.504   2.109  1.00  0.00     0.235 C 
HETATM    5  C   UNL     1      42.969 -13.212   3.489  1.00  0.00     0.039 C 
HETATM    6  C   UNL     1      41.980 -13.540   4.639  1.00  0.00    -0.021 C 
HETATM    7  C   UNL     1      41.716 -15.065   4.730  1.00  0.00     0.151 C 
HETATM    8  N   UNL     1      42.975 -15.717   5.032  1.00  0.00    -0.213 N 
HETATM    9  C   UNL     1      43.547 -15.436   6.341  1.00  0.00     0.141 C 
HETATM   10  C   UNL     1      43.786 -13.923   6.445  1.00  0.00     0.021 C 
HETATM   11  C   UNL     1      42.569 -13.094   6.008  1.00  0.00     0.013 C 
HETATM   12  C   UNL     1      40.661 -12.779   4.373  1.00  0.00     0.039 C 
HETATM   13  C   UNL     1      40.081 -13.032   2.983  1.00  0.00     0.235 C 
ENDROOT
BRANCH   8  14
HETATM   14  C   UNL     1      43.319 -16.860   4.352  1.00  0.00     0.724 A 
HETATM   15  N   UNL     1      43.541 -17.967   5.078  1.00  0.00    -0.058 NA
HETATM   16  C   UNL     1      43.792 -19.135   4.426  1.00  0.00     0.160 A 
HETATM   17  C   UNL     1      43.846 -19.202   3.050  1.00  0.00     0.057 A 
HETATM   18  C   UNL     1      43.608 -18.025   2.390  1.00  0.00     0.139 A 
HETATM   19  N   UNL     1      43.335 -16.866   3.015  1.00  0.00    -0.075 NA
BRANCH  16  20
HETATM   20  C   UNL     1      44.012 -20.390   5.249  1.00  0.00     0.435 C 
HETATM   21  F   UNL     1      43.285 -21.460   4.800  1.00  0.00    -0.165 F 
HETATM   22  F   UNL     1      45.310 -20.804   5.245  1.00  0.00    -0.165 F 
HETATM   23  F   UNL     1      43.670 -20.233   6.557  1.00  0.00    -0.165 F 
ENDBRANCH  16  20
ENDBRANCH   8  14
TORSDOF 2
ENDMDL
MODEL 3
REMARK VINA RESULT:      -7.3      2.037      3.620
REMARK  2 active torsions:
REMARK  status: ('A' for Active; 'I' for Inactive)
REMARK    1  A    between atoms: N_8  and  C_9 
REMARK    2  A    between atoms: C_11  and  C_12 
ROOT
HETATM    1  C   UNL     1      41.357 -10.730   1.069  1.00  0.00     0.269 C 
HETATM    2  N   UNL     1      41.104 -11.947   1.916  1.00  0.00    -0.075 N 
HETATM    3  H   UNL     1      40.534 -12.566   1.323  1.00  0.00     0.279 HD
HETATM    4  C   UNL     1      42.352 -12.741   2.219  1.00  0.00     0.235 C 
HETATM    5  C   UNL     1      43.174 -12.053   3.301  1.00  0.00     0.039 C 
HETATM    6  C   UNL     1      42.371 -11.806   4.606  1.00  0.00    -0.021 C 
HETATM    7  C   UNL     1      42.006 -13.144   5.298  1.00  0.00     0.151 C 
HETATM    8  N   UNL     1      43.241 -13.808   5.660  1.00  0.00    -0.213 N 
HETATM    9  C   UNL     1      44.048 -13.155   6.682  1.00  0.00     0.141 C 
HETATM   10  C   UNL     1      44.420 -11.755   6.176  1.00  0.00     0.021 C 
HETATM   11  C   UNL     1      43.217 -10.981   5.618  1.00  0.00     0.013 C 
HETATM   12  C   UNL     1      41.091 -11.019   4.243  1.00  0.00     0.039 C 
HETATM   13  C   UNL     1      40.266 -11.673   3.137  1.00  0.00     0.235 C 
ENDROOT
BRANCH   8  14
HETATM   14  C   UNL     1      43.374 -15.155   5.425  1.00  0.00     0.724 A 
HETATM   15  N   UNL     1      43.095 -15.596   4.187  1.00  0.00    -0.058 NA
HETATM   16  C   UNL     1      43.308 -16.910   3.900  1.00  0.00     0.160 A 
HETATM   17  C   UNL     1      43.777 -17.794   4.848  1.00  0.00     0.057 A 
HETATM   18  C   UNL     1      44.034 -17.259   6.083  1.00  0.00     0.139 A 
HETATM   19  N   UNL     1      43.853 -15.959   6.380  1.00  0.00    -0.075 NA
BRANCH  16  20
HETATM   20  C   UNL     1      43.020 -17.398   2.493  1.00  0.00     0.435 C 
HETATM   21  F   UNL     1      43.549 -16.585   1.526  1.00  0.00    -0.165 F 
HETATM   22  F   UNL     1      43.534 -18.636   2.248  1.00  0.00    -0.165 F 
HETATM   23  F   UNL     1      41.689 -17.481   2.222  1.00  0.00    -0.165 F 
ENDBRANCH  16  20
ENDBRANCH   8  14
TORSDOF 2
ENDMDL
MODEL 4
REMARK VINA RESULT:      -7.3      2.056      3.323
REMARK  2 active torsions:
REMARK  status: ('A' for Active; 'I' for Inactive)
REMARK    1  A    between atoms: N_8  and  C_9 
REMARK    2  A    between atoms: C_11  and  C_12 
ROOT
HETATM    1  C   UNL     1      41.294 -11.718   0.212  1.00  0.00     0.269 C 
HETATM    2  N   UNL     1      41.181 -13.118   0.752  1.00  0.00    -0.075 N 
HETATM    3  H   UNL     1      41.534 -13.721  -0.005  1.00  0.00     0.279 HD
HETATM    4  C   UNL     1      42.096 -13.389   1.922  1.00  0.00     0.235 C 
HETATM    5  C   UNL     1      41.539 -12.761   3.193  1.00  0.00     0.039 C 
HETATM    6  C   UNL     1      40.099 -13.238   3.522  1.00  0.00    -0.021 C 
HETATM    7  C   UNL     1      40.079 -14.745   3.886  1.00  0.00     0.151 C 
HETATM    8  N   UNL     1      40.885 -14.925   5.076  1.00  0.00    -0.213 N 
HETATM    9  C   UNL     1      40.375 -14.318   6.298  1.00  0.00     0.141 C 
HETATM   10  C   UNL     1      40.248 -12.806   6.064  1.00  0.00     0.021 C 
HETATM   11  C   UNL     1      39.535 -12.462   4.747  1.00  0.00     0.013 C 
HETATM   12  C   UNL     1      39.208 -12.969   2.288  1.00  0.00     0.039 C 
HETATM   13  C   UNL     1      39.763 -13.562   0.994  1.00  0.00     0.235 C 
ENDROOT
BRANCH   8  14
HETATM   14  C   UNL     1      41.766 -15.977   5.138  1.00  0.00     0.724 A 
HETATM   15  N   UNL     1      42.152 -16.529   3.976  1.00  0.00    -0.058 NA
HETATM   16  C   UNL     1      43.095 -17.511   4.001  1.00  0.00     0.160 A 
HETATM   17  C   UNL     1      43.641 -17.963   5.184  1.00  0.00     0.057 A 
HETATM   18  C   UNL     1      43.190 -17.344   6.320  1.00  0.00     0.139 A 
HETATM   19  N   UNL     1      42.277 -16.356   6.314  1.00  0.00    -0.075 NA
BRANCH  16  20
HETATM   20  C   UNL     1      43.549 -18.111   2.685  1.00  0.00     0.435 C 
HETATM   21  F   UNL     1      42.708 -19.086   2.222  1.00  0.00    -0.165 F 
HETATM   22  F   UNL     1      43.626 -17.191   1.683  1.00  0.00    -0.165 F 
HETATM   23  F   UNL     1      44.779 -18.688   2.762  1.00  0.00    -0.165 F 
ENDBRANCH  16  20
ENDBRANCH   8  14
TORSDOF 2
ENDMDL
MODEL 5
REMARK VINA RESULT:      -7.3      3.629      5.629
REMARK  2 active torsions:
REMARK  status: ('A' for Active; 'I' for Inactive)
REMARK    1  A    between atoms: N_8  and  C_9 
REMARK    2  A    between atoms: C_11  and  C_12 
ROOT
HETATM    1  C   UNL     1      43.480 -13.590   7.215  1.00  0.00     0.269 C 
HETATM    2  N   UNL     1      42.256 -13.574   6.339  1.00  0.00    -0.075 N 
HETATM    3  H   UNL     1      41.755 -12.715   6.605  1.00  0.00     0.279 HD
HETATM    4  C   UNL     1      42.567 -13.404   4.872  1.00  0.00     0.235 C 
HETATM    5  C   UNL     1      43.080 -14.709   4.278  1.00  0.00     0.039 C 
HETATM    6  C   UNL     1      42.097 -15.893   4.480  1.00  0.00    -0.021 C 
HETATM    7  C   UNL     1      40.791 -15.678   3.673  1.00  0.00     0.151 C 
HETATM    8  N   UNL     1      41.140 -15.629   2.267  1.00  0.00    -0.213 N 
HETATM    9  C   UNL     1      41.647 -16.865   1.687  1.00  0.00     0.141 C 
HETATM   10  C   UNL     1      42.915 -17.269   2.453  1.00  0.00     0.021 C 
HETATM   11  C   UNL     1      42.733 -17.221   3.978  1.00  0.00     0.013 C 
HETATM   12  C   UNL     1      41.785 -16.010   5.990  1.00  0.00     0.039 C 
HETATM   13  C   UNL     1      41.299 -14.703   6.614  1.00  0.00     0.235 C 
ENDROOT
BRANCH   8  14
HETATM   14  C   UNL     1      40.576 -14.666   1.467  1.00  0.00     0.724 A 
HETATM   15  N   UNL     1      40.218 -15.026   0.224  1.00  0.00    -0.058 NA
HETATM   16  C   UNL     1      39.571 -14.119  -0.557  1.00  0.00     0.160 A 
HETATM   17  C   UNL     1      39.298 -12.842  -0.114  1.00  0.00     0.057 A 
HETATM   18  C   UNL     1      39.699 -12.561   1.165  1.00  0.00     0.139 A 
HETATM   19  N   UNL     1      40.317 -13.451   1.962  1.00  0.00    -0.075 NA
BRANCH  16  20
HETATM   20  C   UNL     1      39.142 -14.539  -1.950  1.00  0.00     0.435 C 
HETATM   21  F   UNL     1      38.054 -13.846  -2.407  1.00  0.00    -0.165 F 
HETATM   22  F   UNL     1      40.116 -14.346  -2.884  1.00  0.00    -0.165 F 
HETATM   23  F   UNL     1      38.802 -15.855  -2.025  1.00  0.00    -0.165 F 
ENDBRANCH  16  20
ENDBRANCH   8  14
TORSDOF 2
ENDMDL
MODEL 6
REMARK VINA RESULT:      -7.2      1.821      2.462
REMARK  2 active torsions:
REMARK  status: ('A' for Active; 'I' for Inactive)
REMARK    1  A    between atoms: N_8  and  C_9 
REMARK    2  A    between atoms: C_11  and  C_12 
ROOT
HETATM    1  C   UNL     1      39.323 -11.463   5.997  1.00  0.00     0.269 C 
HETATM    2  N   UNL     1      40.495 -12.322   6.391  1.00  0.00    -0.075 N 
HETATM    3  H   UNL     1      40.476 -12.334   7.421  1.00  0.00     0.279 HD
HETATM    4  C   UNL     1      40.347 -13.767   5.983  1.00  0.00     0.235 C 
HETATM    5  C   UNL     1      40.617 -13.933   4.493  1.00  0.00     0.039 C 
HETATM    6  C   UNL     1      42.011 -13.400   4.068  1.00  0.00    -0.021 C 
HETATM    7  C   UNL     1      43.148 -14.254   4.686  1.00  0.00     0.151 C 
HETATM    8  N   UNL     1      43.017 -15.604   4.174  1.00  0.00    -0.213 N 
HETATM    9  C   UNL     1      43.257 -15.777   2.748  1.00  0.00     0.141 C 
HETATM   10  C   UNL     1      42.250 -14.906   1.984  1.00  0.00     0.021 C 
HETATM   11  C   UNL     1      42.173 -13.469   2.522  1.00  0.00     0.013 C 
HETATM   12  C   UNL     1      42.128 -11.930   4.532  1.00  0.00     0.039 C 
HETATM   13  C   UNL     1      41.830 -11.734   6.017  1.00  0.00     0.235 C 
ENDROOT
BRANCH   8  14
HETATM   14  C   UNL     1      43.150 -16.665   5.036  1.00  0.00     0.724 A 
HETATM   15  N   UNL     1      43.451 -17.860   4.503  1.00  0.00    -0.058 NA
HETATM   16  C   UNL     1      43.681 -18.908   5.340  1.00  0.00     0.160 A 
HETATM   17  C   UNL     1      43.591 -18.777   6.710  1.00  0.00     0.057 A 
HETATM   18  C   UNL     1      43.279 -17.524   7.166  1.00  0.00     0.139 A 
HETATM   19  N   UNL     1      43.071 -16.470   6.356  1.00  0.00    -0.075 NA
BRANCH  16  20
HETATM   20  C   UNL     1      44.050 -20.249   4.736  1.00  0.00     0.435 C 
HETATM   21  F   UNL     1      45.319 -20.651   5.058  1.00  0.00    -0.165 F 
HETATM   22  F   UNL     1      43.233 -21.258   5.148  1.00  0.00    -0.165 F 
HETATM   23  F   UNL     1      43.995 -20.251   3.376  1.00  0.00    -0.165 F 
ENDBRANCH  16  20
ENDBRANCH   8  14
TORSDOF 2
ENDMDL
MODEL 7
REMARK VINA RESULT:      -7.1      2.320      2.860
REMARK  2 active torsions:
REMARK  status: ('A' for Active; 'I' for Inactive)
REMARK    1  A    between atoms: N_8  and  C_9 
REMARK    2  A    between atoms: C_11  and  C_12 
ROOT
HETATM    1  C   UNL     1      41.046 -10.870   6.024  1.00  0.00     0.269 C 
HETATM    2  N   UNL     1      42.145 -11.850   5.715  1.00  0.00    -0.075 N 
HETATM    3  H   UNL     1      42.709 -11.891   6.576  1.00  0.00     0.279 HD
HETATM    4  C   UNL     1      41.654 -13.262   5.507  1.00  0.00     0.235 C 
HETATM    5  C   UNL     1      41.020 -13.409   4.130  1.00  0.00     0.039 C 
HETATM    6  C   UNL     1      41.975 -13.002   2.976  1.00  0.00    -0.021 C 
HETATM    7  C   UNL     1      43.173 -13.981   2.872  1.00  0.00     0.151 C 
HETATM    8  N   UNL     1      42.647 -15.296   2.565  1.00  0.00    -0.213 N 
HETATM    9  C   UNL     1      42.023 -15.450   1.258  1.00  0.00     0.141 C 
HETATM   10  C   UNL     1      40.851 -14.462   1.168  1.00  0.00     0.021 C 
HETATM   11  C   UNL     1      41.231 -13.041   1.611  1.00  0.00     0.013 C 
HETATM   12  C   UNL     1      42.476 -11.565   3.249  1.00  0.00     0.039 C 
HETATM   13  C   UNL     1      43.087 -11.385   4.637  1.00  0.00     0.235 C 
ENDROOT
BRANCH   8  14
HETATM   14  C   UNL     1      43.138 -16.390   3.234  1.00  0.00     0.724 A 
HETATM   15  N   UNL     1      43.099 -16.363   4.576  1.00  0.00    -0.058 NA
HETATM   16  C   UNL     1      43.492 -17.470   5.263  1.00  0.00     0.160 A 
HETATM   17  C   UNL     1      43.948 -18.601   4.619  1.00  0.00     0.057 A 
HETATM   18  C   UNL     1      43.955 -18.541   3.250  1.00  0.00     0.139 A 
HETATM   19  N   UNL     1      43.548 -17.465   2.553  1.00  0.00    -0.075 NA
BRANCH  16  20
HETATM   20  C   UNL     1      43.418 -17.446   6.778  1.00  0.00     0.435 C 
HETATM   21  F   UNL     1      43.362 -18.697   7.331  1.00  0.00    -0.165 F 
HETATM   22  F   UNL     1      44.497 -16.842   7.351  1.00  0.00    -0.165 F 
HETATM   23  F   UNL     1      42.324 -16.784   7.244  1.00  0.00    -0.165 F 
ENDBRANCH  16  20
ENDBRANCH   8  14
TORSDOF 2
ENDMDL
MODEL 8
REMARK VINA RESULT:      -7.0      4.214      6.719
REMARK  2 active torsions:
REMARK  status: ('A' for Active; 'I' for Inactive)
REMARK    1  A    between atoms: N_8  and  C_9 
REMARK    2  A    between atoms: C_11  and  C_12 
ROOT
HETATM    1  C   UNL     1      42.694 -17.346   2.787  1.00  0.00     0.269 C 
HETATM    2  N   UNL     1      42.458 -16.252   1.781  1.00  0.00    -0.075 N 
HETATM    3  H   UNL     1      42.737 -16.662   0.878  1.00  0.00     0.279 HD
HETATM    4  C   UNL     1      41.002 -15.894   1.610  1.00  0.00     0.235 C 
HETATM    5  C   UNL     1      40.521 -15.041   2.777  1.00  0.00     0.039 C 
HETATM    6  C   UNL     1      41.365 -13.755   2.975  1.00  0.00    -0.021 C 
HETATM    7  C   UNL     1      41.185 -12.779   1.784  1.00  0.00     0.151 C 
HETATM    8  N   UNL     1      39.791 -12.388   1.737  1.00  0.00    -0.213 N 
HETATM    9  C   UNL     1      39.310 -11.585   2.853  1.00  0.00     0.141 C 
HETATM   10  C   UNL     1      39.510 -12.392   4.144  1.00  0.00     0.021 C 
HETATM   11  C   UNL     1      40.916 -12.999   4.259  1.00  0.00     0.013 C 
HETATM   12  C   UNL     1      42.849 -14.168   3.114  1.00  0.00     0.039 C 
HETATM   13  C   UNL     1      43.345 -15.051   1.971  1.00  0.00     0.235 C 
ENDROOT
BRANCH   8  14
HETATM   14  C   UNL     1      39.142 -12.356   0.527  1.00  0.00     0.724 A 
HETATM   15  N   UNL     1      39.474 -13.291  -0.377  1.00  0.00    -0.058 NA
HETATM   16  C   UNL     1      38.782 -13.342  -1.548  1.00  0.00     0.160 A 
HETATM   17  C   UNL     1      37.772 -12.447  -1.834  1.00  0.00     0.057 A 
HETATM   18  C   UNL     1      37.501 -11.527  -0.856  1.00  0.00     0.139 A 
HETATM   19  N   UNL     1      38.157 -11.476   0.317  1.00  0.00    -0.075 NA
BRANCH  16  20
HETATM   20  C   UNL     1      39.139 -14.419  -2.554  1.00  0.00     0.435 C 
HETATM   21  F   UNL     1      38.446 -14.305  -3.729  1.00  0.00    -0.165 F 
HETATM   22  F   UNL     1      40.456 -14.398  -2.905  1.00  0.00    -0.165 F 
HETATM   23  F   UNL     1      38.890 -15.676  -2.096  1.00  0.00    -0.165 F 
ENDBRANCH  16  20
ENDBRANCH   8  14
TORSDOF 2
ENDMDL
MODEL 9
REMARK VINA RESULT:      -6.8     14.250     15.525
REMARK  2 active torsions:
REMARK  status: ('A' for Active; 'I' for Inactive)
REMARK    1  A    between atoms: N_8  and  C_9 
REMARK    2  A    between atoms: C_11  and  C_12 
ROOT
HETATM    1  C   UNL     1      42.465 -32.247   0.618  1.00  0.00     0.269 C 
HETATM    2  N   UNL     1      43.598 -31.515   1.284  1.00  0.00    -0.075 N 
HETATM    3  H   UNL     1      43.689 -31.960   2.209  1.00  0.00     0.279 HD
HETATM    4  C   UNL     1      44.933 -31.733   0.615  1.00  0.00     0.235 C 
HETATM    5  C   UNL     1      45.034 -30.905  -0.659  1.00  0.00     0.039 C 
HETATM    6  C   UNL     1      44.802 -29.390  -0.416  1.00  0.00    -0.021 C 
HETATM    7  C   UNL     1      45.941 -28.780   0.442  1.00  0.00     0.151 C 
HETATM    8  N   UNL     1      47.179 -28.923  -0.299  1.00  0.00    -0.213 N 
HETATM    9  C   UNL     1      47.286 -28.149  -1.528  1.00  0.00     0.141 C 
HETATM   10  C   UNL     1      46.148 -28.579  -2.464  1.00  0.00     0.021 C 
HETATM   11  C   UNL     1      44.780 -28.617  -1.766  1.00  0.00     0.013 C 
HETATM   12  C   UNL     1      43.440 -29.219   0.297  1.00  0.00     0.039 C 
HETATM   13  C   UNL     1      43.303 -30.065   1.561  1.00  0.00     0.235 C 
ENDROOT
BRANCH   8  14
HETATM   14  C   UNL     1      48.309 -29.348   0.357  1.00  0.00     0.724 A 
HETATM   15  N   UNL     1      48.318 -29.255   1.696  1.00  0.00    -0.058 NA
HETATM   16  C   UNL     1      49.385 -29.755   2.377  1.00  0.00     0.160 A 
HETATM   17  C   UNL     1      50.458 -30.328   1.727  1.00  0.00     0.057 A 
HETATM   18  C   UNL     1      50.364 -30.381   0.362  1.00  0.00     0.139 A 
HETATM   19  N   UNL     1      49.308 -29.915  -0.328  1.00  0.00    -0.075 NA
BRANCH  16  20
HETATM   20  C   UNL     1      49.379 -29.675   3.892  1.00  0.00     0.435 C 
HETATM   21  F   UNL     1      48.444 -30.493   4.467  1.00  0.00    -0.165 F 
HETATM   22  F   UNL     1      50.570 -30.037   4.445  1.00  0.00    -0.165 F 
HETATM   23  F   UNL     1      49.112 -28.423   4.355  1.00  0.00    -0.165 F 
ENDBRANCH  16  20
ENDBRANCH   8  14
TORSDOF 2
ENDMDL
MODEL 10
REMARK VINA RESULT:      -6.7      2.875      4.007
REMARK  2 active torsions:
REMARK  status: ('A' for Active; 'I' for Inactive)
REMARK    1  A    between atoms: N_8  and  C_9 
REMARK    2  A    between atoms: C_11  and  C_12 
ROOT
HETATM    1  C   UNL     1      39.072  -9.740   0.787  1.00  0.00     0.269 C 
HETATM    2  N   UNL     1      40.283 -10.333   1.456  1.00  0.00    -0.075 N 
HETATM    3  H   UNL     1      40.710  -9.548   1.969  1.00  0.00     0.279 HD
HETATM    4  C   UNL     1      39.947 -11.352   2.517  1.00  0.00     0.235 C 
HETATM    5  C   UNL     1      39.545 -12.676   1.879  1.00  0.00     0.039 C 
HETATM    6  C   UNL     1      40.629 -13.240   0.923  1.00  0.00    -0.021 C 
HETATM    7  C   UNL     1      41.905 -13.648   1.704  1.00  0.00     0.151 C 
HETATM    8  N   UNL     1      41.541 -14.702   2.630  1.00  0.00    -0.213 N 
HETATM    9  C   UNL     1      41.140 -15.969   2.036  1.00  0.00     0.141 C 
HETATM   10  C   UNL     1      39.919 -15.713   1.141  1.00  0.00     0.021 C 
HETATM   11  C   UNL     1      40.108 -14.515   0.199  1.00  0.00     0.013 C 
HETATM   12  C   UNL     1      40.963 -12.153  -0.125  1.00  0.00     0.039 C 
HETATM   13  C   UNL     1      41.337 -10.807   0.492  1.00  0.00     0.235 C 
ENDROOT
BRANCH   8  14
HETATM   14  C   UNL     1      42.013 -14.656   3.919  1.00  0.00     0.724 A 
HETATM   15  N   UNL     1      42.829 -15.647   4.314  1.00  0.00    -0.058 NA
HETATM   16  C   UNL     1      43.385 -15.578   5.554  1.00  0.00     0.160 A 
HETATM   17  C   UNL     1      43.115 -14.535   6.415  1.00  0.00     0.057 A 
HETATM   18  C   UNL     1      42.272 -13.570   5.930  1.00  0.00     0.139 A 
HETATM   19  N   UNL     1      41.732 -13.607   4.699  1.00  0.00    -0.075 NA
BRANCH  16  20
HETATM   20  C   UNL     1      44.330 -16.683   5.986  1.00  0.00     0.435 C 
HETATM   21  F   UNL     1      44.776 -17.445   4.939  1.00  0.00    -0.165 F 
HETATM   22  F   UNL     1      45.452 -16.211   6.597  1.00  0.00    -0.165 F 
HETATM   23  F   UNL     1      43.761 -17.554   6.863  1.00  0.00    -0.165 F 
ENDBRANCH  16  20
ENDBRANCH   8  14
TORSDOF 2
ENDMDL
