MODEL 1
REMARK VINA RESULT:      -9.3      0.000      0.000
REMARK  5 active torsions:
REMARK  status: ('A' for Active; 'I' for Inactive)
REMARK    1  A    between atoms: O_2  and  C_3 
REMARK    2  A    between atoms: C_4  and  C_5 
REMARK    3  A    between atoms: C_17  and  N_18 
REMARK       I    between atoms: N_18  and  C_19 
REMARK       I    between atoms: C_19  and  N_20 
REMARK    4  A    between atoms: N_20  and  C_21 
REMARK    5  A    between atoms: C_21  and  C_22 
ROOT
HETATM    1  C   UNL     1      41.804 -16.011   2.911  1.00  0.00    -0.022 A 
HETATM    2  C   UNL     1      42.122 -14.659   3.134  1.00  0.00     0.031 A 
HETATM    3  C   UNL     1      41.282 -13.597   2.723  1.00  0.00     0.059 A 
HETATM    4  C   UNL     1      40.100 -13.899   2.047  1.00  0.00     0.050 A 
HETATM    5  N   UNL     1      39.176 -12.964   1.577  1.00  0.00    -0.324 N 
HETATM    6  C   UNL     1      38.868 -11.742   2.097  1.00  0.00     0.245 C 
HETATM    7  O   UNL     1      37.957 -11.113   1.551  1.00  0.00    -0.271 OA
HETATM    8  C   UNL     1      39.547 -11.295   3.407  1.00  0.00     0.181 C 
HETATM    9  N   UNL     1      40.992 -11.126   3.178  1.00  0.00    -0.334 N 
HETATM   10  C   UNL     1      41.827 -12.231   2.938  1.00  0.00     0.256 C 
HETATM   11  O   UNL     1      43.055 -12.115   2.958  1.00  0.00    -0.267 OA
HETATM   12  C   UNL     1      38.803 -10.046   3.915  1.00  0.00     0.060 C 
HETATM   13  C   UNL     1      39.613  -9.207   4.890  1.00  0.00     0.090 C 
HETATM   14  C   UNL     1      40.887  -8.786   4.177  1.00  0.00     0.045 C 
HETATM   15  C   UNL     1      41.712  -9.990   3.761  1.00  0.00     0.129 C 
HETATM   16  C   UNL     1      39.793 -15.239   1.775  1.00  0.00     0.031 A 
HETATM   17  C   UNL     1      40.616 -16.277   2.223  1.00  0.00     0.014 A 
HETATM   18  H   UNL     1      38.515 -13.251   0.863  1.00  0.00     0.169 HD
ENDROOT
BRANCH   1  19
HETATM   19  C   UNL     1      42.690 -17.099   3.398  1.00  0.00     0.009 A 
HETATM   20  C   UNL     1      43.272 -17.110   4.691  1.00  0.00     0.079 A 
HETATM   21  C   UNL     1      44.111 -18.167   5.078  1.00  0.00     0.039 A 
HETATM   22  C   UNL     1      44.370 -19.226   4.206  1.00  0.00     0.026 A 
HETATM   23  C   UNL     1      43.799 -19.231   2.942  1.00  0.00     0.035 A 
HETATM   24  C   UNL     1      42.974 -18.184   2.538  1.00  0.00     0.039 A 
HETATM   25 CL   UNL     1      44.109 -20.540   1.868  1.00  0.00    -0.084 Cl
BRANCH  20  26
HETATM   26  O   UNL     1      42.956 -16.058   5.517  1.00  0.00    -0.355 OA
HETATM   27  C   UNL     1      42.200 -16.329   6.689  1.00  0.00     0.210 C 
ENDBRANCH  20  26
ENDBRANCH   1  19
BRANCH  13  28
HETATM   28  N   UNL     1      39.869  -9.895   6.148  1.00  0.00    -0.338 N 
HETATM   29  C   UNL     1      39.320  -9.442   7.323  1.00  0.00     0.316 C 
HETATM   30  N   UNL     1      39.556 -10.319   8.348  1.00  0.00    -0.340 N 
HETATM   31  O   UNL     1      38.678  -8.407   7.430  1.00  0.00    -0.247 OA
HETATM   32  H   UNL     1      40.429 -10.822   8.284  1.00  0.00     0.164 HD
HETATM   33  H   UNL     1      40.019 -10.894   6.122  1.00  0.00     0.164 HD
BRANCH  30  34
HETATM   34  C   UNL     1      39.117  -9.991   9.681  1.00  0.00     0.150 C 
BRANCH  34  35
HETATM   35  C   UNL     1      40.280  -9.376  10.391  1.00  0.00    -0.018 C 
HETATM   36  C   UNL     1      40.696  -9.716  11.618  1.00  0.00     0.008 C 
ENDBRANCH  34  35
ENDBRANCH  30  34
ENDBRANCH  13  28
TORSDOF 5
ENDMDL
MODEL 2
REMARK VINA RESULT:      -8.8      2.858      5.523
REMARK  5 active torsions:
REMARK  status: ('A' for Active; 'I' for Inactive)
REMARK    1  A    between atoms: O_2  and  C_3 
REMARK    2  A    between atoms: C_4  and  C_5 
REMARK    3  A    between atoms: C_17  and  N_18 
REMARK       I    between atoms: N_18  and  C_19 
REMARK       I    between atoms: C_19  and  N_20 
REMARK    4  A    between atoms: N_20  and  C_21 
REMARK    5  A    between atoms: C_21  and  C_22 
ROOT
HETATM    1  C   UNL     1      43.191 -15.899   5.006  1.00  0.00    -0.022 A 
HETATM    2  C   UNL     1      42.134 -15.026   4.685  1.00  0.00     0.031 A 
HETATM    3  C   UNL     1      41.963 -13.769   5.312  1.00  0.00     0.059 A 
HETATM    4  C   UNL     1      42.863 -13.385   6.305  1.00  0.00     0.050 A 
HETATM    5  N   UNL     1      42.822 -12.183   7.013  1.00  0.00    -0.324 N 
HETATM    6  C   UNL     1      42.372 -10.966   6.592  1.00  0.00     0.245 C 
HETATM    7  O   UNL     1      42.502 -10.019   7.372  1.00  0.00    -0.271 OA
HETATM    8  C   UNL     1      41.889 -10.813   5.136  1.00  0.00     0.181 C 
HETATM    9  N   UNL     1      40.677 -11.625   4.933  1.00  0.00    -0.334 N 
HETATM   10  C   UNL     1      40.731 -13.028   4.932  1.00  0.00     0.256 C 
HETATM   11  O   UNL     1      39.768 -13.701   4.554  1.00  0.00    -0.267 OA
HETATM   12  C   UNL     1      41.736  -9.307   4.853  1.00  0.00     0.060 C 
HETATM   13  C   UNL     1      40.826  -8.995   3.675  1.00  0.00     0.090 C 
HETATM   14  C   UNL     1      39.465  -9.597   3.982  1.00  0.00     0.045 C 
HETATM   15  C   UNL     1      39.550 -11.102   4.153  1.00  0.00     0.129 C 
HETATM   16  C   UNL     1      43.892 -14.264   6.670  1.00  0.00     0.031 A 
HETATM   17  C   UNL     1      44.069 -15.486   6.013  1.00  0.00     0.014 A 
HETATM   18  H   UNL     1      43.325 -12.118   7.892  1.00  0.00     0.169 HD
ENDROOT
BRANCH   1  19
HETATM   19  C   UNL     1      43.363 -17.191   4.295  1.00  0.00     0.009 A 
HETATM   20  C   UNL     1      43.058 -17.370   2.921  1.00  0.00     0.079 A 
HETATM   21  C   UNL     1      43.234 -18.626   2.319  1.00  0.00     0.039 A 
HETATM   22  C   UNL     1      43.724 -19.707   3.054  1.00  0.00     0.026 A 
HETATM   23  C   UNL     1      44.036 -19.541   4.395  1.00  0.00     0.035 A 
HETATM   24  C   UNL     1      43.854 -18.304   5.012  1.00  0.00     0.039 A 
HETATM   25 CL   UNL     1      44.649 -20.868   5.303  1.00  0.00    -0.084 Cl
BRANCH  20  26
HETATM   26  O   UNL     1      42.609 -16.265   2.241  1.00  0.00    -0.355 OA
HETATM   27  C   UNL     1      43.530 -15.566   1.414  1.00  0.00     0.210 C 
ENDBRANCH  20  26
ENDBRANCH   1  19
BRANCH  13  28
HETATM   28  N   UNL     1      41.373  -9.452   2.405  1.00  0.00    -0.338 N 
HETATM   29  C   UNL     1      41.068  -8.803   1.233  1.00  0.00     0.316 C 
HETATM   30  N   UNL     1      41.808  -9.294   0.191  1.00  0.00    -0.340 N 
HETATM   31  O   UNL     1      40.264  -7.886   1.142  1.00  0.00    -0.247 OA
HETATM   32  H   UNL     1      42.034 -10.275   0.256  1.00  0.00     0.164 HD
HETATM   33  H   UNL     1      42.284  -9.889   2.409  1.00  0.00     0.164 HD
BRANCH  30  34
HETATM   34  C   UNL     1      41.586  -8.788  -1.141  1.00  0.00     0.150 C 
BRANCH  34  35
HETATM   35  C   UNL     1      42.873  -8.184  -1.604  1.00  0.00    -0.018 C 
HETATM   36  C   UNL     1      43.284  -6.942  -1.315  1.00  0.00     0.008 C 
ENDBRANCH  34  35
ENDBRANCH  30  34
ENDBRANCH  13  28
TORSDOF 5
ENDMDL
MODEL 3
REMARK VINA RESULT:      -8.3      4.639      7.459
REMARK  5 active torsions:
REMARK  status: ('A' for Active; 'I' for Inactive)
REMARK    1  A    between atoms: O_2  and  C_3 
REMARK    2  A    between atoms: C_4  and  C_5 
REMARK    3  A    between atoms: C_17  and  N_18 
REMARK       I    between atoms: N_18  and  C_19 
REMARK       I    between atoms: C_19  and  N_20 
REMARK    4  A    between atoms: N_20  and  C_21 
REMARK    5  A    between atoms: C_21  and  C_22 
ROOT
HETATM    1  C   UNL     1      40.292 -11.502  -1.121  1.00  0.00    -0.022 A 
HETATM    2  C   UNL     1      39.948 -11.346   0.234  1.00  0.00     0.031 A 
HETATM    3  C   UNL     1      39.802 -12.442   1.118  1.00  0.00     0.059 A 
HETATM    4  C   UNL     1      39.983 -13.732   0.623  1.00  0.00     0.050 A 
HETATM    5  N   UNL     1      39.869 -14.908   1.368  1.00  0.00    -0.324 N 
HETATM    6  C   UNL     1      40.136 -15.102   2.691  1.00  0.00     0.245 C 
HETATM    7  O   UNL     1      40.032 -16.254   3.121  1.00  0.00    -0.271 OA
HETATM    8  C   UNL     1      40.698 -13.929   3.519  1.00  0.00     0.181 C 
HETATM    9  N   UNL     1      39.685 -12.863   3.609  1.00  0.00    -0.334 N 
HETATM   10  C   UNL     1      39.325 -12.102   2.484  1.00  0.00     0.256 C 
HETATM   11  O   UNL     1      38.643 -11.080   2.601  1.00  0.00    -0.267 OA
HETATM   12  C   UNL     1      41.185 -14.499   4.863  1.00  0.00     0.060 C 
HETATM   13  C   UNL     1      41.307 -13.456   5.962  1.00  0.00     0.090 C 
HETATM   14  C   UNL     1      39.936 -12.826   6.143  1.00  0.00     0.045 C 
HETATM   15  C   UNL     1      39.466 -12.147   4.870  1.00  0.00     0.129 C 
HETATM   16  C   UNL     1      40.278 -13.907  -0.736  1.00  0.00     0.031 A 
HETATM   17  C   UNL     1      40.456 -12.811  -1.585  1.00  0.00     0.014 A 
HETATM   18  H   UNL     1      39.732 -15.784   0.875  1.00  0.00     0.169 HD
ENDROOT
BRANCH   1  19
HETATM   19  C   UNL     1      40.479 -10.325  -2.007  1.00  0.00     0.009 A 
HETATM   20  C   UNL     1      39.597 -10.003  -3.070  1.00  0.00     0.079 A 
HETATM   21  C   UNL     1      39.846  -8.880  -3.875  1.00  0.00     0.039 A 
HETATM   22  C   UNL     1      40.948  -8.059  -3.633  1.00  0.00     0.026 A 
HETATM   23  C   UNL     1      41.812  -8.358  -2.589  1.00  0.00     0.035 A 
HETATM   24  C   UNL     1      41.587  -9.476  -1.789  1.00  0.00     0.039 A 
HETATM   25 CL   UNL     1      43.167  -7.343  -2.281  1.00  0.00    -0.084 Cl
BRANCH  20  26
HETATM   26  O   UNL     1      38.513 -10.828  -3.242  1.00  0.00    -0.355 OA
HETATM   27  C   UNL     1      37.230 -10.334  -2.881  1.00  0.00     0.210 C 
ENDBRANCH  20  26
ENDBRANCH   1  19
BRANCH  13  28
HETATM   28  N   UNL     1      42.350 -12.475   5.694  1.00  0.00    -0.338 N 
HETATM   29  C   UNL     1      43.509 -12.461   6.431  1.00  0.00     0.316 C 
HETATM   30  N   UNL     1      44.411 -11.570   5.913  1.00  0.00    -0.340 N 
HETATM   31  O   UNL     1      43.716 -13.173   7.403  1.00  0.00    -0.247 OA
HETATM   32  H   UNL     1      44.003 -10.756   5.478  1.00  0.00     0.164 HD
HETATM   33  H   UNL     1      42.461 -12.146   4.745  1.00  0.00     0.164 HD
BRANCH  30  34
HETATM   34  C   UNL     1      45.669 -11.358   6.586  1.00  0.00     0.150 C 
BRANCH  34  35
HETATM   35  C   UNL     1      45.442 -10.309   7.626  1.00  0.00    -0.018 C 
HETATM   36  C   UNL     1      46.333  -9.371   7.975  1.00  0.00     0.008 C 
ENDBRANCH  34  35
ENDBRANCH  30  34
ENDBRANCH  13  28
TORSDOF 5
ENDMDL
MODEL 4
REMARK VINA RESULT:      -8.2      4.127      8.371
REMARK  5 active torsions:
REMARK  status: ('A' for Active; 'I' for Inactive)
REMARK    1  A    between atoms: O_2  and  C_3 
REMARK    2  A    between atoms: C_4  and  C_5 
REMARK    3  A    between atoms: C_17  and  N_18 
REMARK       I    between atoms: N_18  and  C_19 
REMARK       I    between atoms: C_19  and  N_20 
REMARK    4  A    between atoms: N_20  and  C_21 
REMARK    5  A    between atoms: C_21  and  C_22 
ROOT
HETATM    1  C   UNL     1      40.540  -9.942   0.950  1.00  0.00    -0.022 A 
HETATM    2  C   UNL     1      41.482 -10.479   1.848  1.00  0.00     0.031 A 
HETATM    3  C   UNL     1      41.142 -10.889   3.159  1.00  0.00     0.059 A 
HETATM    4  C   UNL     1      39.825 -10.736   3.591  1.00  0.00     0.050 A 
HETATM    5  N   UNL     1      39.341 -11.088   4.852  1.00  0.00    -0.324 N 
HETATM    6  C   UNL     1      39.763 -12.094   5.671  1.00  0.00     0.245 C 
HETATM    7  O   UNL     1      39.133 -12.266   6.718  1.00  0.00    -0.271 OA
HETATM    8  C   UNL     1      40.874 -13.042   5.177  1.00  0.00     0.181 C 
HETATM    9  N   UNL     1      42.129 -12.288   5.021  1.00  0.00    -0.334 N 
HETATM   10  C   UNL     1      42.282 -11.327   4.007  1.00  0.00     0.256 C 
HETATM   11  O   UNL     1      43.390 -10.853   3.743  1.00  0.00    -0.267 OA
HETATM   12  C   UNL     1      40.931 -14.236   6.147  1.00  0.00     0.060 C 
HETATM   13  C   UNL     1      42.248 -14.995   6.106  1.00  0.00     0.090 C 
HETATM   14  C   UNL     1      43.351 -14.007   6.448  1.00  0.00     0.045 C 
HETATM   15  C   UNL     1      43.407 -12.869   5.446  1.00  0.00     0.129 C 
HETATM   16  C   UNL     1      38.886 -10.157   2.726  1.00  0.00     0.031 A 
HETATM   17  C   UNL     1      39.232  -9.793   1.421  1.00  0.00     0.014 A 
HETATM   18  H   UNL     1      38.467 -10.682   5.169  1.00  0.00     0.169 HD
ENDROOT
BRANCH   1  19
HETATM   19  C   UNL     1      40.926  -9.564  -0.433  1.00  0.00     0.009 A 
HETATM   20  C   UNL     1      40.538 -10.305  -1.579  1.00  0.00     0.079 A 
HETATM   21  C   UNL     1      40.951  -9.894  -2.856  1.00  0.00     0.039 A 
HETATM   22  C   UNL     1      41.732  -8.748  -3.018  1.00  0.00     0.026 A 
HETATM   23  C   UNL     1      42.109  -8.010  -1.906  1.00  0.00     0.035 A 
HETATM   24  C   UNL     1      41.718  -8.411  -0.629  1.00  0.00     0.039 A 
HETATM   25 CL   UNL     1      43.063  -6.592  -2.102  1.00  0.00    -0.084 Cl
BRANCH  20  26
HETATM   26  O   UNL     1      39.745 -11.405  -1.361  1.00  0.00    -0.355 OA
HETATM   27  C   UNL     1      40.309 -12.691  -1.577  1.00  0.00     0.210 C 
ENDBRANCH  20  26
ENDBRANCH   1  19
BRANCH  13  28
HETATM   28  N   UNL     1      42.470 -15.671   4.834  1.00  0.00    -0.338 N 
HETATM   29  C   UNL     1      43.252 -16.798   4.764  1.00  0.00     0.316 C 
HETATM   30  N   UNL     1      43.197 -17.359   3.516  1.00  0.00    -0.340 N 
HETATM   31  O   UNL     1      43.887 -17.256   5.703  1.00  0.00    -0.247 OA
HETATM   32  H   UNL     1      43.076 -16.702   2.760  1.00  0.00     0.164 HD
HETATM   33  H   UNL     1      41.734 -15.636   4.143  1.00  0.00     0.164 HD
BRANCH  30  34
HETATM   34  C   UNL     1      44.004 -18.516   3.218  1.00  0.00     0.150 C 
BRANCH  34  35
HETATM   35  C   UNL     1      43.262 -19.323   2.202  1.00  0.00    -0.018 C 
HETATM   36  C   UNL     1      43.598 -20.560   1.812  1.00  0.00     0.008 C 
ENDBRANCH  34  35
ENDBRANCH  30  34
ENDBRANCH  13  28
TORSDOF 5
ENDMDL
MODEL 5
REMARK VINA RESULT:      -7.8      4.622      9.609
REMARK  5 active torsions:
REMARK  status: ('A' for Active; 'I' for Inactive)
REMARK    1  A    between atoms: O_2  and  C_3 
REMARK    2  A    between atoms: C_4  and  C_5 
REMARK    3  A    between atoms: C_17  and  N_18 
REMARK       I    between atoms: N_18  and  C_19 
REMARK       I    between atoms: C_19  and  N_20 
REMARK    4  A    between atoms: N_20  and  C_21 
REMARK    5  A    between atoms: C_21  and  C_22 
ROOT
HETATM    1  C   UNL     1      41.974  -7.397   9.894  1.00  0.00    -0.022 A 
HETATM    2  C   UNL     1      41.161  -8.430   9.392  1.00  0.00     0.031 A 
HETATM    3  C   UNL     1      40.940  -8.626   8.008  1.00  0.00     0.059 A 
HETATM    4  C   UNL     1      41.532  -7.748   7.102  1.00  0.00     0.050 A 
HETATM    5  N   UNL     1      41.404  -7.810   5.713  1.00  0.00    -0.324 N 
HETATM    6  C   UNL     1      41.232  -8.910   4.926  1.00  0.00     0.245 C 
HETATM    7  O   UNL     1      41.217  -8.731   3.705  1.00  0.00    -0.271 OA
HETATM    8  C   UNL     1      41.230 -10.305   5.584  1.00  0.00     0.181 C 
HETATM    9  N   UNL     1      40.059 -10.429   6.468  1.00  0.00    -0.334 N 
HETATM   10  C   UNL     1      39.965  -9.694   7.662  1.00  0.00     0.256 C 
HETATM   11  O   UNL     1      39.097  -9.951   8.500  1.00  0.00    -0.267 OA
HETATM   12  C   UNL     1      41.328 -11.351   4.458  1.00  0.00     0.060 C 
HETATM   13  C   UNL     1      40.855 -12.736   4.867  1.00  0.00     0.090 C 
HETATM   14  C   UNL     1      39.410 -12.607   5.319  1.00  0.00     0.045 C 
HETATM   15  C   UNL     1      39.282 -11.672   6.507  1.00  0.00     0.129 C 
HETATM   16  C   UNL     1      42.306  -6.685   7.588  1.00  0.00     0.031 A 
HETATM   17  C   UNL     1      42.545  -6.529   8.957  1.00  0.00     0.014 A 
HETATM   18  H   UNL     1      41.622  -6.983   5.167  1.00  0.00     0.169 HD
ENDROOT
BRANCH   1  19
HETATM   19  C   UNL     1      42.218  -7.250  11.351  1.00  0.00     0.009 A 
HETATM   20  C   UNL     1      43.111  -8.078  12.078  1.00  0.00     0.079 A 
HETATM   21  C   UNL     1      43.281  -7.889  13.458  1.00  0.00     0.039 A 
HETATM   22  C   UNL     1      42.591  -6.878  14.129  1.00  0.00     0.026 A 
HETATM   23  C   UNL     1      41.724  -6.055  13.427  1.00  0.00     0.035 A 
HETATM   24  C   UNL     1      41.533  -6.238  12.059  1.00  0.00     0.039 A 
HETATM   25 CL   UNL     1      40.878  -4.801  14.248  1.00  0.00    -0.084 Cl
BRANCH  20  26
HETATM   26  O   UNL     1      43.785  -9.036  11.360  1.00  0.00    -0.355 OA
HETATM   27  C   UNL     1      43.466 -10.400  11.597  1.00  0.00     0.210 C 
ENDBRANCH  20  26
ENDBRANCH   1  19
BRANCH  13  28
HETATM   28  N   UNL     1      41.710 -13.348   5.876  1.00  0.00    -0.338 N 
HETATM   29  C   UNL     1      42.580 -14.357   5.542  1.00  0.00     0.316 C 
HETATM   30  N   UNL     1      43.394 -14.675   6.597  1.00  0.00    -0.340 N 
HETATM   31  O   UNL     1      42.639 -14.879   4.438  1.00  0.00    -0.247 OA
HETATM   32  H   UNL     1      42.973 -14.565   7.507  1.00  0.00     0.164 HD
HETATM   33  H   UNL     1      42.021 -12.775   6.647  1.00  0.00     0.164 HD
BRANCH  30  34
HETATM   34  C   UNL     1      44.335 -15.760   6.468  1.00  0.00     0.150 C 
BRANCH  34  35
HETATM   35  C   UNL     1      43.717 -16.960   7.111  1.00  0.00    -0.018 C 
HETATM   36  C   UNL     1      43.317 -18.059   6.458  1.00  0.00     0.008 C 
ENDBRANCH  34  35
ENDBRANCH  30  34
ENDBRANCH  13  28
TORSDOF 5
ENDMDL
MODEL 6
REMARK VINA RESULT:      -7.7      4.139      6.597
REMARK  5 active torsions:
REMARK  status: ('A' for Active; 'I' for Inactive)
REMARK    1  A    between atoms: O_2  and  C_3 
REMARK    2  A    between atoms: C_4  and  C_5 
REMARK    3  A    between atoms: C_17  and  N_18 
REMARK       I    between atoms: N_18  and  C_19 
REMARK       I    between atoms: C_19  and  N_20 
REMARK    4  A    between atoms: N_20  and  C_21 
REMARK    5  A    between atoms: C_21  and  C_22 
ROOT
HETATM    1  C   UNL     1      40.675 -14.491   2.453  1.00  0.00    -0.022 A 
HETATM    2  C   UNL     1      40.644 -13.412   1.550  1.00  0.00     0.031 A 
HETATM    3  C   UNL     1      40.151 -13.533   0.229  1.00  0.00     0.059 A 
HETATM    4  C   UNL     1      39.698 -14.777  -0.207  1.00  0.00     0.050 A 
HETATM    5  N   UNL     1      39.190 -15.053  -1.478  1.00  0.00    -0.324 N 
HETATM    6  C   UNL     1      38.503 -14.224  -2.315  1.00  0.00     0.245 C 
HETATM    7  O   UNL     1      38.085 -14.710  -3.368  1.00  0.00    -0.271 OA
HETATM    8  C   UNL     1      38.154 -12.801  -1.833  1.00  0.00     0.181 C 
HETATM    9  N   UNL     1      39.394 -12.025  -1.655  1.00  0.00    -0.334 N 
HETATM   10  C   UNL     1      40.298 -12.322  -0.621  1.00  0.00     0.256 C 
HETATM   11  O   UNL     1      41.218 -11.550  -0.341  1.00  0.00    -0.267 OA
HETATM   12  C   UNL     1      37.137 -12.210  -2.826  1.00  0.00     0.060 C 
HETATM   13  C   UNL     1      37.060 -10.692  -2.793  1.00  0.00     0.090 C 
HETATM   14  C   UNL     1      38.448 -10.161  -3.109  1.00  0.00     0.045 C 
HETATM   15  C   UNL     1      39.466 -10.625  -2.084  1.00  0.00     0.129 C 
HETATM   16  C   UNL     1      39.768 -15.873   0.663  1.00  0.00     0.031 A 
HETATM   17  C   UNL     1      40.222 -15.726   1.978  1.00  0.00     0.014 A 
HETATM   18  H   UNL     1      39.161 -16.017  -1.792  1.00  0.00     0.169 HD
ENDROOT
BRANCH   1  19
HETATM   19  C   UNL     1      41.159 -14.314   3.846  1.00  0.00     0.009 A 
HETATM   20  C   UNL     1      40.535 -13.452   4.783  1.00  0.00     0.079 A 
HETATM   21  C   UNL     1      41.056 -13.325   6.080  1.00  0.00     0.039 A 
HETATM   22  C   UNL     1      42.180 -14.055   6.470  1.00  0.00     0.026 A 
HETATM   23  C   UNL     1      42.793 -14.909   5.566  1.00  0.00     0.035 A 
HETATM   24  C   UNL     1      42.296 -15.037   4.270  1.00  0.00     0.039 A 
HETATM   25 CL   UNL     1      44.174 -15.817   6.045  1.00  0.00    -0.084 Cl
BRANCH  20  26
HETATM   26  O   UNL     1      39.414 -12.783   4.352  1.00  0.00    -0.355 OA
HETATM   27  C   UNL     1      39.346 -11.380   4.569  1.00  0.00     0.210 C 
ENDBRANCH  20  26
ENDBRANCH   1  19
BRANCH  13  28
HETATM   28  N   UNL     1      36.532 -10.182  -1.534  1.00  0.00    -0.338 N 
HETATM   29  C   UNL     1      35.318  -9.542  -1.489  1.00  0.00     0.316 C 
HETATM   30  N   UNL     1      34.943  -9.288  -0.196  1.00  0.00    -0.340 N 
HETATM   31  O   UNL     1      34.648  -9.264  -2.473  1.00  0.00    -0.247 OA
HETATM   32  H   UNL     1      35.706  -9.110   0.440  1.00  0.00     0.164 HD
HETATM   33  H   UNL     1      36.771 -10.674  -0.685  1.00  0.00     0.164 HD
BRANCH  30  34
HETATM   34  C   UNL     1      33.726  -8.561   0.063  1.00  0.00     0.150 C 
BRANCH  34  35
HETATM   35  C   UNL     1      33.555  -8.499   1.547  1.00  0.00    -0.018 C 
HETATM   36  C   UNL     1      32.378  -8.552   2.185  1.00  0.00     0.008 C 
ENDBRANCH  34  35
ENDBRANCH  30  34
ENDBRANCH  13  28
TORSDOF 5
ENDMDL
MODEL 7
REMARK VINA RESULT:      -7.7      3.887      8.346
REMARK  5 active torsions:
REMARK  status: ('A' for Active; 'I' for Inactive)
REMARK    1  A    between atoms: O_2  and  C_3 
REMARK    2  A    between atoms: C_4  and  C_5 
REMARK    3  A    between atoms: C_17  and  N_18 
REMARK       I    between atoms: N_18  and  C_19 
REMARK       I    between atoms: C_19  and  N_20 
REMARK    4  A    between atoms: N_20  and  C_21 
REMARK    5  A    between atoms: C_21  and  C_22 
ROOT
HETATM    1  C   UNL     1      41.947  -9.039   8.099  1.00  0.00    -0.022 A 
HETATM    2  C   UNL     1      41.169  -9.883   7.286  1.00  0.00     0.031 A 
HETATM    3  C   UNL     1      40.744  -9.517   5.987  1.00  0.00     0.059 A 
HETATM    4  C   UNL     1      41.090  -8.259   5.497  1.00  0.00     0.050 A 
HETATM    5  N   UNL     1      40.742  -7.756   4.241  1.00  0.00    -0.324 N 
HETATM    6  C   UNL     1      40.553  -8.440   3.077  1.00  0.00     0.245 C 
HETATM    7  O   UNL     1      40.320  -7.773   2.066  1.00  0.00    -0.271 OA
HETATM    8  C   UNL     1      40.797  -9.963   3.058  1.00  0.00     0.181 C 
HETATM    9  N   UNL     1      39.805 -10.629   3.919  1.00  0.00    -0.334 N 
HETATM   10  C   UNL     1      39.835 -10.484   5.316  1.00  0.00     0.256 C 
HETATM   11  O   UNL     1      39.146 -11.203   6.044  1.00  0.00    -0.267 OA
HETATM   12  C   UNL     1      40.811 -10.413   1.586  1.00  0.00     0.060 C 
HETATM   13  C   UNL     1      40.551 -11.899   1.399  1.00  0.00     0.090 C 
HETATM   14  C   UNL     1      39.194 -12.202   2.011  1.00  0.00     0.045 C 
HETATM   15  C   UNL     1      39.171 -11.882   3.494  1.00  0.00     0.129 C 
HETATM   16  C   UNL     1      41.824  -7.387   6.312  1.00  0.00     0.031 A 
HETATM   17  C   UNL     1      42.267  -7.780   7.579  1.00  0.00     0.014 A 
HETATM   18  H   UNL     1      40.785  -6.754   4.090  1.00  0.00     0.169 HD
ENDROOT
BRANCH   1  19
HETATM   19  C   UNL     1      42.411  -9.476   9.440  1.00  0.00     0.009 A 
HETATM   20  C   UNL     1      43.715  -9.978   9.687  1.00  0.00     0.079 A 
HETATM   21  C   UNL     1      44.079 -10.385  10.980  1.00  0.00     0.039 A 
HETATM   22  C   UNL     1      43.175 -10.287  12.039  1.00  0.00     0.026 A 
HETATM   23  C   UNL     1      41.901  -9.788  11.811  1.00  0.00     0.035 A 
HETATM   24  C   UNL     1      41.519  -9.391  10.531  1.00  0.00     0.039 A 
HETATM   25 CL   UNL     1      40.787  -9.657  13.116  1.00  0.00    -0.084 Cl
BRANCH  20  26
HETATM   26  O   UNL     1      44.571 -10.023   8.613  1.00  0.00    -0.355 OA
HETATM   27  C   UNL     1      45.659  -9.109   8.585  1.00  0.00     0.210 C 
ENDBRANCH  20  26
ENDBRANCH   1  19
BRANCH  13  28
HETATM   28  N   UNL     1      41.616 -12.731   1.943  1.00  0.00    -0.338 N 
HETATM   29  C   UNL     1      41.898 -13.959   1.398  1.00  0.00     0.316 C 
HETATM   30  N   UNL     1      43.028 -14.498   1.954  1.00  0.00    -0.340 N 
HETATM   31  O   UNL     1      41.242 -14.487   0.511  1.00  0.00    -0.247 OA
HETATM   32  H   UNL     1      43.183 -14.254   2.921  1.00  0.00     0.164 HD
HETATM   33  H   UNL     1      42.415 -12.270   2.356  1.00  0.00     0.164 HD
BRANCH  30  34
HETATM   34  C   UNL     1      43.455 -15.818   1.562  1.00  0.00     0.150 C 
BRANCH  34  35
HETATM   35  C   UNL     1      42.959 -16.770   2.603  1.00  0.00    -0.018 C 
HETATM   36  C   UNL     1      43.070 -18.103   2.537  1.00  0.00     0.008 C 
ENDBRANCH  34  35
ENDBRANCH  30  34
ENDBRANCH  13  28
TORSDOF 5
ENDMDL
MODEL 8
REMARK VINA RESULT:      -7.4      3.956      8.471
REMARK  5 active torsions:
REMARK  status: ('A' for Active; 'I' for Inactive)
REMARK    1  A    between atoms: O_2  and  C_3 
REMARK    2  A    between atoms: C_4  and  C_5 
REMARK    3  A    between atoms: C_17  and  N_18 
REMARK       I    between atoms: N_18  and  C_19 
REMARK       I    between atoms: C_19  and  N_20 
REMARK    4  A    between atoms: N_20  and  C_21 
REMARK    5  A    between atoms: C_21  and  C_22 
ROOT
HETATM    1  C   UNL     1      40.428  -9.230   1.245  1.00  0.00    -0.022 A 
HETATM    2  C   UNL     1      41.317  -9.902   2.104  1.00  0.00     0.031 A 
HETATM    3  C   UNL     1      40.934 -10.380   3.380  1.00  0.00     0.059 A 
HETATM    4  C   UNL     1      39.628 -10.159   3.816  1.00  0.00     0.050 A 
HETATM    5  N   UNL     1      39.106 -10.565   5.046  1.00  0.00    -0.324 N 
HETATM    6  C   UNL     1      39.442 -11.658   5.789  1.00  0.00     0.245 C 
HETATM    7  O   UNL     1      38.790 -11.859   6.817  1.00  0.00    -0.271 OA
HETATM    8  C   UNL     1      40.483 -12.649   5.231  1.00  0.00     0.181 C 
HETATM    9  N   UNL     1      41.793 -11.983   5.137  1.00  0.00    -0.334 N 
HETATM   10  C   UNL     1      42.029 -10.965   4.198  1.00  0.00     0.256 C 
HETATM   11  O   UNL     1      43.172 -10.559   3.975  1.00  0.00    -0.267 OA
HETATM   12  C   UNL     1      40.440 -13.913   6.109  1.00  0.00     0.060 C 
HETATM   13  C   UNL     1      41.696 -14.764   6.019  1.00  0.00     0.090 C 
HETATM   14  C   UNL     1      42.867 -13.891   6.438  1.00  0.00     0.045 C 
HETATM   15  C   UNL     1      43.019 -12.690   5.524  1.00  0.00     0.129 C 
HETATM   16  C   UNL     1      38.745  -9.449   2.992  1.00  0.00     0.031 A 
HETATM   17  C   UNL     1      39.130  -9.017   1.719  1.00  0.00     0.014 A 
HETATM   18  H   UNL     1      38.262 -10.118   5.387  1.00  0.00     0.169 HD
ENDROOT
BRANCH   1  19
HETATM   19  C   UNL     1      40.855  -8.781  -0.105  1.00  0.00     0.009 A 
HETATM   20  C   UNL     1      41.372  -7.487  -0.367  1.00  0.00     0.079 A 
HETATM   21  C   UNL     1      41.744  -7.128  -1.672  1.00  0.00     0.039 A 
HETATM   22  C   UNL     1      41.626  -8.040  -2.723  1.00  0.00     0.026 A 
HETATM   23  C   UNL     1      41.131  -9.312  -2.476  1.00  0.00     0.035 A 
HETATM   24  C   UNL     1      40.745  -9.680  -1.189  1.00  0.00     0.039 A 
HETATM   25 CL   UNL     1      40.993 -10.442  -3.767  1.00  0.00    -0.084 Cl
BRANCH  20  26
HETATM   26  O   UNL     1      41.494  -6.642   0.710  1.00  0.00    -0.355 OA
HETATM   27  C   UNL     1      41.907  -5.304   0.469  1.00  0.00     0.210 C 
ENDBRANCH  20  26
ENDBRANCH   1  19
BRANCH  13  28
HETATM   28  N   UNL     1      41.879 -15.360   4.701  1.00  0.00    -0.338 N 
HETATM   29  C   UNL     1      42.830 -16.329   4.493  1.00  0.00     0.316 C 
HETATM   30  N   UNL     1      42.725 -16.860   3.235  1.00  0.00    -0.340 N 
HETATM   31  O   UNL     1      43.642 -16.689   5.333  1.00  0.00    -0.247 OA
HETATM   32  H   UNL     1      42.403 -16.216   2.528  1.00  0.00     0.164 HD
HETATM   33  H   UNL     1      41.071 -15.439   4.099  1.00  0.00     0.164 HD
BRANCH  30  34
HETATM   34  C   UNL     1      43.679 -17.848   2.798  1.00  0.00     0.150 C 
BRANCH  34  35
HETATM   35  C   UNL     1      42.902 -18.979   2.202  1.00  0.00    -0.018 C 
HETATM   36  C   UNL     1      43.347 -20.237   2.089  1.00  0.00     0.008 C 
ENDBRANCH  34  35
ENDBRANCH  30  34
ENDBRANCH  13  28
TORSDOF 5
ENDMDL
MODEL 9
REMARK VINA RESULT:      -7.3      9.227     15.270
REMARK  5 active torsions:
REMARK  status: ('A' for Active; 'I' for Inactive)
REMARK    1  A    between atoms: O_2  and  C_3 
REMARK    2  A    between atoms: C_4  and  C_5 
REMARK    3  A    between atoms: C_17  and  N_18 
REMARK       I    between atoms: N_18  and  C_19 
REMARK       I    between atoms: C_19  and  N_20 
REMARK    4  A    between atoms: N_20  and  C_21 
REMARK    5  A    between atoms: C_21  and  C_22 
ROOT
HETATM    1  C   UNL     1      41.080  -6.671  19.206  1.00  0.00    -0.022 A 
HETATM    2  C   UNL     1      40.250  -6.665  18.070  1.00  0.00     0.031 A 
HETATM    3  C   UNL     1      40.344  -5.678  17.059  1.00  0.00     0.059 A 
HETATM    4  C   UNL     1      41.280  -4.655  17.204  1.00  0.00     0.050 A 
HETATM    5  N   UNL     1      41.486  -3.613  16.298  1.00  0.00    -0.324 N 
HETATM    6  C   UNL     1      41.327  -3.624  14.943  1.00  0.00     0.245 C 
HETATM    7  O   UNL     1      41.641  -2.599  14.333  1.00  0.00    -0.271 OA
HETATM    8  C   UNL     1      40.928  -4.942  14.249  1.00  0.00     0.181 C 
HETATM    9  N   UNL     1      39.573  -5.330  14.676  1.00  0.00    -0.334 N 
HETATM   10  C   UNL     1      39.316  -5.761  15.988  1.00  0.00     0.256 C 
HETATM   11  O   UNL     1      38.239  -6.284  16.286  1.00  0.00    -0.267 OA
HETATM   12  C   UNL     1      41.118  -4.746  12.734  1.00  0.00     0.060 C 
HETATM   13  C   UNL     1      40.332  -5.733  11.886  1.00  0.00     0.090 C 
HETATM   14  C   UNL     1      38.864  -5.565  12.241  1.00  0.00     0.045 C 
HETATM   15  C   UNL     1      38.610  -5.865  13.707  1.00  0.00     0.129 C 
HETATM   16  C   UNL     1      42.080  -4.619  18.354  1.00  0.00     0.031 A 
HETATM   17  C   UNL     1      42.000  -5.624  19.323  1.00  0.00     0.014 A 
HETATM   18  H   UNL     1      41.967  -2.779  16.617  1.00  0.00     0.169 HD
ENDROOT
BRANCH   1  19
HETATM   19  C   UNL     1      40.982  -7.748  20.224  1.00  0.00     0.009 A 
HETATM   20  C   UNL     1      40.189  -7.642  21.395  1.00  0.00     0.079 A 
HETATM   21  C   UNL     1      40.155  -8.698  22.320  1.00  0.00     0.039 A 
HETATM   22  C   UNL     1      40.884  -9.867  22.094  1.00  0.00     0.026 A 
HETATM   23  C   UNL     1      41.654  -9.985  20.947  1.00  0.00     0.035 A 
HETATM   24  C   UNL     1      41.709  -8.942  20.025  1.00  0.00     0.039 A 
HETATM   25 CL   UNL     1      42.547 -11.429  20.660  1.00  0.00    -0.084 Cl
BRANCH  20  26
HETATM   26  O   UNL     1      39.470  -6.482  21.549  1.00  0.00    -0.355 OA
HETATM   27  C   UNL     1      39.868  -5.577  22.569  1.00  0.00     0.210 C 
ENDBRANCH  20  26
ENDBRANCH   1  19
BRANCH  13  28
HETATM   28  N   UNL     1      40.798  -7.104  12.040  1.00  0.00    -0.338 N 
HETATM   29  C   UNL     1      41.588  -7.690  11.081  1.00  0.00     0.316 C 
HETATM   30  N   UNL     1      42.040  -8.914  11.496  1.00  0.00    -0.340 N 
HETATM   31  O   UNL     1      41.873  -7.171  10.011  1.00  0.00    -0.247 OA
HETATM   32  H   UNL     1      41.408  -9.419  12.099  1.00  0.00     0.164 HD
HETATM   33  H   UNL     1      40.961  -7.449  12.975  1.00  0.00     0.164 HD
BRANCH  30  34
HETATM   34  C   UNL     1      42.833  -9.721  10.602  1.00  0.00     0.150 C 
BRANCH  34  35
HETATM   35  C   UNL     1      44.263  -9.549  11.002  1.00  0.00    -0.018 C 
HETATM   36  C   UNL     1      45.312  -9.708  10.184  1.00  0.00     0.008 C 
ENDBRANCH  34  35
ENDBRANCH  30  34
ENDBRANCH  13  28
TORSDOF 5
ENDMDL
MODEL 10
REMARK VINA RESULT:      -7.3      3.492      6.114
REMARK  5 active torsions:
REMARK  status: ('A' for Active; 'I' for Inactive)
REMARK    1  A    between atoms: O_2  and  C_3 
REMARK    2  A    between atoms: C_4  and  C_5 
REMARK    3  A    between atoms: C_17  and  N_18 
REMARK       I    between atoms: N_18  and  C_19 
REMARK       I    between atoms: C_19  and  N_20 
REMARK    4  A    between atoms: N_20  and  C_21 
REMARK    5  A    between atoms: C_21  and  C_22 
ROOT
HETATM    1  C   UNL     1      42.988 -13.299   5.119  1.00  0.00    -0.022 A 
HETATM    2  C   UNL     1      41.981 -12.323   5.228  1.00  0.00     0.031 A 
HETATM    3  C   UNL     1      41.969 -11.346   6.253  1.00  0.00     0.059 A 
HETATM    4  C   UNL     1      42.984 -11.363   7.209  1.00  0.00     0.050 A 
HETATM    5  N   UNL     1      43.105 -10.472   8.277  1.00  0.00    -0.324 N 
HETATM    6  C   UNL     1      42.718  -9.166   8.338  1.00  0.00     0.245 C 
HETATM    7  O   UNL     1      42.994  -8.547   9.369  1.00  0.00    -0.271 OA
HETATM    8  C   UNL     1      42.119  -8.505   7.080  1.00  0.00     0.181 C 
HETATM    9  N   UNL     1      40.832  -9.144   6.757  1.00  0.00    -0.334 N 
HETATM   10  C   UNL     1      40.772 -10.465   6.283  1.00  0.00     0.256 C 
HETATM   11  O   UNL     1      39.727 -10.925   5.813  1.00  0.00    -0.267 OA
HETATM   12  C   UNL     1      42.063  -6.988   7.334  1.00  0.00     0.060 C 
HETATM   13  C   UNL     1      41.079  -6.254   6.438  1.00  0.00     0.090 C 
HETATM   14  C   UNL     1      39.707  -6.861   6.678  1.00  0.00     0.045 C 
HETATM   15  C   UNL     1      39.685  -8.337   6.328  1.00  0.00     0.129 C 
HETATM   16  C   UNL     1      43.968 -12.360   7.142  1.00  0.00     0.031 A 
HETATM   17  C   UNL     1      43.984 -13.293   6.100  1.00  0.00     0.014 A 
HETATM   18  H   UNL     1      43.689 -10.733   9.064  1.00  0.00     0.169 HD
ENDROOT
BRANCH   1  19
HETATM   19  C   UNL     1      42.990 -14.280   4.004  1.00  0.00     0.009 A 
HETATM   20  C   UNL     1      42.767 -13.920   2.650  1.00  0.00     0.079 A 
HETATM   21  C   UNL     1      42.770 -14.904   1.650  1.00  0.00     0.039 A 
HETATM   22  C   UNL     1      43.008 -16.242   1.968  1.00  0.00     0.026 A 
HETATM   23  C   UNL     1      43.238 -16.605   3.287  1.00  0.00     0.035 A 
HETATM   24  C   UNL     1      43.225 -15.642   4.294  1.00  0.00     0.039 A 
HETATM   25 CL   UNL     1      43.541 -18.252   3.682  1.00  0.00    -0.084 Cl
BRANCH  20  26
HETATM   26  O   UNL     1      42.569 -12.585   2.393  1.00  0.00    -0.355 OA
HETATM   27  C   UNL     1      41.510 -12.220   1.518  1.00  0.00     0.210 C 
ENDBRANCH  20  26
ENDBRANCH   1  19
BRANCH  13  28
HETATM   28  N   UNL     1      41.469  -6.277   5.034  1.00  0.00    -0.338 N 
HETATM   29  C   UNL     1      42.222  -5.261   4.497  1.00  0.00     0.316 C 
HETATM   30  N   UNL     1      42.608  -5.558   3.216  1.00  0.00    -0.340 N 
HETATM   31  O   UNL     1      42.531  -4.241   5.095  1.00  0.00    -0.247 OA
HETATM   32  H   UNL     1      41.951  -6.118   2.694  1.00  0.00     0.164 HD
HETATM   33  H   UNL     1      41.617  -7.175   4.596  1.00  0.00     0.164 HD
BRANCH  30  34
HETATM   34  C   UNL     1      43.351  -4.587   2.453  1.00  0.00     0.150 C 
BRANCH  34  35
HETATM   35  C   UNL     1      42.710  -4.499   1.105  1.00  0.00    -0.018 C 
HETATM   36  C   UNL     1      42.977  -3.559   0.189  1.00  0.00     0.008 C 
ENDBRANCH  34  35
ENDBRANCH  30  34
ENDBRANCH  13  28
TORSDOF 5
ENDMDL
