MODEL 1
REMARK VINA RESULT:      -8.1      0.000      0.000
REMARK  14 active torsions:
REMARK  status: ('A' for Active; 'I' for Inactive)
REMARK    1  A    between atoms: C_2  and  N_3 
REMARK    2  A    between atoms: N_3  and  C_5 
REMARK    3  A    between atoms: N_3  and  C_37 
REMARK    4  A    between atoms: C_5  and  C_6 
REMARK    5  A    between atoms: C_6  and  N_7 
REMARK    6  A    between atoms: C_10  and  O_11 
REMARK    7  A    between atoms: C_12  and  C_13 
REMARK    8  A    between atoms: C_13  and  C_14 
REMARK    9  A    between atoms: C_18  and  O_19 
REMARK   10  A    between atoms: O_19  and  C_20 
REMARK   11  A    between atoms: C_20  and  C_21 
REMARK   12  A    between atoms: C_27  and  C_28 
REMARK   13  A    between atoms: C_30  and  O_31 
REMARK   14  A    between atoms: C_33  and  O_34 
ROOT
HETATM    1  N   UNL     1      42.137 -15.582   4.040  1.00  0.00    -0.332 N 
HETATM    2  C   UNL     1      42.239 -15.633   5.412  1.00  0.00     0.278 A 
HETATM    3  O   UNL     1      42.044 -16.595   6.131  1.00  0.00    -0.265 OA
HETATM    4  C   UNL     1      42.700 -14.308   5.873  1.00  0.00     0.146 A 
HETATM    5  C   UNL     1      42.926 -13.571   4.779  1.00  0.00     0.059 A 
HETATM    6  C   UNL     1      42.523 -14.277   3.519  1.00  0.00     0.161 A 
ENDROOT
BRANCH   5   7
HETATM    7  C   UNL     1      43.563 -12.243   4.681  1.00  0.00     0.193 C 
HETATM    8  O   UNL     1      43.922 -11.816   3.587  1.00  0.00    -0.287 OA
BRANCH   7   9
HETATM    9  C   UNL     1      43.891 -11.465   5.901  1.00  0.00     0.015 A 
HETATM   10  C   UNL     1      42.946 -10.556   6.388  1.00  0.00     0.025 A 
HETATM   11  C   UNL     1      43.245  -9.734   7.488  1.00  0.00    -0.028 A 
HETATM   12  C   UNL     1      42.221  -8.753   7.990  1.00  0.00     0.051 C 
HETATM   13  C   UNL     1      44.519  -9.807   8.081  1.00  0.00     0.074 A 
HETATM   14  C   UNL     1      45.458 -10.720   7.593  1.00  0.00     0.038 A 
HETATM   15  C   UNL     1      45.153 -11.535   6.500  1.00  0.00     0.018 A 
BRANCH  13  16
HETATM   16  O   UNL     1      44.747  -8.961   9.133  1.00  0.00    -0.350 OA
BRANCH  16  17
HETATM   17  C   UNL     1      44.995  -9.573  10.402  1.00  0.00     0.179 C 
BRANCH  17  18
HETATM   18  C   UNL     1      43.675  -9.664  11.180  1.00  0.00     0.002 C 
HETATM   19  C   UNL     1      43.585 -10.972  11.967  1.00  0.00     0.011 C 
HETATM   20  C   UNL     1      43.529  -8.468  12.119  1.00  0.00     0.011 C 
ENDBRANCH  17  18
ENDBRANCH  16  17
ENDBRANCH  13  16
ENDBRANCH   7   9
ENDBRANCH   5   7
BRANCH   4  21
HETATM   21  O   UNL     1      42.930 -14.006   7.179  1.00  0.00    -0.355 OA
HETATM   22  H   UNL     1      42.157 -13.497   7.496  1.00  0.00     0.218 HD
ENDBRANCH   4  21
BRANCH   6  23
HETATM   23  C   UNL     1      41.376 -13.662   2.737  1.00  0.00    -0.028 A 
HETATM   24  C   UNL     1      41.476 -13.553   1.335  1.00  0.00     0.049 A 
HETATM   25  C   UNL     1      40.429 -13.016   0.584  1.00  0.00     0.101 A 
HETATM   26  C   UNL     1      39.267 -12.608   1.242  1.00  0.00     0.099 A 
HETATM   27  C   UNL     1      39.150 -12.684   2.623  1.00  0.00     0.040 A 
HETATM   28  C   UNL     1      40.207 -13.199   3.371  1.00  0.00     0.012 A 
BRANCH  25  29
HETATM   29  O   UNL     1      40.413 -12.870  -0.779  1.00  0.00    -0.353 OA
HETATM   30  C   UNL     1      40.095 -14.040  -1.529  1.00  0.00     0.210 C 
ENDBRANCH  25  29
BRANCH  26  31
HETATM   31  O   UNL     1      38.212 -12.104   0.534  1.00  0.00    -0.358 OA
HETATM   32  H   UNL     1      38.609 -11.621  -0.217  1.00  0.00     0.218 HD
ENDBRANCH  26  31
ENDBRANCH   6  23
BRANCH   1  33
HETATM   33  C   UNL     1      42.003 -16.761   3.202  1.00  0.00     0.155 C 
BRANCH  33  34
HETATM   34  C   UNL     1      43.291 -17.094   2.429  1.00  0.00     0.254 C 
BRANCH  34  35
HETATM   35  N   UNL     1      43.964 -18.386   2.889  1.00  0.00    -0.070 N 
HETATM   36  H   UNL     1      44.795 -18.479   2.290  1.00  0.00     0.279 HD
BRANCH  35  37
HETATM   37  C   UNL     1      43.149 -19.648   2.640  1.00  0.00     0.230 C 
HETATM   38  C   UNL     1      43.742 -20.494   1.529  1.00  0.00     0.034 C 
ENDBRANCH  35  37
BRANCH  35  39
HETATM   39  C   UNL     1      44.490 -18.362   4.313  1.00  0.00     0.230 C 
HETATM   40  C   UNL     1      44.040 -19.580   5.098  1.00  0.00     0.034 C 
ENDBRANCH  35  39
ENDBRANCH  34  35
ENDBRANCH  33  34
ENDBRANCH   1  33
TORSDOF 14
ENDMDL
MODEL 2
REMARK VINA RESULT:      -8.1      3.708      8.587
REMARK  14 active torsions:
REMARK  status: ('A' for Active; 'I' for Inactive)
REMARK    1  A    between atoms: C_2  and  N_3 
REMARK    2  A    between atoms: N_3  and  C_5 
REMARK    3  A    between atoms: N_3  and  C_37 
REMARK    4  A    between atoms: C_5  and  C_6 
REMARK    5  A    between atoms: C_6  and  N_7 
REMARK    6  A    between atoms: C_10  and  O_11 
REMARK    7  A    between atoms: C_12  and  C_13 
REMARK    8  A    between atoms: C_13  and  C_14 
REMARK    9  A    between atoms: C_18  and  O_19 
REMARK   10  A    between atoms: O_19  and  C_20 
REMARK   11  A    between atoms: C_20  and  C_21 
REMARK   12  A    between atoms: C_27  and  C_28 
REMARK   13  A    between atoms: C_30  and  O_31 
REMARK   14  A    between atoms: C_33  and  O_34 
ROOT
HETATM    1  N   UNL     1      40.721 -11.035   0.630  1.00  0.00    -0.332 N 
HETATM    2  C   UNL     1      39.500 -11.063  -0.005  1.00  0.00     0.278 A 
HETATM    3  O   UNL     1      38.891 -10.120  -0.475  1.00  0.00    -0.265 OA
HETATM    4  C   UNL     1      39.070 -12.474  -0.080  1.00  0.00     0.146 A 
HETATM    5  C   UNL     1      40.065 -13.212   0.425  1.00  0.00     0.059 A 
HETATM    6  C   UNL     1      41.172 -12.373   0.989  1.00  0.00     0.161 A 
ENDROOT
BRANCH   5   7
HETATM    7  C   UNL     1      40.214 -14.682   0.418  1.00  0.00     0.193 C 
HETATM    8  O   UNL     1      39.568 -15.358  -0.377  1.00  0.00    -0.287 OA
BRANCH   7   9
HETATM    9  C   UNL     1      41.042 -15.367   1.442  1.00  0.00     0.015 A 
HETATM   10  C   UNL     1      40.482 -15.609   2.701  1.00  0.00     0.025 A 
HETATM   11  C   UNL     1      41.253 -16.174   3.730  1.00  0.00    -0.028 A 
HETATM   12  C   UNL     1      40.638 -16.415   5.081  1.00  0.00     0.051 C 
HETATM   13  C   UNL     1      42.610 -16.466   3.497  1.00  0.00     0.074 A 
HETATM   14  C   UNL     1      43.164 -16.226   2.237  1.00  0.00     0.038 A 
HETATM   15  C   UNL     1      42.389 -15.666   1.218  1.00  0.00     0.018 A 
BRANCH  13  16
HETATM   16  O   UNL     1      43.306 -16.994   4.552  1.00  0.00    -0.350 OA
BRANCH  16  17
HETATM   17  C   UNL     1      44.307 -17.964   4.235  1.00  0.00     0.179 C 
BRANCH  17  18
HETATM   18  C   UNL     1      43.642 -19.339   4.087  1.00  0.00     0.002 C 
HETATM   19  C   UNL     1      43.758 -19.859   2.653  1.00  0.00     0.011 C 
HETATM   20  C   UNL     1      44.260 -20.337   5.065  1.00  0.00     0.011 C 
ENDBRANCH  17  18
ENDBRANCH  16  17
ENDBRANCH  13  16
ENDBRANCH   7   9
ENDBRANCH   5   7
BRANCH   4  21
HETATM   21  O   UNL     1      37.909 -12.875  -0.666  1.00  0.00    -0.355 OA
HETATM   22  H   UNL     1      37.243 -12.180  -0.489  1.00  0.00     0.218 HD
ENDBRANCH   4  21
BRANCH   6  23
HETATM   23  C   UNL     1      41.396 -12.468   2.488  1.00  0.00    -0.028 A 
HETATM   24  C   UNL     1      40.291 -12.376   3.359  1.00  0.00     0.049 A 
HETATM   25  C   UNL     1      40.460 -12.485   4.740  1.00  0.00     0.101 A 
HETATM   26  C   UNL     1      41.742 -12.711   5.247  1.00  0.00     0.099 A 
HETATM   27  C   UNL     1      42.850 -12.783   4.415  1.00  0.00     0.040 A 
HETATM   28  C   UNL     1      42.680 -12.651   3.038  1.00  0.00     0.012 A 
BRANCH  25  29
HETATM   29  O   UNL     1      39.462 -12.419   5.677  1.00  0.00    -0.353 OA
HETATM   30  C   UNL     1      38.953 -11.117   5.956  1.00  0.00     0.210 C 
ENDBRANCH  25  29
BRANCH  26  31
HETATM   31  O   UNL     1      41.939 -12.850   6.593  1.00  0.00    -0.358 OA
HETATM   32  H   UNL     1      41.588 -13.734   6.818  1.00  0.00     0.218 HD
ENDBRANCH  26  31
ENDBRANCH   6  23
BRANCH   1  33
HETATM   33  C   UNL     1      41.599  -9.878   0.628  1.00  0.00     0.155 C 
BRANCH  33  34
HETATM   34  C   UNL     1      42.090  -9.502  -0.782  1.00  0.00     0.254 C 
BRANCH  34  35
HETATM   35  N   UNL     1      41.415  -8.256  -1.351  1.00  0.00    -0.070 N 
HETATM   36  H   UNL     1      40.436  -8.320  -1.039  1.00  0.00     0.279 HD
BRANCH  35  37
HETATM   37  C   UNL     1      41.347  -8.211  -2.872  1.00  0.00     0.230 C 
HETATM   38  C   UNL     1      40.836  -9.516  -3.454  1.00  0.00     0.034 C 
ENDBRANCH  35  37
BRANCH  35  39
HETATM   39  C   UNL     1      41.932  -6.938  -0.801  1.00  0.00     0.230 C 
HETATM   40  C   UNL     1      43.226  -6.519  -1.474  1.00  0.00     0.034 C 
ENDBRANCH  35  39
ENDBRANCH  34  35
ENDBRANCH  33  34
ENDBRANCH   1  33
TORSDOF 14
ENDMDL
MODEL 3
REMARK VINA RESULT:      -8.0      2.320      4.972
REMARK  14 active torsions:
REMARK  status: ('A' for Active; 'I' for Inactive)
REMARK    1  A    between atoms: C_2  and  N_3 
REMARK    2  A    between atoms: N_3  and  C_5 
REMARK    3  A    between atoms: N_3  and  C_37 
REMARK    4  A    between atoms: C_5  and  C_6 
REMARK    5  A    between atoms: C_6  and  N_7 
REMARK    6  A    between atoms: C_10  and  O_11 
REMARK    7  A    between atoms: C_12  and  C_13 
REMARK    8  A    between atoms: C_13  and  C_14 
REMARK    9  A    between atoms: C_18  and  O_19 
REMARK   10  A    between atoms: O_19  and  C_20 
REMARK   11  A    between atoms: C_20  and  C_21 
REMARK   12  A    between atoms: C_27  and  C_28 
REMARK   13  A    between atoms: C_30  and  O_31 
REMARK   14  A    between atoms: C_33  and  O_34 
ROOT
HETATM    1  N   UNL     1      40.660 -14.382   4.075  1.00  0.00    -0.332 N 
HETATM    2  C   UNL     1      39.944 -14.397   2.899  1.00  0.00     0.278 A 
HETATM    3  O   UNL     1      39.761 -15.346   2.160  1.00  0.00    -0.265 OA
HETATM    4  C   UNL     1      39.363 -13.053   2.714  1.00  0.00     0.146 A 
HETATM    5  C   UNL     1      39.682 -12.337   3.799  1.00  0.00     0.059 A 
HETATM    6  C   UNL     1      40.593 -13.081   4.729  1.00  0.00     0.161 A 
ENDROOT
BRANCH   5   7
HETATM    7  C   UNL     1      39.199 -10.997   4.192  1.00  0.00     0.193 C 
HETATM    8  O   UNL     1      38.672 -10.269   3.356  1.00  0.00    -0.287 OA
BRANCH   7   9
HETATM    9  C   UNL     1      39.453 -10.467   5.554  1.00  0.00     0.015 A 
HETATM   10  C   UNL     1      40.479  -9.533   5.728  1.00  0.00     0.025 A 
HETATM   11  C   UNL     1      40.815  -9.069   7.011  1.00  0.00    -0.028 A 
HETATM   12  C   UNL     1      41.930  -8.074   7.179  1.00  0.00     0.051 C 
HETATM   13  C   UNL     1      40.131  -9.577   8.131  1.00  0.00     0.074 A 
HETATM   14  C   UNL     1      39.104 -10.508   7.952  1.00  0.00     0.038 A 
HETATM   15  C   UNL     1      38.775 -10.963   6.673  1.00  0.00     0.018 A 
BRANCH  13  16
HETATM   16  O   UNL     1      40.527  -9.097   9.351  1.00  0.00    -0.350 OA
BRANCH  16  17
HETATM   17  C   UNL     1      39.666  -9.378  10.458  1.00  0.00     0.179 C 
BRANCH  17  18
HETATM   18  C   UNL     1      40.497  -9.389  11.748  1.00  0.00     0.002 C 
HETATM   19  C   UNL     1      39.863 -10.293  12.807  1.00  0.00     0.011 C 
HETATM   20  C   UNL     1      41.927  -9.839  11.453  1.00  0.00     0.011 C 
ENDBRANCH  17  18
ENDBRANCH  16  17
ENDBRANCH  13  16
ENDBRANCH   7   9
ENDBRANCH   5   7
BRANCH   4  21
HETATM   21  O   UNL     1      38.573 -12.714   1.659  1.00  0.00    -0.355 OA
HETATM   22  H   UNL     1      39.167 -12.414   0.941  1.00  0.00     0.218 HD
ENDBRANCH   4  21
BRANCH   6  23
HETATM   23  C   UNL     1      41.988 -12.510   4.910  1.00  0.00    -0.028 A 
HETATM   24  C   UNL     1      42.554 -12.468   6.201  1.00  0.00     0.049 A 
HETATM   25  C   UNL     1      43.845 -11.972   6.398  1.00  0.00     0.101 A 
HETATM   26  C   UNL     1      44.577 -11.539   5.290  1.00  0.00     0.099 A 
HETATM   27  C   UNL     1      44.036 -11.549   4.013  1.00  0.00     0.040 A 
HETATM   28  C   UNL     1      42.739 -12.024   3.824  1.00  0.00     0.012 A 
BRANCH  25  29
HETATM   29  O   UNL     1      44.496 -11.891   7.601  1.00  0.00    -0.353 OA
HETATM   30  C   UNL     1      44.076 -10.840   8.468  1.00  0.00     0.210 C 
ENDBRANCH  25  29
BRANCH  26  31
HETATM   31  O   UNL     1      45.854 -11.074   5.445  1.00  0.00    -0.358 OA
HETATM   32  H   UNL     1      46.020 -10.508   4.665  1.00  0.00     0.218 HD
ENDBRANCH  26  31
ENDBRANCH   6  23
BRANCH   1  33
HETATM   33  C   UNL     1      41.125 -15.583   4.747  1.00  0.00     0.155 C 
BRANCH  33  34
HETATM   34  C   UNL     1      42.571 -15.955   4.374  1.00  0.00     0.254 C 
BRANCH  34  35
HETATM   35  N   UNL     1      42.669 -17.138   3.414  1.00  0.00    -0.070 N 
HETATM   36  H   UNL     1      41.723 -17.543   3.395  1.00  0.00     0.279 HD
BRANCH  35  37
HETATM   37  C   UNL     1      43.575 -18.266   3.889  1.00  0.00     0.230 C 
HETATM   38  C   UNL     1      44.078 -19.113   2.735  1.00  0.00     0.034 C 
ENDBRANCH  35  37
BRANCH  35  39
HETATM   39  C   UNL     1      42.983 -16.772   1.974  1.00  0.00     0.230 C 
HETATM   40  C   UNL     1      43.440 -15.330   1.849  1.00  0.00     0.034 C 
ENDBRANCH  35  39
ENDBRANCH  34  35
ENDBRANCH  33  34
ENDBRANCH   1  33
TORSDOF 14
ENDMDL
MODEL 4
REMARK VINA RESULT:      -8.0      2.718      8.297
REMARK  14 active torsions:
REMARK  status: ('A' for Active; 'I' for Inactive)
REMARK    1  A    between atoms: C_2  and  N_3 
REMARK    2  A    between atoms: N_3  and  C_5 
REMARK    3  A    between atoms: N_3  and  C_37 
REMARK    4  A    between atoms: C_5  and  C_6 
REMARK    5  A    between atoms: C_6  and  N_7 
REMARK    6  A    between atoms: C_10  and  O_11 
REMARK    7  A    between atoms: C_12  and  C_13 
REMARK    8  A    between atoms: C_13  and  C_14 
REMARK    9  A    between atoms: C_18  and  O_19 
REMARK   10  A    between atoms: O_19  and  C_20 
REMARK   11  A    between atoms: C_20  and  C_21 
REMARK   12  A    between atoms: C_27  and  C_28 
REMARK   13  A    between atoms: C_30  and  O_31 
REMARK   14  A    between atoms: C_33  and  O_34 
ROOT
HETATM    1  N   UNL     1      41.088 -10.083   6.022  1.00  0.00    -0.332 N 
HETATM    2  C   UNL     1      40.203  -9.360   5.255  1.00  0.00     0.278 A 
HETATM    3  O   UNL     1      39.465  -8.467   5.626  1.00  0.00    -0.265 OA
HETATM    4  C   UNL     1      40.350  -9.815   3.858  1.00  0.00     0.146 A 
HETATM    5  C   UNL     1      41.347 -10.708   3.841  1.00  0.00     0.059 A 
HETATM    6  C   UNL     1      41.861 -11.019   5.215  1.00  0.00     0.161 A 
ENDROOT
BRANCH   5   7
HETATM    7  C   UNL     1      42.008 -11.327   2.674  1.00  0.00     0.193 C 
HETATM    8  O   UNL     1      42.409 -10.620   1.753  1.00  0.00    -0.287 OA
BRANCH   7   9
HETATM    9  C   UNL     1      42.084 -12.802   2.538  1.00  0.00     0.015 A 
HETATM   10  C   UNL     1      40.897 -13.520   2.359  1.00  0.00     0.025 A 
HETATM   11  C   UNL     1      40.910 -14.924   2.313  1.00  0.00    -0.028 A 
HETATM   12  C   UNL     1      39.621 -15.679   2.133  1.00  0.00     0.051 C 
HETATM   13  C   UNL     1      42.126 -15.610   2.484  1.00  0.00     0.074 A 
HETATM   14  C   UNL     1      43.310 -14.890   2.659  1.00  0.00     0.038 A 
HETATM   15  C   UNL     1      43.290 -13.493   2.700  1.00  0.00     0.018 A 
BRANCH  13  16
HETATM   16  O   UNL     1      42.059 -16.978   2.451  1.00  0.00    -0.350 OA
BRANCH  16  17
HETATM   17  C   UNL     1      43.263 -17.668   2.104  1.00  0.00     0.179 C 
BRANCH  17  18
HETATM   18  C   UNL     1      43.333 -18.981   2.896  1.00  0.00     0.002 C 
HETATM   19  C   UNL     1      43.626 -20.168   1.977  1.00  0.00     0.011 C 
HETATM   20  C   UNL     1      44.393 -18.883   3.992  1.00  0.00     0.011 C 
ENDBRANCH  17  18
ENDBRANCH  16  17
ENDBRANCH  13  16
ENDBRANCH   7   9
ENDBRANCH   5   7
BRANCH   4  21
HETATM   21  O   UNL     1      39.638  -9.298   2.820  1.00  0.00    -0.355 OA
HETATM   22  H   UNL     1      40.204  -8.625   2.391  1.00  0.00     0.218 HD
ENDBRANCH   4  21
BRANCH   6  23
HETATM   23  C   UNL     1      41.652 -12.439   5.710  1.00  0.00    -0.028 A 
HETATM   24  C   UNL     1      42.757 -13.174   6.186  1.00  0.00     0.049 A 
HETATM   25  C   UNL     1      42.594 -14.473   6.671  1.00  0.00     0.101 A 
HETATM   26  C   UNL     1      41.312 -15.026   6.701  1.00  0.00     0.099 A 
HETATM   27  C   UNL     1      40.211 -14.334   6.218  1.00  0.00     0.040 A 
HETATM   28  C   UNL     1      40.381 -13.046   5.713  1.00  0.00     0.012 A 
BRANCH  25  29
HETATM   29  O   UNL     1      43.590 -15.275   7.163  1.00  0.00    -0.353 OA
HETATM   30  C   UNL     1      44.451 -15.867   6.193  1.00  0.00     0.210 C 
ENDBRANCH  25  29
BRANCH  26  31
HETATM   31  O   UNL     1      41.113 -16.286   7.195  1.00  0.00    -0.358 OA
HETATM   32  H   UNL     1      41.853 -16.441   7.816  1.00  0.00     0.218 HD
ENDBRANCH  26  31
ENDBRANCH   6  23
BRANCH   1  33
HETATM   33  C   UNL     1      41.452  -9.723   7.381  1.00  0.00     0.155 C 
BRANCH  33  34
HETATM   34  C   UNL     1      42.914  -9.258   7.505  1.00  0.00     0.254 C 
BRANCH  34  35
HETATM   35  N   UNL     1      43.704 -10.002   8.580  1.00  0.00    -0.070 N 
HETATM   36  H   UNL     1      43.057 -10.723   8.931  1.00  0.00     0.279 HD
BRANCH  35  37
HETATM   37  C   UNL     1      44.062  -9.162   9.799  1.00  0.00     0.230 C 
HETATM   38  C   UNL     1      44.088  -9.990  11.069  1.00  0.00     0.034 C 
ENDBRANCH  35  37
BRANCH  35  39
HETATM   39  C   UNL     1      44.920 -10.757   8.075  1.00  0.00     0.230 C 
HETATM   40  C   UNL     1      46.087  -9.825   7.806  1.00  0.00     0.034 C 
ENDBRANCH  35  39
ENDBRANCH  34  35
ENDBRANCH  33  34
ENDBRANCH   1  33
TORSDOF 14
ENDMDL
MODEL 5
REMARK VINA RESULT:      -7.7      3.220      8.554
REMARK  14 active torsions:
REMARK  status: ('A' for Active; 'I' for Inactive)
REMARK    1  A    between atoms: C_2  and  N_3 
REMARK    2  A    between atoms: N_3  and  C_5 
REMARK    3  A    between atoms: N_3  and  C_37 
REMARK    4  A    between atoms: C_5  and  C_6 
REMARK    5  A    between atoms: C_6  and  N_7 
REMARK    6  A    between atoms: C_10  and  O_11 
REMARK    7  A    between atoms: C_12  and  C_13 
REMARK    8  A    between atoms: C_13  and  C_14 
REMARK    9  A    between atoms: C_18  and  O_19 
REMARK   10  A    between atoms: O_19  and  C_20 
REMARK   11  A    between atoms: C_20  and  C_21 
REMARK   12  A    between atoms: C_27  and  C_28 
REMARK   13  A    between atoms: C_30  and  O_31 
REMARK   14  A    between atoms: C_33  and  O_34 
ROOT
HETATM    1  N   UNL     1      43.937 -10.245   9.241  1.00  0.00    -0.332 N 
HETATM    2  C   UNL     1      45.292  -9.999   9.221  1.00  0.00     0.278 A 
HETATM    3  O   UNL     1      45.987  -9.626  10.148  1.00  0.00    -0.265 OA
HETATM    4  C   UNL     1      45.786 -10.335   7.871  1.00  0.00     0.146 A 
HETATM    5  C   UNL     1      44.747 -10.831   7.188  1.00  0.00     0.059 A 
HETATM    6  C   UNL     1      43.465 -10.754   7.960  1.00  0.00     0.161 A 
ENDROOT
BRANCH   5   7
HETATM    7  C   UNL     1      44.745 -11.478   5.860  1.00  0.00     0.193 C 
HETATM    8  O   UNL     1      45.435 -11.017   4.954  1.00  0.00    -0.287 OA
BRANCH   7   9
HETATM    9  C   UNL     1      43.827 -12.605   5.565  1.00  0.00     0.015 A 
HETATM   10  C   UNL     1      43.990 -13.802   6.270  1.00  0.00     0.025 A 
HETATM   11  C   UNL     1      43.203 -14.925   5.965  1.00  0.00    -0.028 A 
HETATM   12  C   UNL     1      43.402 -16.208   6.725  1.00  0.00     0.051 C 
HETATM   13  C   UNL     1      42.266 -14.849   4.918  1.00  0.00     0.074 A 
HETATM   14  C   UNL     1      42.104 -13.650   4.219  1.00  0.00     0.038 A 
HETATM   15  C   UNL     1      42.889 -12.537   4.530  1.00  0.00     0.018 A 
BRANCH  13  16
HETATM   16  O   UNL     1      41.551 -15.989   4.662  1.00  0.00    -0.350 OA
BRANCH  16  17
HETATM   17  C   UNL     1      41.552 -16.453   3.309  1.00  0.00     0.179 C 
BRANCH  17  18
HETATM   18  C   UNL     1      42.994 -16.768   2.889  1.00  0.00     0.002 C 
HETATM   19  C   UNL     1      43.208 -18.274   2.727  1.00  0.00     0.011 C 
HETATM   20  C   UNL     1      43.340 -16.039   1.592  1.00  0.00     0.011 C 
ENDBRANCH  17  18
ENDBRANCH  16  17
ENDBRANCH  13  16
ENDBRANCH   7   9
ENDBRANCH   5   7
BRANCH   4  21
HETATM   21  O   UNL     1      47.091 -10.231   7.501  1.00  0.00    -0.355 OA
HETATM   22  H   UNL     1      47.248 -10.903   6.808  1.00  0.00     0.218 HD
ENDBRANCH   4  21
BRANCH   6  23
HETATM   23  C   UNL     1      42.389  -9.843   7.396  1.00  0.00    -0.028 A 
HETATM   24  C   UNL     1      41.190 -10.406   6.912  1.00  0.00     0.049 A 
HETATM   25  C   UNL     1      40.172  -9.594   6.411  1.00  0.00     0.101 A 
HETATM   26  C   UNL     1      40.349  -8.208   6.416  1.00  0.00     0.099 A 
HETATM   27  C   UNL     1      41.527  -7.629   6.865  1.00  0.00     0.040 A 
HETATM   28  C   UNL     1      42.551  -8.445   7.343  1.00  0.00     0.012 A 
BRANCH  25  29
HETATM   29  O   UNL     1      38.967 -10.029   5.924  1.00  0.00    -0.353 OA
HETATM   30  C   UNL     1      39.010 -10.725   4.681  1.00  0.00     0.210 C 
ENDBRANCH  25  29
BRANCH  26  31
HETATM   31  O   UNL     1      39.361  -7.383   5.957  1.00  0.00    -0.358 OA
HETATM   32  H   UNL     1      38.608  -7.513   6.568  1.00  0.00     0.218 HD
ENDBRANCH  26  31
ENDBRANCH   6  23
BRANCH   1  33
HETATM   33  C   UNL     1      43.154 -10.321  10.461  1.00  0.00     0.155 C 
BRANCH  33  34
HETATM   34  C   UNL     1      42.578  -8.960  10.888  1.00  0.00     0.254 C 
BRANCH  34  35
HETATM   35  N   UNL     1      41.104  -9.016  11.285  1.00  0.00    -0.070 N 
HETATM   36  H   UNL     1      40.913 -10.014  11.449  1.00  0.00     0.279 HD
BRANCH  35  37
HETATM   37  C   UNL     1      40.136  -8.599  10.186  1.00  0.00     0.230 C 
HETATM   38  C   UNL     1      39.096  -9.669   9.913  1.00  0.00     0.034 C 
ENDBRANCH  35  37
BRANCH  35  39
HETATM   39  C   UNL     1      40.765  -8.317  12.589  1.00  0.00     0.230 C 
HETATM   40  C   UNL     1      40.868  -9.260  13.774  1.00  0.00     0.034 C 
ENDBRANCH  35  39
ENDBRANCH  34  35
ENDBRANCH  33  34
ENDBRANCH   1  33
TORSDOF 14
ENDMDL
MODEL 6
REMARK VINA RESULT:      -7.7      3.014      8.419
REMARK  14 active torsions:
REMARK  status: ('A' for Active; 'I' for Inactive)
REMARK    1  A    between atoms: C_2  and  N_3 
REMARK    2  A    between atoms: N_3  and  C_5 
REMARK    3  A    between atoms: N_3  and  C_37 
REMARK    4  A    between atoms: C_5  and  C_6 
REMARK    5  A    between atoms: C_6  and  N_7 
REMARK    6  A    between atoms: C_10  and  O_11 
REMARK    7  A    between atoms: C_12  and  C_13 
REMARK    8  A    between atoms: C_13  and  C_14 
REMARK    9  A    between atoms: C_18  and  O_19 
REMARK   10  A    between atoms: O_19  and  C_20 
REMARK   11  A    between atoms: C_20  and  C_21 
REMARK   12  A    between atoms: C_27  and  C_28 
REMARK   13  A    between atoms: C_30  and  O_31 
REMARK   14  A    between atoms: C_33  and  O_34 
ROOT
HETATM    1  N   UNL     1      40.389  -9.942   4.427  1.00  0.00    -0.332 N 
HETATM    2  C   UNL     1      39.327  -9.779   5.287  1.00  0.00     0.278 A 
HETATM    3  O   UNL     1      38.637  -8.787   5.428  1.00  0.00    -0.265 OA
HETATM    4  C   UNL     1      39.117 -11.064   5.983  1.00  0.00     0.146 A 
HETATM    5  C   UNL     1      39.988 -11.937   5.461  1.00  0.00     0.059 A 
HETATM    6  C   UNL     1      40.924 -11.296   4.481  1.00  0.00     0.161 A 
ENDROOT
BRANCH   5   7
HETATM    7  C   UNL     1      40.069 -13.396   5.679  1.00  0.00     0.193 C 
HETATM    8  O   UNL     1      39.642 -13.883   6.722  1.00  0.00    -0.287 OA
BRANCH   7   9
HETATM    9  C   UNL     1      40.773 -14.271   4.709  1.00  0.00     0.015 A 
HETATM   10  C   UNL     1      40.114 -14.624   3.526  1.00  0.00     0.025 A 
HETATM   11  C   UNL     1      40.703 -15.520   2.619  1.00  0.00    -0.028 A 
HETATM   12  C   UNL     1      39.974 -15.897   1.359  1.00  0.00     0.051 C 
HETATM   13  C   UNL     1      41.953 -16.090   2.923  1.00  0.00     0.074 A 
HETATM   14  C   UNL     1      42.610 -15.731   4.103  1.00  0.00     0.038 A 
HETATM   15  C   UNL     1      42.018 -14.838   4.999  1.00  0.00     0.018 A 
BRANCH  13  16
HETATM   16  O   UNL     1      42.456 -16.971   2.003  1.00  0.00    -0.350 OA
BRANCH  16  17
HETATM   17  C   UNL     1      43.655 -17.660   2.369  1.00  0.00     0.179 C 
BRANCH  17  18
HETATM   18  C   UNL     1      43.288 -19.040   2.931  1.00  0.00     0.002 C 
HETATM   19  C   UNL     1      43.416 -20.126   1.862  1.00  0.00     0.011 C 
HETATM   20  C   UNL     1      44.168 -19.373   4.135  1.00  0.00     0.011 C 
ENDBRANCH  17  18
ENDBRANCH  16  17
ENDBRANCH  13  16
ENDBRANCH   7   9
ENDBRANCH   5   7
BRANCH   4  21
HETATM   21  O   UNL     1      38.131 -11.272   6.898  1.00  0.00    -0.355 OA
HETATM   22  H   UNL     1      38.540 -11.190   7.783  1.00  0.00     0.218 HD
ENDBRANCH   4  21
BRANCH   6  23
HETATM   23  C   UNL     1      42.392 -11.268   4.868  1.00  0.00    -0.028 A 
HETATM   24  C   UNL     1      42.750 -10.976   6.200  1.00  0.00     0.049 A 
HETATM   25  C   UNL     1      44.089 -10.967   6.593  1.00  0.00     0.101 A 
HETATM   26  C   UNL     1      45.071 -11.275   5.650  1.00  0.00     0.099 A 
HETATM   27  C   UNL     1      44.749 -11.543   4.327  1.00  0.00     0.040 A 
HETATM   28  C   UNL     1      43.412 -11.529   3.933  1.00  0.00     0.012 A 
BRANCH  25  29
HETATM   29  O   UNL     1      44.551 -10.707   7.857  1.00  0.00    -0.353 OA
HETATM   30  C   UNL     1      44.493  -9.345   8.274  1.00  0.00     0.210 C 
ENDBRANCH  25  29
BRANCH  26  31
HETATM   31  O   UNL     1      46.391 -11.302   6.008  1.00  0.00    -0.358 OA
HETATM   32  H   UNL     1      46.533 -12.183   6.409  1.00  0.00     0.218 HD
ENDBRANCH  26  31
ENDBRANCH   6  23
BRANCH   1  33
HETATM   33  C   UNL     1      40.709  -9.007   3.362  1.00  0.00     0.155 C 
BRANCH  33  34
HETATM   34  C   UNL     1      39.587  -8.886   2.316  1.00  0.00     0.254 C 
BRANCH  34  35
HETATM   35  N   UNL     1      39.938  -9.512   0.967  1.00  0.00    -0.070 N 
HETATM   36  H   UNL     1      39.738  -8.776   0.275  1.00  0.00     0.279 HD
BRANCH  35  37
HETATM   37  C   UNL     1      39.057 -10.687   0.566  1.00  0.00     0.230 C 
HETATM   38  C   UNL     1      38.375 -11.319   1.764  1.00  0.00     0.034 C 
ENDBRANCH  35  37
BRANCH  35  39
HETATM   39  C   UNL     1      41.405  -9.856   0.783  1.00  0.00     0.230 C 
HETATM   40  C   UNL     1      41.771  -9.983  -0.684  1.00  0.00     0.034 C 
ENDBRANCH  35  39
ENDBRANCH  34  35
ENDBRANCH  33  34
ENDBRANCH   1  33
TORSDOF 14
ENDMDL
MODEL 7
REMARK VINA RESULT:      -7.6      1.683      2.450
REMARK  14 active torsions:
REMARK  status: ('A' for Active; 'I' for Inactive)
REMARK    1  A    between atoms: C_2  and  N_3 
REMARK    2  A    between atoms: N_3  and  C_5 
REMARK    3  A    between atoms: N_3  and  C_37 
REMARK    4  A    between atoms: C_5  and  C_6 
REMARK    5  A    between atoms: C_6  and  N_7 
REMARK    6  A    between atoms: C_10  and  O_11 
REMARK    7  A    between atoms: C_12  and  C_13 
REMARK    8  A    between atoms: C_13  and  C_14 
REMARK    9  A    between atoms: C_18  and  O_19 
REMARK   10  A    between atoms: O_19  and  C_20 
REMARK   11  A    between atoms: C_20  and  C_21 
REMARK   12  A    between atoms: C_27  and  C_28 
REMARK   13  A    between atoms: C_30  and  O_31 
REMARK   14  A    between atoms: C_33  and  O_34 
ROOT
HETATM    1  N   UNL     1      42.150 -15.473   4.049  1.00  0.00    -0.332 N 
HETATM    2  C   UNL     1      41.495 -15.933   5.169  1.00  0.00     0.278 A 
HETATM    3  O   UNL     1      41.681 -16.984   5.753  1.00  0.00    -0.265 OA
HETATM    4  C   UNL     1      40.550 -14.881   5.595  1.00  0.00     0.146 A 
HETATM    5  C   UNL     1      40.737 -13.836   4.780  1.00  0.00     0.059 A 
HETATM    6  C   UNL     1      41.711 -14.133   3.680  1.00  0.00     0.161 A 
ENDROOT
BRANCH   5   7
HETATM    7  C   UNL     1      40.174 -12.474   4.888  1.00  0.00     0.193 C 
HETATM    8  O   UNL     1      39.241 -12.139   4.164  1.00  0.00    -0.287 OA
BRANCH   7   9
HETATM    9  C   UNL     1      40.800 -11.462   5.774  1.00  0.00     0.015 A 
HETATM   10  C   UNL     1      42.183 -11.513   5.976  1.00  0.00     0.025 A 
HETATM   11  C   UNL     1      42.808 -10.632   6.874  1.00  0.00    -0.028 A 
HETATM   12  C   UNL     1      44.295 -10.712   7.087  1.00  0.00     0.051 C 
HETATM   13  C   UNL     1      42.027  -9.714   7.599  1.00  0.00     0.074 A 
HETATM   14  C   UNL     1      40.646  -9.663   7.391  1.00  0.00     0.038 A 
HETATM   15  C   UNL     1      40.032 -10.541   6.495  1.00  0.00     0.018 A 
BRANCH  13  16
HETATM   16  O   UNL     1      42.701  -8.902   8.473  1.00  0.00    -0.350 OA
BRANCH  16  17
HETATM   17  C   UNL     1      42.583  -9.222   9.861  1.00  0.00     0.179 C 
BRANCH  17  18
HETATM   18  C   UNL     1      43.350  -8.176  10.682  1.00  0.00     0.002 C 
HETATM   19  C   UNL     1      42.715  -6.791  10.545  1.00  0.00     0.011 C 
HETATM   20  C   UNL     1      43.406  -8.591  12.152  1.00  0.00     0.011 C 
ENDBRANCH  17  18
ENDBRANCH  16  17
ENDBRANCH  13  16
ENDBRANCH   7   9
ENDBRANCH   5   7
BRANCH   4  21
HETATM   21  O   UNL     1      39.747 -14.991   6.688  1.00  0.00    -0.355 OA
HETATM   22  H   UNL     1      39.626 -15.946   6.861  1.00  0.00     0.218 HD
ENDBRANCH   4  21
BRANCH   6  23
HETATM   23  C   UNL     1      41.156 -14.131   2.267  1.00  0.00    -0.028 A 
HETATM   24  C   UNL     1      41.448 -13.049   1.412  1.00  0.00     0.049 A 
HETATM   25  C   UNL     1      40.975 -13.029   0.099  1.00  0.00     0.101 A 
HETATM   26  C   UNL     1      40.224 -14.111  -0.364  1.00  0.00     0.099 A 
HETATM   27  C   UNL     1      39.903 -15.178   0.462  1.00  0.00     0.040 A 
HETATM   28  C   UNL     1      40.358 -15.184   1.779  1.00  0.00     0.012 A 
BRANCH  25  29
HETATM   29  O   UNL     1      41.202 -12.037  -0.820  1.00  0.00    -0.353 OA
HETATM   30  C   UNL     1      40.512 -10.810  -0.597  1.00  0.00     0.210 C 
ENDBRANCH  25  29
BRANCH  26  31
HETATM   31  O   UNL     1      39.768 -14.136  -1.653  1.00  0.00    -0.358 OA
HETATM   32  H   UNL     1      39.226 -14.947  -1.722  1.00  0.00     0.218 HD
ENDBRANCH  26  31
ENDBRANCH   6  23
BRANCH   1  33
HETATM   33  C   UNL     1      43.354 -16.086   3.515  1.00  0.00     0.155 C 
BRANCH  33  34
HETATM   34  C   UNL     1      43.062 -17.332   2.661  1.00  0.00     0.254 C 
BRANCH  34  35
HETATM   35  N   UNL     1      43.907 -18.546   3.042  1.00  0.00    -0.070 N 
HETATM   36  H   UNL     1      44.713 -18.519   2.402  1.00  0.00     0.279 HD
BRANCH  35  37
HETATM   37  C   UNL     1      43.238 -19.890   2.783  1.00  0.00     0.230 C 
HETATM   38  C   UNL     1      43.795 -20.570   1.548  1.00  0.00     0.034 C 
ENDBRANCH  35  37
BRANCH  35  39
HETATM   39  C   UNL     1      44.497 -18.504   4.440  1.00  0.00     0.230 C 
HETATM   40  C   UNL     1      44.020 -19.670   5.286  1.00  0.00     0.034 C 
ENDBRANCH  35  39
ENDBRANCH  34  35
ENDBRANCH  33  34
ENDBRANCH   1  33
TORSDOF 14
ENDMDL
MODEL 8
REMARK VINA RESULT:      -7.6      3.405      8.524
REMARK  14 active torsions:
REMARK  status: ('A' for Active; 'I' for Inactive)
REMARK    1  A    between atoms: C_2  and  N_3 
REMARK    2  A    between atoms: N_3  and  C_5 
REMARK    3  A    between atoms: N_3  and  C_37 
REMARK    4  A    between atoms: C_5  and  C_6 
REMARK    5  A    between atoms: C_6  and  N_7 
REMARK    6  A    between atoms: C_10  and  O_11 
REMARK    7  A    between atoms: C_12  and  C_13 
REMARK    8  A    between atoms: C_13  and  C_14 
REMARK    9  A    between atoms: C_18  and  O_19 
REMARK   10  A    between atoms: O_19  and  C_20 
REMARK   11  A    between atoms: C_20  and  C_21 
REMARK   12  A    between atoms: C_27  and  C_28 
REMARK   13  A    between atoms: C_30  and  O_31 
REMARK   14  A    between atoms: C_33  and  O_34 
ROOT
HETATM    1  N   UNL     1      42.163  -8.696   8.907  1.00  0.00    -0.332 N 
HETATM    2  C   UNL     1      43.266  -7.893   9.088  1.00  0.00     0.278 A 
HETATM    3  O   UNL     1      43.346  -6.893   9.778  1.00  0.00    -0.265 OA
HETATM    4  C   UNL     1      44.385  -8.499   8.339  1.00  0.00     0.146 A 
HETATM    5  C   UNL     1      43.933  -9.649   7.826  1.00  0.00     0.059 A 
HETATM    6  C   UNL     1      42.468  -9.850   8.072  1.00  0.00     0.161 A 
ENDROOT
BRANCH   5   7
HETATM    7  C   UNL     1      44.697 -10.716   7.147  1.00  0.00     0.193 C 
HETATM    8  O   UNL     1      45.918 -10.626   7.050  1.00  0.00    -0.287 OA
BRANCH   7   9
HETATM    9  C   UNL     1      43.999 -11.837   6.471  1.00  0.00     0.015 A 
HETATM   10  C   UNL     1      43.680 -12.975   7.220  1.00  0.00     0.025 A 
HETATM   11  C   UNL     1      43.099 -14.096   6.604  1.00  0.00    -0.028 A 
HETATM   12  C   UNL     1      42.775 -15.315   7.423  1.00  0.00     0.051 C 
HETATM   13  C   UNL     1      42.869 -14.082   5.216  1.00  0.00     0.074 A 
HETATM   14  C   UNL     1      43.186 -12.942   4.473  1.00  0.00     0.038 A 
HETATM   15  C   UNL     1      43.762 -11.830   5.093  1.00  0.00     0.018 A 
BRANCH  13  16
HETATM   16  O   UNL     1      42.322 -15.218   4.681  1.00  0.00    -0.350 OA
BRANCH  16  17
HETATM   17  C   UNL     1      43.233 -16.147   4.087  1.00  0.00     0.179 C 
BRANCH  17  18
HETATM   18  C   UNL     1      42.719 -16.529   2.692  1.00  0.00     0.002 C 
HETATM   19  C   UNL     1      43.026 -17.992   2.370  1.00  0.00     0.011 C 
HETATM   20  C   UNL     1      41.217 -16.267   2.590  1.00  0.00     0.011 C 
ENDBRANCH  17  18
ENDBRANCH  16  17
ENDBRANCH  13  16
ENDBRANCH   7   9
ENDBRANCH   5   7
BRANCH   4  21
HETATM   21  O   UNL     1      45.641  -7.976   8.312  1.00  0.00    -0.355 OA
HETATM   22  H   UNL     1      46.252  -8.681   8.610  1.00  0.00     0.218 HD
ENDBRANCH   4  21
BRANCH   6  23
HETATM   23  C   UNL     1      41.572  -9.864   6.846  1.00  0.00    -0.028 A 
HETATM   24  C   UNL     1      41.723  -8.859   5.869  1.00  0.00     0.049 A 
HETATM   25  C   UNL     1      40.932  -8.858   4.718  1.00  0.00     0.101 A 
HETATM   26  C   UNL     1      40.002  -9.885   4.538  1.00  0.00     0.099 A 
HETATM   27  C   UNL     1      39.818 -10.873   5.494  1.00  0.00     0.040 A 
HETATM   28  C   UNL     1      40.593 -10.858   6.652  1.00  0.00     0.012 A 
BRANCH  25  29
HETATM   29  O   UNL     1      40.997  -7.940   3.703  1.00  0.00    -0.353 OA
HETATM   30  C   UNL     1      40.597  -6.613   4.035  1.00  0.00     0.210 C 
ENDBRANCH  25  29
BRANCH  26  31
HETATM   31  O   UNL     1      39.231  -9.929   3.410  1.00  0.00    -0.358 OA
HETATM   32  H   UNL     1      39.731  -9.430   2.733  1.00  0.00     0.218 HD
ENDBRANCH  26  31
ENDBRANCH   6  23
BRANCH   1  33
HETATM   33  C   UNL     1      40.960  -8.600   9.717  1.00  0.00     0.155 C 
BRANCH  33  34
HETATM   34  C   UNL     1      40.902  -9.662  10.829  1.00  0.00     0.254 C 
BRANCH  34  35
HETATM   35  N   UNL     1      41.269  -9.123  12.209  1.00  0.00    -0.070 N 
HETATM   36  H   UNL     1      41.025  -8.123  12.175  1.00  0.00     0.279 HD
BRANCH  35  37
HETATM   37  C   UNL     1      42.757  -9.161  12.530  1.00  0.00     0.230 C 
HETATM   38  C   UNL     1      43.221  -7.889  13.214  1.00  0.00     0.034 C 
ENDBRANCH  35  37
BRANCH  35  39
HETATM   39  C   UNL     1      40.460  -9.699  13.358  1.00  0.00     0.230 C 
HETATM   40  C   UNL     1      39.453 -10.726  12.875  1.00  0.00     0.034 C 
ENDBRANCH  35  39
ENDBRANCH  34  35
ENDBRANCH  33  34
ENDBRANCH   1  33
TORSDOF 14
ENDMDL
MODEL 9
REMARK VINA RESULT:      -7.5      2.850      8.656
REMARK  14 active torsions:
REMARK  status: ('A' for Active; 'I' for Inactive)
REMARK    1  A    between atoms: C_2  and  N_3 
REMARK    2  A    between atoms: N_3  and  C_5 
REMARK    3  A    between atoms: N_3  and  C_37 
REMARK    4  A    between atoms: C_5  and  C_6 
REMARK    5  A    between atoms: C_6  and  N_7 
REMARK    6  A    between atoms: C_10  and  O_11 
REMARK    7  A    between atoms: C_12  and  C_13 
REMARK    8  A    between atoms: C_13  and  C_14 
REMARK    9  A    between atoms: C_18  and  O_19 
REMARK   10  A    between atoms: O_19  and  C_20 
REMARK   11  A    between atoms: C_20  and  C_21 
REMARK   12  A    between atoms: C_27  and  C_28 
REMARK   13  A    between atoms: C_30  and  O_31 
REMARK   14  A    between atoms: C_33  and  O_34 
ROOT
HETATM    1  N   UNL     1      39.947  -9.817   5.559  1.00  0.00    -0.332 N 
HETATM    2  C   UNL     1      38.715  -9.833   4.944  1.00  0.00     0.278 A 
HETATM    3  O   UNL     1      37.665  -9.406   5.386  1.00  0.00    -0.265 OA
HETATM    4  C   UNL     1      38.897 -10.410   3.597  1.00  0.00     0.146 A 
HETATM    5  C   UNL     1      40.208 -10.631   3.442  1.00  0.00     0.059 A 
HETATM    6  C   UNL     1      40.989 -10.347   4.690  1.00  0.00     0.161 A 
ENDROOT
BRANCH   5   7
HETATM    7  C   UNL     1      40.934 -11.029   2.218  1.00  0.00     0.193 C 
HETATM    8  O   UNL     1      41.052 -10.233   1.291  1.00  0.00    -0.287 OA
BRANCH   7   9
HETATM    9  C   UNL     1      41.420 -12.420   2.042  1.00  0.00     0.015 A 
HETATM   10  C   UNL     1      40.500 -13.406   1.669  1.00  0.00     0.025 A 
HETATM   11  C   UNL     1      40.894 -14.751   1.575  1.00  0.00    -0.028 A 
HETATM   12  C   UNL     1      39.888 -15.800   1.186  1.00  0.00     0.051 C 
HETATM   13  C   UNL     1      42.217 -15.109   1.892  1.00  0.00     0.074 A 
HETATM   14  C   UNL     1      43.133 -14.120   2.260  1.00  0.00     0.038 A 
HETATM   15  C   UNL     1      42.734 -12.784   2.349  1.00  0.00     0.018 A 
BRANCH  13  16
HETATM   16  O   UNL     1      42.523 -16.441   1.801  1.00  0.00    -0.350 OA
BRANCH  16  17
HETATM   17  C   UNL     1      42.618 -17.160   3.033  1.00  0.00     0.179 C 
BRANCH  17  18
HETATM   18  C   UNL     1      43.756 -18.185   2.927  1.00  0.00     0.002 C 
HETATM   19  C   UNL     1      44.342 -18.506   4.303  1.00  0.00     0.011 C 
HETATM   20  C   UNL     1      43.259 -19.462   2.251  1.00  0.00     0.011 C 
ENDBRANCH  17  18
ENDBRANCH  16  17
ENDBRANCH  13  16
ENDBRANCH   7   9
ENDBRANCH   5   7
BRANCH   4  21
HETATM   21  O   UNL     1      37.885 -10.559   2.700  1.00  0.00    -0.355 OA
HETATM   22  H   UNL     1      38.062 -11.382   2.202  1.00  0.00     0.218 HD
ENDBRANCH   4  21
BRANCH   6  23
HETATM   23  C   UNL     1      41.668 -11.536   5.347  1.00  0.00    -0.028 A 
HETATM   24  C   UNL     1      43.033 -11.448   5.690  1.00  0.00     0.049 A 
HETATM   25  C   UNL     1      43.681 -12.514   6.318  1.00  0.00     0.101 A 
HETATM   26  C   UNL     1      42.948 -13.663   6.624  1.00  0.00     0.099 A 
HETATM   27  C   UNL     1      41.610 -13.784   6.278  1.00  0.00     0.040 A 
HETATM   28  C   UNL     1      40.973 -12.727   5.630  1.00  0.00     0.012 A 
BRANCH  25  29
HETATM   29  O   UNL     1      44.996 -12.537   6.702  1.00  0.00    -0.353 OA
HETATM   30  C   UNL     1      45.624 -11.267   6.856  1.00  0.00     0.210 C 
ENDBRANCH  25  29
BRANCH  26  31
HETATM   31  O   UNL     1      43.544 -14.714   7.263  1.00  0.00    -0.358 OA
HETATM   32  H   UNL     1      43.270 -14.639   8.199  1.00  0.00     0.218 HD
ENDBRANCH  26  31
ENDBRANCH   6  23
BRANCH   1  33
HETATM   33  C   UNL     1      40.231  -9.058   6.764  1.00  0.00     0.155 C 
BRANCH  33  34
HETATM   34  C   UNL     1      39.763  -9.773   8.044  1.00  0.00     0.254 C 
BRANCH  34  35
HETATM   35  N   UNL     1      40.718  -9.603   9.224  1.00  0.00    -0.070 N 
HETATM   36  H   UNL     1      40.968 -10.562   9.502  1.00  0.00     0.279 HD
BRANCH  35  37
HETATM   37  C   UNL     1      40.090  -8.980  10.463  1.00  0.00     0.230 C 
HETATM   38  C   UNL     1      38.837  -8.193  10.128  1.00  0.00     0.034 C 
ENDBRANCH  35  37
BRANCH  35  39
HETATM   39  C   UNL     1      42.033  -8.920   8.891  1.00  0.00     0.230 C 
HETATM   40  C   UNL     1      43.220  -9.821   9.177  1.00  0.00     0.034 C 
ENDBRANCH  35  39
ENDBRANCH  34  35
ENDBRANCH  33  34
ENDBRANCH   1  33
TORSDOF 14
ENDMDL
MODEL 10
REMARK VINA RESULT:      -7.4      2.608      5.016
REMARK  14 active torsions:
REMARK  status: ('A' for Active; 'I' for Inactive)
REMARK    1  A    between atoms: C_2  and  N_3 
REMARK    2  A    between atoms: N_3  and  C_5 
REMARK    3  A    between atoms: N_3  and  C_37 
REMARK    4  A    between atoms: C_5  and  C_6 
REMARK    5  A    between atoms: C_6  and  N_7 
REMARK    6  A    between atoms: C_10  and  O_11 
REMARK    7  A    between atoms: C_12  and  C_13 
REMARK    8  A    between atoms: C_13  and  C_14 
REMARK    9  A    between atoms: C_18  and  O_19 
REMARK   10  A    between atoms: O_19  and  C_20 
REMARK   11  A    between atoms: C_20  and  C_21 
REMARK   12  A    between atoms: C_27  and  C_28 
REMARK   13  A    between atoms: C_30  and  O_31 
REMARK   14  A    between atoms: C_33  and  O_34 
ROOT
HETATM    1  N   UNL     1      41.859 -12.223   4.761  1.00  0.00    -0.332 N 
HETATM    2  C   UNL     1      42.144 -13.330   5.528  1.00  0.00     0.278 A 
HETATM    3  O   UNL     1      41.773 -14.473   5.338  1.00  0.00    -0.265 OA
HETATM    4  C   UNL     1      43.051 -12.901   6.610  1.00  0.00     0.146 A 
HETATM    5  C   UNL     1      43.326 -11.608   6.399  1.00  0.00     0.059 A 
HETATM    6  C   UNL     1      42.544 -11.035   5.255  1.00  0.00     0.161 A 
ENDROOT
BRANCH   5   7
HETATM    7  C   UNL     1      44.318 -10.755   7.085  1.00  0.00     0.193 C 
HETATM    8  O   UNL     1      45.470 -10.696   6.664  1.00  0.00    -0.287 OA
BRANCH   7   9
HETATM    9  C   UNL     1      43.976 -10.061   8.352  1.00  0.00     0.015 A 
HETATM   10  C   UNL     1      43.989 -10.796   9.542  1.00  0.00     0.025 A 
HETATM   11  C   UNL     1      43.588 -10.206  10.752  1.00  0.00    -0.028 A 
HETATM   12  C   UNL     1      43.597 -11.016  12.019  1.00  0.00     0.051 C 
HETATM   13  C   UNL     1      43.138  -8.873  10.755  1.00  0.00     0.074 A 
HETATM   14  C   UNL     1      43.130  -8.141   9.565  1.00  0.00     0.038 A 
HETATM   15  C   UNL     1      43.533  -8.734   8.366  1.00  0.00     0.018 A 
BRANCH  13  16
HETATM   16  O   UNL     1      42.741  -8.371  11.966  1.00  0.00    -0.350 OA
BRANCH  16  17
HETATM   17  C   UNL     1      41.360  -8.025  12.092  1.00  0.00     0.179 C 
BRANCH  17  18
HETATM   18  C   UNL     1      40.796  -8.671  13.365  1.00  0.00     0.002 C 
HETATM   19  C   UNL     1      40.188 -10.043  13.067  1.00  0.00     0.011 C 
HETATM   20  C   UNL     1      41.888  -8.794  14.426  1.00  0.00     0.011 C 
ENDBRANCH  17  18
ENDBRANCH  16  17
ENDBRANCH  13  16
ENDBRANCH   7   9
ENDBRANCH   5   7
BRANCH   4  21
HETATM   21  O   UNL     1      43.554 -13.747   7.550  1.00  0.00    -0.355 OA
HETATM   22  H   UNL     1      42.927 -13.748   8.300  1.00  0.00     0.218 HD
ENDBRANCH   4  21
BRANCH   6  23
HETATM   23  C   UNL     1      41.537  -9.952   5.600  1.00  0.00    -0.028 A 
HETATM   24  C   UNL     1      40.633 -10.162   6.661  1.00  0.00     0.049 A 
HETATM   25  C   UNL     1      39.711  -9.176   7.019  1.00  0.00     0.101 A 
HETATM   26  C   UNL     1      39.715  -7.965   6.324  1.00  0.00     0.099 A 
HETATM   27  C   UNL     1      40.579  -7.740   5.262  1.00  0.00     0.040 A 
HETATM   28  C   UNL     1      41.482  -8.736   4.892  1.00  0.00     0.012 A 
BRANCH  25  29
HETATM   29  O   UNL     1      38.794  -9.268   8.033  1.00  0.00    -0.353 OA
HETATM   30  C   UNL     1      39.320  -9.559   9.326  1.00  0.00     0.210 C 
ENDBRANCH  25  29
BRANCH  26  31
HETATM   31  O   UNL     1      38.845  -6.968   6.667  1.00  0.00    -0.358 OA
HETATM   32  H   UNL     1      38.056  -7.422   7.023  1.00  0.00     0.218 HD
ENDBRANCH  26  31
ENDBRANCH   6  23
BRANCH   1  33
HETATM   33  C   UNL     1      41.248 -12.294   3.445  1.00  0.00     0.155 C 
BRANCH  33  34
HETATM   34  C   UNL     1      42.211 -12.824   2.367  1.00  0.00     0.254 C 
BRANCH  34  35
HETATM   35  N   UNL     1      42.034 -14.311   2.068  1.00  0.00    -0.070 N 
HETATM   36  H   UNL     1      41.596 -14.700   2.913  1.00  0.00     0.279 HD
BRANCH  35  37
HETATM   37  C   UNL     1      43.337 -15.083   1.902  1.00  0.00     0.230 C 
HETATM   38  C   UNL     1      43.270 -16.450   2.555  1.00  0.00     0.034 C 
ENDBRANCH  35  37
BRANCH  35  39
HETATM   39  C   UNL     1      41.078 -14.627   0.931  1.00  0.00     0.230 C 
HETATM   40  C   UNL     1      39.977 -15.572   1.372  1.00  0.00     0.034 C 
ENDBRANCH  35  39
ENDBRANCH  34  35
ENDBRANCH  33  34
ENDBRANCH   1  33
TORSDOF 14
ENDMDL
