MODEL 1
REMARK VINA RESULT:      -8.5      0.000      0.000
REMARK  5 active torsions:
REMARK  status: ('A' for Active; 'I' for Inactive)
REMARK    1  A    between atoms: C_2  and  N_3 
REMARK    2  A    between atoms: C_2  and  C_21 
REMARK       I    between atoms: N_3  and  C_5 
REMARK       I    between atoms: C_5  and  N_6 
REMARK    3  A    between atoms: N_6  and  C_7 
REMARK    4  A    between atoms: C_7  and  C_8 
REMARK    5  A    between atoms: C_10  and  C_11 
ROOT
HETATM    1  N   UNL     1      44.157 -12.655   7.040  1.00  0.00    -0.218 N 
HETATM    2  H   UNL     1      44.409 -13.145   7.886  1.00  0.00     0.178 HD
HETATM    3  C   UNL     1      43.439 -13.368   6.141  1.00  0.00     0.670 C 
HETATM    4  N   UNL     1      43.221 -12.886   4.894  1.00  0.00    -0.221 N 
HETATM    5  N   UNL     1      42.942 -14.573   6.506  1.00  0.00    -0.231 N 
HETATM    6  C   UNL     1      42.940 -15.135   7.851  1.00  0.00     0.165 C 
HETATM    7  H   UNL     1      43.818 -12.132   4.588  1.00  0.00     0.178 HD
HETATM    8  H   UNL     1      42.718 -15.194   5.727  1.00  0.00     0.177 HD
ENDROOT
BRANCH   4   9
HETATM    9  C   UNL     1      42.231 -13.405   3.937  1.00  0.00     0.199 C 
BRANCH   9  10
HETATM   10  C   UNL     1      42.730 -14.635   3.277  1.00  0.00     0.077 A 
HETATM   11  N   UNL     1      42.615 -15.869   3.892  1.00  0.00    -0.225 NA
HETATM   12  C   UNL     1      43.178 -16.707   3.035  1.00  0.00     0.179 A 
HETATM   13  O   UNL     1      43.595 -16.113   1.874  1.00  0.00    -0.301 OA
HETATM   14  C   UNL     1      43.308 -14.793   2.041  1.00  0.00     0.173 A 
BRANCH  12  15
HETATM   15  C   UNL     1      43.437 -18.135   3.178  1.00  0.00     0.017 A 
HETATM   16  C   UNL     1      43.172 -19.000   2.104  1.00  0.00     0.016 A 
HETATM   17  C   UNL     1      43.396 -20.373   2.219  1.00  0.00     0.001 A 
HETATM   18  C   UNL     1      43.898 -20.898   3.408  1.00  0.00     0.000 A 
HETATM   19  C   UNL     1      44.173 -20.053   4.482  1.00  0.00     0.001 A 
HETATM   20  C   UNL     1      43.940 -18.679   4.369  1.00  0.00     0.016 A 
ENDBRANCH  12  15
ENDBRANCH   9  10
ENDBRANCH   4   9
BRANCH   1  21
HETATM   21  C   UNL     1      44.642 -11.262   6.954  1.00  0.00     0.135 C 
HETATM   22  C   UNL     1      46.076 -11.161   6.439  1.00  0.00     0.038 C 
BRANCH  21  23
HETATM   23  C   UNL     1      44.428 -10.508   8.244  1.00  0.00     0.005 A 
HETATM   24  S   UNL     1      42.978  -9.656   8.599  1.00  0.00    -0.104 SA
HETATM   25  C   UNL     1      43.565  -9.123  10.110  1.00  0.00     0.050 A 
HETATM   26  C   UNL     1      44.843  -9.568  10.350  1.00  0.00     0.008 A 
HETATM   27  C   UNL     1      45.342 -10.360   9.275  1.00  0.00     0.017 A 
ENDBRANCH  21  23
ENDBRANCH   1  21
TORSDOF 5
ENDMDL
MODEL 2
REMARK VINA RESULT:      -8.1      3.164      5.454
REMARK  5 active torsions:
REMARK  status: ('A' for Active; 'I' for Inactive)
REMARK    1  A    between atoms: C_2  and  N_3 
REMARK    2  A    between atoms: C_2  and  C_21 
REMARK       I    between atoms: N_3  and  C_5 
REMARK       I    between atoms: C_5  and  N_6 
REMARK    3  A    between atoms: N_6  and  C_7 
REMARK    4  A    between atoms: C_7  and  C_8 
REMARK    5  A    between atoms: C_10  and  C_11 
ROOT
HETATM    1  N   UNL     1      41.341 -12.088   4.110  1.00  0.00    -0.218 N 
HETATM    2  H   UNL     1      40.517 -11.505   4.098  1.00  0.00     0.178 HD
HETATM    3  C   UNL     1      41.794 -12.437   5.337  1.00  0.00     0.670 C 
HETATM    4  N   UNL     1      42.998 -13.042   5.482  1.00  0.00    -0.221 N 
HETATM    5  N   UNL     1      41.028 -12.171   6.419  1.00  0.00    -0.231 N 
HETATM    6  C   UNL     1      39.649 -11.696   6.407  1.00  0.00     0.165 C 
HETATM    7  H   UNL     1      43.635 -12.979   4.701  1.00  0.00     0.178 HD
HETATM    8  H   UNL     1      41.537 -12.137   7.304  1.00  0.00     0.177 HD
ENDROOT
BRANCH   4   9
HETATM    9  C   UNL     1      43.471 -13.729   6.694  1.00  0.00     0.199 C 
BRANCH   9  10
HETATM   10  C   UNL     1      43.505 -15.197   6.489  1.00  0.00     0.077 A 
HETATM   11  N   UNL     1      43.648 -15.736   5.224  1.00  0.00    -0.225 NA
HETATM   12  C   UNL     1      43.612 -17.044   5.427  1.00  0.00     0.179 A 
HETATM   13  O   UNL     1      43.520 -17.396   6.747  1.00  0.00    -0.301 OA
HETATM   14  C   UNL     1      43.449 -16.211   7.414  1.00  0.00     0.173 A 
BRANCH  12  15
HETATM   15  C   UNL     1      43.622 -18.129   4.452  1.00  0.00     0.017 A 
HETATM   16  C   UNL     1      43.210 -17.881   3.133  1.00  0.00     0.016 A 
HETATM   17  C   UNL     1      43.195 -18.906   2.185  1.00  0.00     0.001 A 
HETATM   18  C   UNL     1      43.600 -20.189   2.542  1.00  0.00     0.000 A 
HETATM   19  C   UNL     1      44.018 -20.451   3.846  1.00  0.00     0.001 A 
HETATM   20  C   UNL     1      44.026 -19.427   4.797  1.00  0.00     0.016 A 
ENDBRANCH  12  15
ENDBRANCH   9  10
ENDBRANCH   4   9
BRANCH   1  21
HETATM   21  C   UNL     1      41.891 -12.426   2.781  1.00  0.00     0.135 C 
HETATM   22  C   UNL     1      41.984 -11.219   1.850  1.00  0.00     0.038 C 
BRANCH  21  23
HETATM   23  C   UNL     1      41.174 -13.597   2.153  1.00  0.00     0.005 A 
HETATM   24  S   UNL     1      40.679 -14.979   3.048  1.00  0.00    -0.104 SA
HETATM   25  C   UNL     1      40.037 -15.745   1.666  1.00  0.00     0.050 A 
HETATM   26  C   UNL     1      40.197 -14.981   0.534  1.00  0.00     0.008 A 
HETATM   27  C   UNL     1      40.856 -13.749   0.813  1.00  0.00     0.017 A 
ENDBRANCH  21  23
ENDBRANCH   1  21
TORSDOF 5
ENDMDL
MODEL 3
REMARK VINA RESULT:      -7.8      3.412      5.669
REMARK  5 active torsions:
REMARK  status: ('A' for Active; 'I' for Inactive)
REMARK    1  A    between atoms: C_2  and  N_3 
REMARK    2  A    between atoms: C_2  and  C_21 
REMARK       I    between atoms: N_3  and  C_5 
REMARK       I    between atoms: C_5  and  N_6 
REMARK    3  A    between atoms: N_6  and  C_7 
REMARK    4  A    between atoms: C_7  and  C_8 
REMARK    5  A    between atoms: C_10  and  C_11 
ROOT
HETATM    1  N   UNL     1      40.153 -13.808   4.823  1.00  0.00    -0.218 N 
HETATM    2  H   UNL     1      39.248 -14.214   5.013  1.00  0.00     0.178 HD
HETATM    3  C   UNL     1      41.130 -14.114   5.709  1.00  0.00     0.670 C 
HETATM    4  N   UNL     1      42.321 -13.470   5.671  1.00  0.00    -0.221 N 
HETATM    5  N   UNL     1      40.899 -15.073   6.635  1.00  0.00    -0.231 N 
HETATM    6  C   UNL     1      39.749 -15.968   6.684  1.00  0.00     0.165 C 
HETATM    7  H   UNL     1      42.353 -12.603   5.155  1.00  0.00     0.178 HD
HETATM    8  H   UNL     1      41.504 -15.026   7.456  1.00  0.00     0.177 HD
ENDROOT
BRANCH   4   9
HETATM    9  C   UNL     1      43.548 -13.898   6.362  1.00  0.00     0.199 C 
BRANCH   9  10
HETATM   10  C   UNL     1      43.783 -15.349   6.169  1.00  0.00     0.077 A 
HETATM   11  N   UNL     1      43.600 -15.942   4.933  1.00  0.00    -0.225 NA
HETATM   12  C   UNL     1      43.875 -17.219   5.146  1.00  0.00     0.179 A 
HETATM   13  O   UNL     1      44.288 -17.490   6.423  1.00  0.00    -0.301 OA
HETATM   14  C   UNL     1      44.223 -16.292   7.066  1.00  0.00     0.173 A 
BRANCH  12  15
HETATM   15  C   UNL     1      43.765 -18.351   4.233  1.00  0.00     0.017 A 
HETATM   16  C   UNL     1      44.074 -19.643   4.688  1.00  0.00     0.016 A 
HETATM   17  C   UNL     1      43.992 -20.741   3.830  1.00  0.00     0.001 A 
HETATM   18  C   UNL     1      43.590 -20.563   2.509  1.00  0.00     0.000 A 
HETATM   19  C   UNL     1      43.273 -19.288   2.043  1.00  0.00     0.001 A 
HETATM   20  C   UNL     1      43.363 -18.187   2.899  1.00  0.00     0.016 A 
ENDBRANCH  12  15
ENDBRANCH   9  10
ENDBRANCH   4   9
BRANCH   1  21
HETATM   21  C   UNL     1      40.216 -12.948   3.623  1.00  0.00     0.135 C 
HETATM   22  C   UNL     1      39.168 -11.838   3.630  1.00  0.00     0.038 C 
BRANCH  21  23
HETATM   23  C   UNL     1      40.206 -13.757   2.348  1.00  0.00     0.005 A 
HETATM   24  S   UNL     1      40.528 -13.072   0.804  1.00  0.00    -0.104 SA
HETATM   25  C   UNL     1      40.292 -14.560   0.004  1.00  0.00     0.050 A 
HETATM   26  C   UNL     1      39.963 -15.568   0.880  1.00  0.00     0.008 A 
HETATM   27  C   UNL     1      39.908 -15.105   2.227  1.00  0.00     0.017 A 
ENDBRANCH  21  23
ENDBRANCH   1  21
TORSDOF 5
ENDMDL
MODEL 4
REMARK VINA RESULT:      -7.7      1.586      2.054
REMARK  5 active torsions:
REMARK  status: ('A' for Active; 'I' for Inactive)
REMARK    1  A    between atoms: C_2  and  N_3 
REMARK    2  A    between atoms: C_2  and  C_21 
REMARK       I    between atoms: N_3  and  C_5 
REMARK       I    between atoms: C_5  and  N_6 
REMARK    3  A    between atoms: N_6  and  C_7 
REMARK    4  A    between atoms: C_7  and  C_8 
REMARK    5  A    between atoms: C_10  and  C_11 
ROOT
HETATM    1  N   UNL     1      42.121 -11.431   6.642  1.00  0.00    -0.218 N 
HETATM    2  H   UNL     1      41.565 -11.082   7.410  1.00  0.00     0.178 HD
HETATM    3  C   UNL     1      41.444 -12.123   5.696  1.00  0.00     0.670 C 
HETATM    4  N   UNL     1      42.109 -12.807   4.733  1.00  0.00    -0.221 N 
HETATM    5  N   UNL     1      40.092 -12.125   5.725  1.00  0.00    -0.231 N 
HETATM    6  C   UNL     1      39.245 -11.300   6.579  1.00  0.00     0.165 C 
HETATM    7  H   UNL     1      43.087 -12.994   4.903  1.00  0.00     0.178 HD
HETATM    8  H   UNL     1      39.656 -12.903   5.229  1.00  0.00     0.177 HD
ENDROOT
BRANCH   4   9
HETATM    9  C   UNL     1      41.516 -13.342   3.499  1.00  0.00     0.199 C 
BRANCH   9  10
HETATM   10  C   UNL     1      42.290 -14.505   3.002  1.00  0.00     0.077 A 
HETATM   11  N   UNL     1      42.087 -15.770   3.522  1.00  0.00    -0.225 NA
HETATM   12  C   UNL     1      42.954 -16.529   2.868  1.00  0.00     0.179 A 
HETATM   13  O   UNL     1      43.664 -15.855   1.910  1.00  0.00    -0.301 OA
HETATM   14  C   UNL     1      43.235 -14.567   2.007  1.00  0.00     0.173 A 
BRANCH  12  15
HETATM   15  C   UNL     1      43.267 -17.941   3.053  1.00  0.00     0.017 A 
HETATM   16  C   UNL     1      43.875 -18.366   4.245  1.00  0.00     0.016 A 
HETATM   17  C   UNL     1      44.200 -19.710   4.441  1.00  0.00     0.001 A 
HETATM   18  C   UNL     1      43.911 -20.647   3.451  1.00  0.00     0.000 A 
HETATM   19  C   UNL     1      43.302 -20.242   2.265  1.00  0.00     0.001 A 
HETATM   20  C   UNL     1      42.985 -18.896   2.065  1.00  0.00     0.016 A 
ENDBRANCH  12  15
ENDBRANCH   9  10
ENDBRANCH   4   9
BRANCH   1  21
HETATM   21  C   UNL     1      43.564 -11.125   6.722  1.00  0.00     0.135 C 
HETATM   22  C   UNL     1      44.404 -12.325   7.154  1.00  0.00     0.038 C 
BRANCH  21  23
HETATM   23  C   UNL     1      43.835  -9.891   7.549  1.00  0.00     0.005 A 
HETATM   24  S   UNL     1      42.676  -8.640   7.770  1.00  0.00    -0.104 SA
HETATM   25  C   UNL     1      43.741  -7.711   8.724  1.00  0.00     0.050 A 
HETATM   26  C   UNL     1      44.964  -8.322   8.874  1.00  0.00     0.008 A 
HETATM   27  C   UNL     1      45.020  -9.572   8.193  1.00  0.00     0.017 A 
ENDBRANCH  21  23
ENDBRANCH   1  21
TORSDOF 5
ENDMDL
MODEL 5
REMARK VINA RESULT:      -7.7      2.374      3.474
REMARK  5 active torsions:
REMARK  status: ('A' for Active; 'I' for Inactive)
REMARK    1  A    between atoms: C_2  and  N_3 
REMARK    2  A    between atoms: C_2  and  C_21 
REMARK       I    between atoms: N_3  and  C_5 
REMARK       I    between atoms: C_5  and  N_6 
REMARK    3  A    between atoms: N_6  and  C_7 
REMARK    4  A    between atoms: C_7  and  C_8 
REMARK    5  A    between atoms: C_10  and  C_11 
ROOT
HETATM    1  N   UNL     1      41.814  -9.708   6.622  1.00  0.00    -0.218 N 
HETATM    2  H   UNL     1      41.915  -8.830   6.133  1.00  0.00     0.178 HD
HETATM    3  C   UNL     1      41.121 -10.668   5.966  1.00  0.00     0.670 C 
HETATM    4  N   UNL     1      40.750 -11.807   6.600  1.00  0.00    -0.221 N 
HETATM    5  N   UNL     1      40.802 -10.474   4.665  1.00  0.00    -0.231 N 
HETATM    6  C   UNL     1      41.282  -9.396   3.809  1.00  0.00     0.165 C 
HETATM    7  H   UNL     1      40.773 -11.792   7.609  1.00  0.00     0.178 HD
HETATM    8  H   UNL     1      40.020 -11.039   4.330  1.00  0.00     0.177 HD
ENDROOT
BRANCH   4   9
HETATM    9  C   UNL     1      40.268 -13.033   5.946  1.00  0.00     0.199 C 
BRANCH   9  10
HETATM   10  C   UNL     1      41.368 -14.013   5.786  1.00  0.00     0.077 A 
HETATM   11  N   UNL     1      41.361 -14.929   4.750  1.00  0.00    -0.225 NA
HETATM   12  C   UNL     1      42.463 -15.638   4.941  1.00  0.00     0.179 A 
HETATM   13  O   UNL     1      43.222 -15.205   5.995  1.00  0.00    -0.301 OA
HETATM   14  C   UNL     1      42.513 -14.173   6.528  1.00  0.00     0.173 A 
BRANCH  12  15
HETATM   15  C   UNL     1      42.943 -16.809   4.217  1.00  0.00     0.017 A 
HETATM   16  C   UNL     1      43.929 -17.626   4.793  1.00  0.00     0.016 A 
HETATM   17  C   UNL     1      44.418 -18.744   4.114  1.00  0.00     0.001 A 
HETATM   18  C   UNL     1      43.919 -19.065   2.854  1.00  0.00     0.000 A 
HETATM   19  C   UNL     1      42.935 -18.269   2.271  1.00  0.00     0.001 A 
HETATM   20  C   UNL     1      42.452 -17.145   2.946  1.00  0.00     0.016 A 
ENDBRANCH  12  15
ENDBRANCH   9  10
ENDBRANCH   4   9
BRANCH   1  21
HETATM   21  C   UNL     1      42.432  -9.754   7.963  1.00  0.00     0.135 C 
HETATM   22  C   UNL     1      41.954  -8.630   8.878  1.00  0.00     0.038 C 
BRANCH  21  23
HETATM   23  C   UNL     1      43.937  -9.849   7.888  1.00  0.00     0.005 A 
HETATM   24  S   UNL     1      44.755 -11.180   7.171  1.00  0.00    -0.104 SA
HETATM   25  C   UNL     1      46.292 -10.532   7.526  1.00  0.00     0.050 A 
HETATM   26  C   UNL     1      46.203  -9.329   8.186  1.00  0.00     0.008 A 
HETATM   27  C   UNL     1      44.849  -8.940   8.400  1.00  0.00     0.017 A 
ENDBRANCH  21  23
ENDBRANCH   1  21
TORSDOF 5
ENDMDL
MODEL 6
REMARK VINA RESULT:      -7.6      4.802      7.214
REMARK  5 active torsions:
REMARK  status: ('A' for Active; 'I' for Inactive)
REMARK    1  A    between atoms: C_2  and  N_3 
REMARK    2  A    between atoms: C_2  and  C_21 
REMARK       I    between atoms: N_3  and  C_5 
REMARK       I    between atoms: C_5  and  N_6 
REMARK    3  A    between atoms: N_6  and  C_7 
REMARK    4  A    between atoms: C_7  and  C_8 
REMARK    5  A    between atoms: C_10  and  C_11 
ROOT
HETATM    1  N   UNL     1      40.255 -11.353   0.524  1.00  0.00    -0.218 N 
HETATM    2  H   UNL     1      39.539 -10.642   0.507  1.00  0.00     0.178 HD
HETATM    3  C   UNL     1      40.558 -11.852   1.745  1.00  0.00     0.670 C 
HETATM    4  N   UNL     1      41.635 -12.656   1.914  1.00  0.00    -0.221 N 
HETATM    5  N   UNL     1      39.769 -11.535   2.797  1.00  0.00    -0.231 N 
HETATM    6  C   UNL     1      38.489 -10.838   2.739  1.00  0.00     0.165 C 
HETATM    7  H   UNL     1      42.327 -12.648   1.179  1.00  0.00     0.178 HD
HETATM    8  H   UNL     1      40.213 -11.644   3.711  1.00  0.00     0.177 HD
ENDROOT
BRANCH   4   9
HETATM    9  C   UNL     1      41.904 -13.490   3.096  1.00  0.00     0.199 C 
BRANCH   9  10
HETATM   10  C   UNL     1      42.566 -14.758   2.707  1.00  0.00     0.077 A 
HETATM   11  N   UNL     1      42.399 -15.908   3.457  1.00  0.00    -0.225 NA
HETATM   12  C   UNL     1      43.143 -16.809   2.833  1.00  0.00     0.179 A 
HETATM   13  O   UNL     1      43.733 -16.341   1.689  1.00  0.00    -0.301 OA
HETATM   14  C   UNL     1      43.361 -15.033   1.621  1.00  0.00     0.173 A 
BRANCH  12  15
HETATM   15  C   UNL     1      43.436 -18.186   3.213  1.00  0.00     0.017 A 
HETATM   16  C   UNL     1      43.855 -18.470   4.522  1.00  0.00     0.016 A 
HETATM   17  C   UNL     1      44.157 -19.778   4.908  1.00  0.00     0.001 A 
HETATM   18  C   UNL     1      44.035 -20.818   3.990  1.00  0.00     0.000 A 
HETATM   19  C   UNL     1      43.614 -20.554   2.688  1.00  0.00     0.001 A 
HETATM   20  C   UNL     1      43.320 -19.244   2.300  1.00  0.00     0.016 A 
ENDBRANCH  12  15
ENDBRANCH   9  10
ENDBRANCH   4   9
BRANCH   1  21
HETATM   21  C   UNL     1      40.836 -11.688  -0.792  1.00  0.00     0.135 C 
HETATM   22  C   UNL     1      41.064 -10.462  -1.673  1.00  0.00     0.038 C 
BRANCH  21  23
HETATM   23  C   UNL     1      40.059 -12.777  -1.492  1.00  0.00     0.005 A 
HETATM   24  S   UNL     1      39.190 -12.515  -2.952  1.00  0.00    -0.104 SA
HETATM   25  C   UNL     1      38.636 -14.127  -3.008  1.00  0.00     0.050 A 
HETATM   26  C   UNL     1      39.087 -14.862  -1.938  1.00  0.00     0.008 A 
HETATM   27  C   UNL     1      39.900 -14.085  -1.063  1.00  0.00     0.017 A 
ENDBRANCH  21  23
ENDBRANCH   1  21
TORSDOF 5
ENDMDL
MODEL 7
REMARK VINA RESULT:      -7.6      3.037      8.212
REMARK  5 active torsions:
REMARK  status: ('A' for Active; 'I' for Inactive)
REMARK    1  A    between atoms: C_2  and  N_3 
REMARK    2  A    between atoms: C_2  and  C_21 
REMARK       I    between atoms: N_3  and  C_5 
REMARK       I    between atoms: C_5  and  N_6 
REMARK    3  A    between atoms: N_6  and  C_7 
REMARK    4  A    between atoms: C_7  and  C_8 
REMARK    5  A    between atoms: C_10  and  C_11 
ROOT
HETATM    1  N   UNL     1      42.095 -16.610   4.240  1.00  0.00    -0.218 N 
HETATM    2  H   UNL     1      41.650 -17.311   4.814  1.00  0.00     0.178 HD
HETATM    3  C   UNL     1      41.547 -15.373   4.294  1.00  0.00     0.670 C 
HETATM    4  N   UNL     1      41.928 -14.410   3.421  1.00  0.00    -0.221 N 
HETATM    5  N   UNL     1      40.609 -15.112   5.234  1.00  0.00    -0.231 N 
HETATM    6  C   UNL     1      40.232 -15.979   6.343  1.00  0.00     0.165 C 
HETATM    7  H   UNL     1      42.417 -14.717   2.592  1.00  0.00     0.178 HD
HETATM    8  H   UNL     1      40.006 -14.315   5.023  1.00  0.00     0.177 HD
ENDROOT
BRANCH   4   9
HETATM    9  C   UNL     1      41.643 -12.973   3.552  1.00  0.00     0.199 C 
BRANCH   9  10
HETATM   10  C   UNL     1      42.773 -12.268   4.203  1.00  0.00     0.077 A 
HETATM   11  N   UNL     1      42.804 -12.083   5.573  1.00  0.00    -0.225 NA
HETATM   12  C   UNL     1      43.924 -11.409   5.781  1.00  0.00     0.179 A 
HETATM   13  O   UNL     1      44.660 -11.197   4.645  1.00  0.00    -0.301 OA
HETATM   14  C   UNL     1      43.916 -11.746   3.646  1.00  0.00     0.173 A 
BRANCH  12  15
HETATM   15  C   UNL     1      44.446 -10.847   7.021  1.00  0.00     0.017 A 
HETATM   16  C   UNL     1      43.573 -10.606   8.094  1.00  0.00     0.016 A 
HETATM   17  C   UNL     1      44.044 -10.054   9.287  1.00  0.00     0.001 A 
HETATM   18  C   UNL     1      45.395  -9.746   9.425  1.00  0.00     0.000 A 
HETATM   19  C   UNL     1      46.276  -9.986   8.372  1.00  0.00     0.001 A 
HETATM   20  C   UNL     1      45.803 -10.530   7.175  1.00  0.00     0.016 A 
ENDBRANCH  12  15
ENDBRANCH   9  10
ENDBRANCH   4   9
BRANCH   1  21
HETATM   21  C   UNL     1      43.245 -17.087   3.445  1.00  0.00     0.135 C 
HETATM   22  C   UNL     1      43.077 -16.843   1.947  1.00  0.00     0.038 C 
BRANCH  21  23
HETATM   23  C   UNL     1      43.600 -18.518   3.769  1.00  0.00     0.005 A 
HETATM   24  S   UNL     1      43.557 -19.780   2.602  1.00  0.00    -0.104 SA
HETATM   25  C   UNL     1      44.031 -20.959   3.739  1.00  0.00     0.050 A 
HETATM   26  C   UNL     1      44.213 -20.422   4.991  1.00  0.00     0.008 A 
HETATM   27  C   UNL     1      43.960 -19.019   5.010  1.00  0.00     0.017 A 
ENDBRANCH  21  23
ENDBRANCH   1  21
TORSDOF 5
ENDMDL
MODEL 8
REMARK VINA RESULT:      -7.5      3.863      9.052
REMARK  5 active torsions:
REMARK  status: ('A' for Active; 'I' for Inactive)
REMARK    1  A    between atoms: C_2  and  N_3 
REMARK    2  A    between atoms: C_2  and  C_21 
REMARK       I    between atoms: N_3  and  C_5 
REMARK       I    between atoms: C_5  and  N_6 
REMARK    3  A    between atoms: N_6  and  C_7 
REMARK    4  A    between atoms: C_7  and  C_8 
REMARK    5  A    between atoms: C_10  and  C_11 
ROOT
HETATM    1  N   UNL     1      41.819 -13.563   5.688  1.00  0.00    -0.218 N 
HETATM    2  H   UNL     1      41.226 -14.287   6.067  1.00  0.00     0.178 HD
HETATM    3  C   UNL     1      42.950 -13.305   6.387  1.00  0.00     0.670 C 
HETATM    4  N   UNL     1      43.713 -12.226   6.091  1.00  0.00    -0.221 N 
HETATM    5  N   UNL     1      43.306 -14.141   7.389  1.00  0.00    -0.231 N 
HETATM    6  C   UNL     1      42.692 -15.426   7.703  1.00  0.00     0.165 C 
HETATM    7  H   UNL     1      43.281 -11.504   5.533  1.00  0.00     0.178 HD
HETATM    8  H   UNL     1      43.941 -13.735   8.078  1.00  0.00     0.177 HD
ENDROOT
BRANCH   4   9
HETATM    9  C   UNL     1      45.089 -11.997   6.558  1.00  0.00     0.199 C 
BRANCH   9  10
HETATM   10  C   UNL     1      45.108 -11.045   7.695  1.00  0.00     0.077 A 
HETATM   11  N   UNL     1      44.243 -11.194   8.763  1.00  0.00    -0.225 NA
HETATM   12  C   UNL     1      44.528 -10.169   9.552  1.00  0.00     0.179 A 
HETATM   13  O   UNL     1      45.566  -9.398   9.103  1.00  0.00    -0.301 OA
HETATM   14  C   UNL     1      45.926  -9.963   7.918  1.00  0.00     0.173 A 
BRANCH  12  15
HETATM   15  C   UNL     1      43.876  -9.746  10.786  1.00  0.00     0.017 A 
HETATM   16  C   UNL     1      43.386 -10.713  11.679  1.00  0.00     0.016 A 
HETATM   17  C   UNL     1      42.743 -10.334  12.859  1.00  0.00     0.001 A 
HETATM   18  C   UNL     1      42.592  -8.984  13.167  1.00  0.00     0.000 A 
HETATM   19  C   UNL     1      43.079  -8.013  12.294  1.00  0.00     0.001 A 
HETATM   20  C   UNL     1      43.714  -8.391  11.109  1.00  0.00     0.016 A 
ENDBRANCH  12  15
ENDBRANCH   9  10
ENDBRANCH   4   9
BRANCH   1  21
HETATM   21  C   UNL     1      41.318 -12.923   4.455  1.00  0.00     0.135 C 
HETATM   22  C   UNL     1      40.056 -12.094   4.684  1.00  0.00     0.038 C 
BRANCH  21  23
HETATM   23  C   UNL     1      41.173 -13.912   3.323  1.00  0.00     0.005 A 
HETATM   24  S   UNL     1      41.649 -13.562   1.709  1.00  0.00    -0.104 SA
HETATM   25  C   UNL     1      41.142 -15.089   1.142  1.00  0.00     0.050 A 
HETATM   26  C   UNL     1      40.609 -15.860   2.148  1.00  0.00     0.008 A 
HETATM   27  C   UNL     1      40.621 -15.181   3.401  1.00  0.00     0.017 A 
ENDBRANCH  21  23
ENDBRANCH   1  21
TORSDOF 5
ENDMDL
MODEL 9
REMARK VINA RESULT:      -7.2      4.215      6.180
REMARK  5 active torsions:
REMARK  status: ('A' for Active; 'I' for Inactive)
REMARK    1  A    between atoms: C_2  and  N_3 
REMARK    2  A    between atoms: C_2  and  C_21 
REMARK       I    between atoms: N_3  and  C_5 
REMARK       I    between atoms: C_5  and  N_6 
REMARK    3  A    between atoms: N_6  and  C_7 
REMARK    4  A    between atoms: C_7  and  C_8 
REMARK    5  A    between atoms: C_10  and  C_11 
ROOT
HETATM    1  N   UNL     1      39.328 -13.054   1.524  1.00  0.00    -0.218 N 
HETATM    2  H   UNL     1      39.020 -13.491   0.668  1.00  0.00     0.178 HD
HETATM    3  C   UNL     1      39.614 -13.898   2.543  1.00  0.00     0.670 C 
HETATM    4  N   UNL     1      39.838 -13.422   3.792  1.00  0.00    -0.221 N 
HETATM    5  N   UNL     1      39.671 -15.227   2.298  1.00  0.00    -0.231 N 
HETATM    6  C   UNL     1      39.633 -15.867   0.988  1.00  0.00     0.165 C 
HETATM    7  H   UNL     1      39.529 -12.479   3.980  1.00  0.00     0.178 HD
HETATM    8  H   UNL     1      39.550 -15.818   3.122  1.00  0.00     0.177 HD
ENDROOT
BRANCH   4   9
HETATM    9  C   UNL     1      40.438 -14.178   4.901  1.00  0.00     0.199 C 
BRANCH   9  10
HETATM   10  C   UNL     1      41.576 -15.001   4.425  1.00  0.00     0.077 A 
HETATM   11  N   UNL     1      41.452 -16.370   4.279  1.00  0.00    -0.225 NA
HETATM   12  C   UNL     1      42.650 -16.758   3.869  1.00  0.00     0.179 A 
HETATM   13  O   UNL     1      43.528 -15.726   3.674  1.00  0.00    -0.301 OA
HETATM   14  C   UNL     1      42.834 -14.612   4.035  1.00  0.00     0.173 A 
BRANCH  12  15
HETATM   15  C   UNL     1      43.153 -18.107   3.636  1.00  0.00     0.017 A 
HETATM   16  C   UNL     1      43.002 -18.696   2.370  1.00  0.00     0.016 A 
HETATM   17  C   UNL     1      43.460 -19.992   2.126  1.00  0.00     0.001 A 
HETATM   18  C   UNL     1      44.084 -20.712   3.142  1.00  0.00     0.000 A 
HETATM   19  C   UNL     1      44.247 -20.140   4.403  1.00  0.00     0.001 A 
HETATM   20  C   UNL     1      43.781 -18.846   4.650  1.00  0.00     0.016 A 
ENDBRANCH  12  15
ENDBRANCH   9  10
ENDBRANCH   4   9
BRANCH   1  21
HETATM   21  C   UNL     1      39.386 -11.578   1.490  1.00  0.00     0.135 C 
HETATM   22  C   UNL     1      38.005 -10.927   1.509  1.00  0.00     0.038 C 
BRANCH  21  23
HETATM   23  C   UNL     1      40.257 -11.073   0.365  1.00  0.00     0.005 A 
HETATM   24  S   UNL     1      41.233  -9.664   0.499  1.00  0.00    -0.104 SA
HETATM   25  C   UNL     1      41.800  -9.804  -1.103  1.00  0.00     0.050 A 
HETATM   26  C   UNL     1      41.259 -10.893  -1.746  1.00  0.00     0.008 A 
HETATM   27  C   UNL     1      40.368 -11.619  -0.903  1.00  0.00     0.017 A 
ENDBRANCH  21  23
ENDBRANCH   1  21
TORSDOF 5
ENDMDL
MODEL 10
REMARK VINA RESULT:      -7.1      1.436      1.823
REMARK  5 active torsions:
REMARK  status: ('A' for Active; 'I' for Inactive)
REMARK    1  A    between atoms: C_2  and  N_3 
REMARK    2  A    between atoms: C_2  and  C_21 
REMARK       I    between atoms: N_3  and  C_5 
REMARK       I    between atoms: C_5  and  N_6 
REMARK    3  A    between atoms: N_6  and  C_7 
REMARK    4  A    between atoms: C_7  and  C_8 
REMARK    5  A    between atoms: C_10  and  C_11 
ROOT
HETATM    1  N   UNL     1      42.164 -12.703   6.557  1.00  0.00    -0.218 N 
HETATM    2  H   UNL     1      42.199 -13.166   7.453  1.00  0.00     0.178 HD
HETATM    3  C   UNL     1      41.889 -13.497   5.496  1.00  0.00     0.670 C 
HETATM    4  N   UNL     1      42.017 -13.028   4.232  1.00  0.00    -0.221 N 
HETATM    5  N   UNL     1      41.485 -14.769   5.717  1.00  0.00    -0.231 N 
HETATM    6  C   UNL     1      41.131 -15.353   7.005  1.00  0.00     0.165 C 
HETATM    7  H   UNL     1      42.562 -12.187   4.112  1.00  0.00     0.178 HD
HETATM    8  H   UNL     1      41.620 -15.402   4.927  1.00  0.00     0.177 HD
ENDROOT
BRANCH   4   9
HETATM    9  C   UNL     1      41.478 -13.670   3.022  1.00  0.00     0.199 C 
BRANCH   9  10
HETATM   10  C   UNL     1      42.299 -14.843   2.638  1.00  0.00     0.077 A 
HETATM   11  N   UNL     1      42.109 -16.073   3.240  1.00  0.00    -0.225 NA
HETATM   12  C   UNL     1      43.017 -16.852   2.672  1.00  0.00     0.179 A 
HETATM   13  O   UNL     1      43.743 -16.230   1.692  1.00  0.00    -0.301 OA
HETATM   14  C   UNL     1      43.280 -14.950   1.681  1.00  0.00     0.173 A 
BRANCH  12  15
HETATM   15  C   UNL     1      43.359 -18.238   2.969  1.00  0.00     0.017 A 
HETATM   16  C   UNL     1      43.200 -19.220   1.978  1.00  0.00     0.016 A 
HETATM   17  C   UNL     1      43.505 -20.557   2.242  1.00  0.00     0.001 A 
HETATM   18  C   UNL     1      43.982 -20.927   3.497  1.00  0.00     0.000 A 
HETATM   19  C   UNL     1      44.151 -19.963   4.490  1.00  0.00     0.001 A 
HETATM   20  C   UNL     1      43.838 -18.627   4.229  1.00  0.00     0.016 A 
ENDBRANCH  12  15
ENDBRANCH   9  10
ENDBRANCH   4   9
BRANCH   1  21
HETATM   21  C   UNL     1      42.440 -11.252   6.590  1.00  0.00     0.135 C 
HETATM   22  C   UNL     1      42.154 -10.560   5.259  1.00  0.00     0.038 C 
BRANCH  21  23
HETATM   23  C   UNL     1      43.820 -10.951   7.123  1.00  0.00     0.005 A 
HETATM   24  S   UNL     1      45.258 -11.329   6.260  1.00  0.00    -0.104 SA
HETATM   25  C   UNL     1      46.259 -10.728   7.503  1.00  0.00     0.050 A 
HETATM   26  C   UNL     1      45.529 -10.253   8.567  1.00  0.00     0.008 A 
HETATM   27  C   UNL     1      44.127 -10.387   8.351  1.00  0.00     0.017 A 
ENDBRANCH  21  23
ENDBRANCH   1  21
TORSDOF 5
ENDMDL
