MODEL 1
REMARK VINA RESULT:      -8.8      0.000      0.000
REMARK  3 active torsions:
REMARK  status: ('A' for Active; 'I' for Inactive)
REMARK    1  A    between atoms: C_7  and  C_8 
REMARK    2  A    between atoms: N_11  and  C_13 
REMARK    3  A    between atoms: C_13  and  C_14 
ROOT
HETATM    1  C   UNL     1      44.783 -11.550   7.394  1.00  0.00     0.080 A 
HETATM    2  O   UNL     1      44.090 -11.441   8.565  1.00  0.00    -0.302 OA
HETATM    3  C   UNL     1      44.683 -10.441   9.279  1.00  0.00     0.155 A 
HETATM    4  C   UNL     1      44.133 -10.127  10.549  1.00  0.00     0.125 C 
HETATM    5  N   UNL     1      43.662  -9.871  11.577  1.00  0.00    -0.189 NA
HETATM    6  C   UNL     1      45.738  -9.904   8.578  1.00  0.00     0.051 A 
HETATM    7  C   UNL     1      45.805 -10.622   7.357  1.00  0.00     0.038 A 
ENDROOT
BRANCH   1   8
HETATM    8  C   UNL     1      44.313 -12.583   6.438  1.00  0.00     0.299 C 
BRANCH   8   9
HETATM    9  N   UNL     1      43.025 -13.284   6.848  1.00  0.00    -0.065 N 
HETATM   10  C   UNL     1      41.920 -13.080   5.837  1.00  0.00     0.236 C 
HETATM   11  C   UNL     1      40.681 -13.860   6.252  1.00  0.00     0.037 C 
HETATM   12  C   UNL     1      40.982 -15.370   6.342  1.00  0.00     0.024 C 
HETATM   13  C   UNL     1      42.053 -15.532   7.422  1.00  0.00     0.037 C 
HETATM   14  C   UNL     1      43.318 -14.734   7.139  1.00  0.00     0.236 C 
HETATM   15  H   UNL     1      42.726 -12.824   7.719  1.00  0.00     0.280 HD
BRANCH  12  16
HETATM   16  C   UNL     1      41.287 -15.952   4.968  1.00  0.00    -0.026 A 
HETATM   17  C   UNL     1      42.247 -16.940   4.530  1.00  0.00    -0.001 A 
HETATM   18  C   UNL     1      42.188 -16.984   3.130  1.00  0.00     0.045 A 
HETATM   19  C   UNL     1      43.186 -17.796   5.158  1.00  0.00     0.017 A 
HETATM   20  C   UNL     1      43.047 -17.762   2.345  1.00  0.00     0.072 A 
HETATM   21  N   UNL     1      41.153 -16.176   2.735  1.00  0.00    -0.365 N 
HETATM   22  C   UNL     1      43.987 -18.544   3.005  1.00  0.00     0.118 A 
HETATM   23  C   UNL     1      44.055 -18.581   4.387  1.00  0.00     0.043 A 
HETATM   24  F   UNL     1      44.839 -19.288   2.288  1.00  0.00    -0.206 F 
HETATM   25  C   UNL     1      40.601 -15.566   3.824  1.00  0.00     0.096 A 
HETATM   26  H   UNL     1      40.843 -16.064   1.778  1.00  0.00     0.165 HD
ENDBRANCH  12  16
ENDBRANCH   8   9
ENDBRANCH   1   8
TORSDOF 3
ENDMDL
MODEL 2
REMARK VINA RESULT:      -8.2      3.066      5.196
REMARK  3 active torsions:
REMARK  status: ('A' for Active; 'I' for Inactive)
REMARK    1  A    between atoms: C_7  and  C_8 
REMARK    2  A    between atoms: N_11  and  C_13 
REMARK    3  A    between atoms: C_13  and  C_14 
ROOT
HETATM    1  C   UNL     1      39.992 -12.557   4.310  1.00  0.00     0.080 A 
HETATM    2  O   UNL     1      39.928 -13.671   3.523  1.00  0.00    -0.302 OA
HETATM    3  C   UNL     1      40.055 -13.246   2.233  1.00  0.00     0.155 A 
HETATM    4  C   UNL     1      40.027 -14.231   1.212  1.00  0.00     0.125 C 
HETATM    5  N   UNL     1      40.018 -15.049   0.390  1.00  0.00    -0.189 NA
HETATM    6  C   UNL     1      40.206 -11.879   2.185  1.00  0.00     0.051 A 
HETATM    7  C   UNL     1      40.164 -11.432   3.530  1.00  0.00     0.038 A 
ENDROOT
BRANCH   1   8
HETATM    8  C   UNL     1      39.880 -12.772   5.773  1.00  0.00     0.299 C 
BRANCH   8   9
HETATM    9  N   UNL     1      41.112 -13.396   6.416  1.00  0.00    -0.065 N 
HETATM   10  C   UNL     1      40.977 -14.894   6.568  1.00  0.00     0.236 C 
HETATM   11  C   UNL     1      42.259 -15.479   7.142  1.00  0.00     0.037 C 
HETATM   12  C   UNL     1      43.461 -15.192   6.220  1.00  0.00     0.024 C 
HETATM   13  C   UNL     1      43.599 -13.671   6.152  1.00  0.00     0.037 C 
HETATM   14  C   UNL     1      42.341 -12.974   5.651  1.00  0.00     0.236 C 
HETATM   15  H   UNL     1      41.159 -13.000   7.365  1.00  0.00     0.280 HD
BRANCH  12  16
HETATM   16  C   UNL     1      43.328 -15.937   4.898  1.00  0.00    -0.026 A 
HETATM   17  C   UNL     1      43.506 -17.330   4.553  1.00  0.00    -0.001 A 
HETATM   18  C   UNL     1      43.397 -17.429   3.159  1.00  0.00     0.045 A 
HETATM   19  C   UNL     1      43.770 -18.529   5.261  1.00  0.00     0.017 A 
HETATM   20  C   UNL     1      43.610 -18.619   2.451  1.00  0.00     0.072 A 
HETATM   21  N   UNL     1      43.032 -16.196   2.685  1.00  0.00    -0.365 N 
HETATM   22  C   UNL     1      43.920 -19.756   3.185  1.00  0.00     0.118 A 
HETATM   23  C   UNL     1      43.987 -19.728   4.568  1.00  0.00     0.043 A 
HETATM   24  F   UNL     1      44.148 -20.908   2.542  1.00  0.00    -0.206 F 
HETATM   25  C   UNL     1      42.976 -15.302   3.714  1.00  0.00     0.096 A 
HETATM   26  H   UNL     1      42.825 -15.990   1.715  1.00  0.00     0.165 HD
ENDBRANCH  12  16
ENDBRANCH   8   9
ENDBRANCH   1   8
TORSDOF 3
ENDMDL
MODEL 3
REMARK VINA RESULT:      -8.2      4.358      6.917
REMARK  3 active torsions:
REMARK  status: ('A' for Active; 'I' for Inactive)
REMARK    1  A    between atoms: C_7  and  C_8 
REMARK    2  A    between atoms: N_11  and  C_13 
REMARK    3  A    between atoms: C_13  and  C_14 
ROOT
HETATM    1  C   UNL     1      39.849 -14.365   1.247  1.00  0.00     0.080 A 
HETATM    2  O   UNL     1      39.929 -14.712  -0.072  1.00  0.00    -0.302 OA
HETATM    3  C   UNL     1      39.758 -13.565  -0.789  1.00  0.00     0.155 A 
HETATM    4  C   UNL     1      39.808 -13.662  -2.204  1.00  0.00     0.125 C 
HETATM    5  N   UNL     1      39.867 -13.755  -3.358  1.00  0.00    -0.189 NA
HETATM    6  C   UNL     1      39.577 -12.489   0.051  1.00  0.00     0.051 A 
HETATM    7  C   UNL     1      39.635 -13.007   1.369  1.00  0.00     0.038 A 
ENDROOT
BRANCH   1   8
HETATM    8  C   UNL     1      40.012 -15.461   2.232  1.00  0.00     0.299 C 
BRANCH   8   9
HETATM    9  N   UNL     1      40.673 -15.043   3.539  1.00  0.00    -0.065 N 
HETATM   10  C   UNL     1      40.351 -15.995   4.669  1.00  0.00     0.236 C 
HETATM   11  C   UNL     1      41.095 -15.579   5.930  1.00  0.00     0.037 C 
HETATM   12  C   UNL     1      42.620 -15.594   5.705  1.00  0.00     0.024 C 
HETATM   13  C   UNL     1      42.902 -14.570   4.604  1.00  0.00     0.037 C 
HETATM   14  C   UNL     1      42.151 -14.855   3.311  1.00  0.00     0.236 C 
HETATM   15  H   UNL     1      40.255 -14.135   3.781  1.00  0.00     0.280 HD
BRANCH  12  16
HETATM   16  C   UNL     1      43.128 -17.012   5.481  1.00  0.00    -0.026 A 
HETATM   17  C   UNL     1      43.357 -17.777   4.276  1.00  0.00    -0.001 A 
HETATM   18  C   UNL     1      43.691 -19.080   4.669  1.00  0.00     0.045 A 
HETATM   19  C   UNL     1      43.299 -17.523   2.883  1.00  0.00     0.017 A 
HETATM   20  C   UNL     1      43.890 -20.132   3.765  1.00  0.00     0.072 A 
HETATM   21  N   UNL     1      43.802 -19.084   6.035  1.00  0.00    -0.365 N 
HETATM   22  C   UNL     1      43.769 -19.846   2.411  1.00  0.00     0.118 A 
HETATM   23  C   UNL     1      43.494 -18.564   1.964  1.00  0.00     0.043 A 
HETATM   24  F   UNL     1      43.933 -20.829   1.518  1.00  0.00    -0.206 F 
HETATM   25  C   UNL     1      43.480 -17.853   6.529  1.00  0.00     0.096 A 
HETATM   26  H   UNL     1      44.092 -19.882   6.587  1.00  0.00     0.165 HD
ENDBRANCH  12  16
ENDBRANCH   8   9
ENDBRANCH   1   8
TORSDOF 3
ENDMDL
MODEL 4
REMARK VINA RESULT:      -8.1      1.689      2.216
REMARK  3 active torsions:
REMARK  status: ('A' for Active; 'I' for Inactive)
REMARK    1  A    between atoms: C_7  and  C_8 
REMARK    2  A    between atoms: N_11  and  C_13 
REMARK    3  A    between atoms: C_13  and  C_14 
ROOT
HETATM    1  C   UNL     1      45.213 -10.941   7.616  1.00  0.00     0.080 A 
HETATM    2  O   UNL     1      44.420 -11.251   8.683  1.00  0.00    -0.302 OA
HETATM    3  C   UNL     1      44.706 -10.344   9.661  1.00  0.00     0.155 A 
HETATM    4  C   UNL     1      43.997 -10.453  10.884  1.00  0.00     0.125 C 
HETATM    5  N   UNL     1      43.397 -10.544  11.873  1.00  0.00    -0.189 NA
HETATM    6  C   UNL     1      45.664  -9.454   9.231  1.00  0.00     0.051 A 
HETATM    7  C   UNL     1      45.993  -9.841   7.907  1.00  0.00     0.038 A 
ENDROOT
BRANCH   1   8
HETATM    8  C   UNL     1      45.073 -11.799   6.414  1.00  0.00     0.299 C 
BRANCH   8   9
HETATM    9  N   UNL     1      43.756 -11.631   5.667  1.00  0.00    -0.065 N 
HETATM   10  C   UNL     1      43.958 -11.546   4.172  1.00  0.00     0.236 C 
HETATM   11  C   UNL     1      42.612 -11.457   3.467  1.00  0.00     0.037 C 
HETATM   12  C   UNL     1      41.745 -12.695   3.768  1.00  0.00     0.024 C 
HETATM   13  C   UNL     1      41.513 -12.701   5.280  1.00  0.00     0.037 C 
HETATM   14  C   UNL     1      42.803 -12.721   6.087  1.00  0.00     0.236 C 
HETATM   15  H   UNL     1      43.379 -10.723   5.973  1.00  0.00     0.280 HD
BRANCH  12  16
HETATM   16  C   UNL     1      42.350 -13.951   3.154  1.00  0.00    -0.026 A 
HETATM   17  C   UNL     1      42.592 -15.270   3.695  1.00  0.00    -0.001 A 
HETATM   18  C   UNL     1      43.305 -15.990   2.728  1.00  0.00     0.045 A 
HETATM   19  C   UNL     1      42.306 -15.940   4.911  1.00  0.00     0.017 A 
HETATM   20  C   UNL     1      43.801 -17.283   2.938  1.00  0.00     0.072 A 
HETATM   21  N   UNL     1      43.376 -15.212   1.601  1.00  0.00    -0.365 N 
HETATM   22  C   UNL     1      43.542 -17.878   4.166  1.00  0.00     0.118 A 
HETATM   23  C   UNL     1      42.796 -17.234   5.138  1.00  0.00     0.043 A 
HETATM   24  F   UNL     1      44.015 -19.106   4.411  1.00  0.00    -0.206 F 
HETATM   25  C   UNL     1      42.799 -13.999   1.841  1.00  0.00     0.096 A 
HETATM   26  H   UNL     1      43.787 -15.505   0.723  1.00  0.00     0.165 HD
ENDBRANCH  12  16
ENDBRANCH   8   9
ENDBRANCH   1   8
TORSDOF 3
ENDMDL
MODEL 5
REMARK VINA RESULT:      -8.0      3.769      6.598
REMARK  3 active torsions:
REMARK  status: ('A' for Active; 'I' for Inactive)
REMARK    1  A    between atoms: C_7  and  C_8 
REMARK    2  A    between atoms: N_11  and  C_13 
REMARK    3  A    between atoms: C_13  and  C_14 
ROOT
HETATM    1  C   UNL     1      43.574 -16.636   4.083  1.00  0.00     0.080 A 
HETATM    2  O   UNL     1      43.709 -17.987   3.946  1.00  0.00    -0.302 OA
HETATM    3  C   UNL     1      43.417 -18.280   2.646  1.00  0.00     0.155 A 
HETATM    4  C   UNL     1      43.494 -19.639   2.247  1.00  0.00     0.125 C 
HETATM    5  N   UNL     1      43.578 -20.752   1.931  1.00  0.00    -0.189 NA
HETATM    6  C   UNL     1      43.105 -17.135   1.949  1.00  0.00     0.051 A 
HETATM    7  C   UNL     1      43.206 -16.070   2.879  1.00  0.00     0.038 A 
ENDROOT
BRANCH   1   8
HETATM    8  C   UNL     1      43.849 -16.074   5.428  1.00  0.00     0.299 C 
BRANCH   8   9
HETATM    9  N   UNL     1      42.695 -15.286   6.032  1.00  0.00    -0.065 N 
HETATM   10  C   UNL     1      42.869 -13.795   5.852  1.00  0.00     0.236 C 
HETATM   11  C   UNL     1      41.657 -13.057   6.402  1.00  0.00     0.037 C 
HETATM   12  C   UNL     1      40.369 -13.485   5.671  1.00  0.00     0.024 C 
HETATM   13  C   UNL     1      40.199 -14.982   5.938  1.00  0.00     0.037 C 
HETATM   14  C   UNL     1      41.392 -15.812   5.485  1.00  0.00     0.236 C 
HETATM   15  H   UNL     1      42.732 -15.474   7.043  1.00  0.00     0.280 HD
BRANCH  12  16
HETATM   16  C   UNL     1      40.388 -13.037   4.216  1.00  0.00    -0.026 A 
HETATM   17  C   UNL     1      40.188 -13.760   2.980  1.00  0.00    -0.001 A 
HETATM   18  C   UNL     1      40.464 -12.874   1.931  1.00  0.00     0.045 A 
HETATM   19  C   UNL     1      39.822 -15.082   2.622  1.00  0.00     0.017 A 
HETATM   20  C   UNL     1      40.467 -13.251   0.582  1.00  0.00     0.072 A 
HETATM   21  N   UNL     1      40.682 -11.637   2.482  1.00  0.00    -0.365 N 
HETATM   22  C   UNL     1      40.155 -14.571   0.284  1.00  0.00     0.118 A 
HETATM   23  C   UNL     1      39.822 -15.477   1.277  1.00  0.00     0.043 A 
HETATM   24  F   UNL     1      40.166 -14.974  -0.992  1.00  0.00    -0.206 F 
HETATM   25  C   UNL     1      40.628 -11.721   3.842  1.00  0.00     0.096 A 
HETATM   26  H   UNL     1      40.847 -10.791   1.950  1.00  0.00     0.165 HD
ENDBRANCH  12  16
ENDBRANCH   8   9
ENDBRANCH   1   8
TORSDOF 3
ENDMDL
MODEL 6
REMARK VINA RESULT:      -8.0      1.710      2.548
REMARK  3 active torsions:
REMARK  status: ('A' for Active; 'I' for Inactive)
REMARK    1  A    between atoms: C_7  and  C_8 
REMARK    2  A    between atoms: N_11  and  C_13 
REMARK    3  A    between atoms: C_13  and  C_14 
ROOT
HETATM    1  C   UNL     1      43.466 -10.853   5.606  1.00  0.00     0.080 A 
HETATM    2  O   UNL     1      43.531 -10.440   6.906  1.00  0.00    -0.302 OA
HETATM    3  C   UNL     1      44.666 -10.983   7.433  1.00  0.00     0.155 A 
HETATM    4  C   UNL     1      44.964 -10.690   8.789  1.00  0.00     0.125 C 
HETATM    5  N   UNL     1      45.203 -10.429   9.893  1.00  0.00    -0.189 NA
HETATM    6  C   UNL     1      45.331 -11.730   6.487  1.00  0.00     0.051 A 
HETATM    7  C   UNL     1      44.554 -11.648   5.304  1.00  0.00     0.038 A 
ENDROOT
BRANCH   1   8
HETATM    8  C   UNL     1      42.304 -10.379   4.816  1.00  0.00     0.299 C 
BRANCH   8   9
HETATM    9  N   UNL     1      41.223 -11.428   4.589  1.00  0.00    -0.065 N 
HETATM   10  C   UNL     1      41.539 -12.325   3.414  1.00  0.00     0.236 C 
HETATM   11  C   UNL     1      40.472 -13.401   3.276  1.00  0.00     0.037 C 
HETATM   12  C   UNL     1      40.398 -14.274   4.544  1.00  0.00     0.024 C 
HETATM   13  C   UNL     1      40.010 -13.337   5.689  1.00  0.00     0.037 C 
HETATM   14  C   UNL     1      40.980 -12.178   5.874  1.00  0.00     0.236 C 
HETATM   15  H   UNL     1      40.374 -10.901   4.346  1.00  0.00     0.280 HD
BRANCH  12  16
HETATM   16  C   UNL     1      41.667 -15.097   4.720  1.00  0.00    -0.026 A 
HETATM   17  C   UNL     1      42.241 -16.165   3.933  1.00  0.00    -0.001 A 
HETATM   18  C   UNL     1      43.346 -16.655   4.642  1.00  0.00     0.045 A 
HETATM   19  C   UNL     1      41.940 -16.797   2.701  1.00  0.00     0.017 A 
HETATM   20  C   UNL     1      44.098 -17.763   4.231  1.00  0.00     0.072 A 
HETATM   21  N   UNL     1      43.530 -15.844   5.733  1.00  0.00    -0.365 N 
HETATM   22  C   UNL     1      43.731 -18.383   3.043  1.00  0.00     0.118 A 
HETATM   23  C   UNL     1      42.682 -17.908   2.274  1.00  0.00     0.043 A 
HETATM   24  F   UNL     1      44.414 -19.456   2.627  1.00  0.00    -0.206 F 
HETATM   25  C   UNL     1      42.541 -14.905   5.782  1.00  0.00     0.096 A 
HETATM   26  H   UNL     1      44.294 -15.930   6.392  1.00  0.00     0.165 HD
ENDBRANCH  12  16
ENDBRANCH   8   9
ENDBRANCH   1   8
TORSDOF 3
ENDMDL
MODEL 7
REMARK VINA RESULT:      -7.8      1.952      2.789
REMARK  3 active torsions:
REMARK  status: ('A' for Active; 'I' for Inactive)
REMARK    1  A    between atoms: C_7  and  C_8 
REMARK    2  A    between atoms: N_11  and  C_13 
REMARK    3  A    between atoms: C_13  and  C_14 
ROOT
HETATM    1  C   UNL     1      44.992 -10.658   7.799  1.00  0.00     0.080 A 
HETATM    2  O   UNL     1      44.367 -11.191   8.890  1.00  0.00    -0.302 OA
HETATM    3  C   UNL     1      44.485 -10.276   9.895  1.00  0.00     0.155 A 
HETATM    4  C   UNL     1      43.902 -10.598  11.147  1.00  0.00     0.125 C 
HETATM    5  N   UNL     1      43.406 -10.869  12.160  1.00  0.00    -0.189 NA
HETATM    6  C   UNL     1      45.169  -9.164   9.460  1.00  0.00     0.051 A 
HETATM    7  C   UNL     1      45.498  -9.411   8.103  1.00  0.00     0.038 A 
ENDROOT
BRANCH   1   8
HETATM    8  C   UNL     1      44.989 -11.481   6.565  1.00  0.00     0.299 C 
BRANCH   8   9
HETATM    9  N   UNL     1      43.969 -11.050   5.520  1.00  0.00    -0.065 N 
HETATM   10  C   UNL     1      44.152 -11.783   4.211  1.00  0.00     0.236 C 
HETATM   11  C   UNL     1      43.065 -11.376   3.227  1.00  0.00     0.037 C 
HETATM   12  C   UNL     1      41.664 -11.711   3.778  1.00  0.00     0.024 C 
HETATM   13  C   UNL     1      41.500 -10.897   5.062  1.00  0.00     0.037 C 
HETATM   14  C   UNL     1      42.582 -11.179   6.096  1.00  0.00     0.236 C 
HETATM   15  H   UNL     1      44.163 -10.056   5.338  1.00  0.00     0.280 HD
BRANCH  12  16
HETATM   16  C   UNL     1      41.461 -13.218   3.880  1.00  0.00    -0.026 A 
HETATM   17  C   UNL     1      42.102 -14.326   3.209  1.00  0.00    -0.001 A 
HETATM   18  C   UNL     1      41.417 -15.489   3.583  1.00  0.00     0.045 A 
HETATM   19  C   UNL     1      43.181 -14.481   2.302  1.00  0.00     0.017 A 
HETATM   20  C   UNL     1      41.698 -16.755   3.052  1.00  0.00     0.072 A 
HETATM   21  N   UNL     1      40.498 -15.139   4.538  1.00  0.00    -0.365 N 
HETATM   22  C   UNL     1      42.729 -16.848   2.125  1.00  0.00     0.118 A 
HETATM   23  C   UNL     1      43.475 -15.740   1.760  1.00  0.00     0.043 A 
HETATM   24  F   UNL     1      43.014 -18.037   1.581  1.00  0.00    -0.206 F 
HETATM   25  C   UNL     1      40.525 -13.789   4.732  1.00  0.00     0.096 A 
HETATM   26  H   UNL     1      39.902 -15.793   5.031  1.00  0.00     0.165 HD
ENDBRANCH  12  16
ENDBRANCH   8   9
ENDBRANCH   1   8
TORSDOF 3
ENDMDL
MODEL 8
REMARK VINA RESULT:      -7.8      1.896      2.793
REMARK  3 active torsions:
REMARK  status: ('A' for Active; 'I' for Inactive)
REMARK    1  A    between atoms: C_7  and  C_8 
REMARK    2  A    between atoms: N_11  and  C_13 
REMARK    3  A    between atoms: C_13  and  C_14 
ROOT
HETATM    1  C   UNL     1      44.717 -11.451   7.637  1.00  0.00     0.080 A 
HETATM    2  O   UNL     1      43.966 -11.396   8.776  1.00  0.00    -0.302 OA
HETATM    3  C   UNL     1      44.512 -10.422   9.559  1.00  0.00     0.155 A 
HETATM    4  C   UNL     1      43.897 -10.166  10.812  1.00  0.00     0.125 C 
HETATM    5  N   UNL     1      43.374  -9.957  11.825  1.00  0.00    -0.189 NA
HETATM    6  C   UNL     1      45.595  -9.848   8.934  1.00  0.00     0.051 A 
HETATM    7  C   UNL     1      45.730 -10.514   7.689  1.00  0.00     0.038 A 
ENDROOT
BRANCH   1   8
HETATM    8  C   UNL     1      44.306 -12.447   6.618  1.00  0.00     0.299 C 
BRANCH   8   9
HETATM    9  N   UNL     1      43.039 -13.219   6.964  1.00  0.00    -0.065 N 
HETATM   10  C   UNL     1      41.911 -12.919   6.003  1.00  0.00     0.236 C 
HETATM   11  C   UNL     1      40.696 -13.770   6.343  1.00  0.00     0.037 C 
HETATM   12  C   UNL     1      41.026 -15.272   6.247  1.00  0.00     0.024 C 
HETATM   13  C   UNL     1      42.121 -15.539   7.282  1.00  0.00     0.037 C 
HETATM   14  C   UNL     1      43.365 -14.687   7.074  1.00  0.00     0.236 C 
HETATM   15  H   UNL     1      42.748 -12.872   7.888  1.00  0.00     0.280 HD
BRANCH  12  16
HETATM   16  C   UNL     1      41.316 -15.681   4.809  1.00  0.00    -0.026 A 
HETATM   17  C   UNL     1      40.844 -15.162   3.544  1.00  0.00    -0.001 A 
HETATM   18  C   UNL     1      41.323 -16.014   2.541  1.00  0.00     0.045 A 
HETATM   19  C   UNL     1      40.041 -14.071   3.128  1.00  0.00     0.017 A 
HETATM   20  C   UNL     1      40.987 -15.880   1.188  1.00  0.00     0.072 A 
HETATM   21  N   UNL     1      42.159 -16.923   3.136  1.00  0.00    -0.365 N 
HETATM   22  C   UNL     1      40.153 -14.826   0.836  1.00  0.00     0.118 A 
HETATM   23  C   UNL     1      39.693 -13.922   1.778  1.00  0.00     0.043 A 
HETATM   24  F   UNL     1      39.794 -14.677  -0.445  1.00  0.00    -0.206 F 
HETATM   25  C   UNL     1      42.171 -16.726   4.486  1.00  0.00     0.096 A 
HETATM   26  H   UNL     1      42.694 -17.626   2.640  1.00  0.00     0.165 HD
ENDBRANCH  12  16
ENDBRANCH   8   9
ENDBRANCH   1   8
TORSDOF 3
ENDMDL
MODEL 9
REMARK VINA RESULT:      -7.7      1.531      2.001
REMARK  3 active torsions:
REMARK  status: ('A' for Active; 'I' for Inactive)
REMARK    1  A    between atoms: C_7  and  C_8 
REMARK    2  A    between atoms: N_11  and  C_13 
REMARK    3  A    between atoms: C_13  and  C_14 
ROOT
HETATM    1  C   UNL     1      45.151 -10.817   7.353  1.00  0.00     0.080 A 
HETATM    2  O   UNL     1      44.029 -10.693   8.121  1.00  0.00    -0.302 OA
HETATM    3  C   UNL     1      44.315  -9.772   9.086  1.00  0.00     0.155 A 
HETATM    4  C   UNL     1      43.292  -9.459  10.018  1.00  0.00     0.125 C 
HETATM    5  N   UNL     1      42.441  -9.202  10.762  1.00  0.00    -0.189 NA
HETATM    6  C   UNL     1      45.599  -9.299   8.939  1.00  0.00     0.051 A 
HETATM    7  C   UNL     1      46.142  -9.976   7.818  1.00  0.00     0.038 A 
ENDROOT
BRANCH   1   8
HETATM    8  C   UNL     1      45.078 -11.773   6.221  1.00  0.00     0.299 C 
BRANCH   8   9
HETATM    9  N   UNL     1      43.698 -12.374   5.990  1.00  0.00    -0.065 N 
HETATM   10  C   UNL     1      43.551 -12.943   4.597  1.00  0.00     0.236 C 
HETATM   11  C   UNL     1      42.187 -13.599   4.441  1.00  0.00     0.037 C 
HETATM   12  C   UNL     1      42.005 -14.747   5.453  1.00  0.00     0.024 C 
HETATM   13  C   UNL     1      42.092 -14.114   6.842  1.00  0.00     0.037 C 
HETATM   14  C   UNL     1      43.399 -13.369   7.083  1.00  0.00     0.236 C 
HETATM   15  H   UNL     1      43.038 -11.588   6.065  1.00  0.00     0.280 HD
BRANCH  12  16
HETATM   16  C   UNL     1      42.955 -15.899   5.153  1.00  0.00    -0.026 A 
HETATM   17  C   UNL     1      43.008 -16.847   4.063  1.00  0.00    -0.001 A 
HETATM   18  C   UNL     1      44.006 -17.781   4.374  1.00  0.00     0.045 A 
HETATM   19  C   UNL     1      42.307 -17.040   2.846  1.00  0.00     0.017 A 
HETATM   20  C   UNL     1      44.279 -18.909   3.590  1.00  0.00     0.072 A 
HETATM   21  N   UNL     1      44.629 -17.354   5.518  1.00  0.00    -0.365 N 
HETATM   22  C   UNL     1      43.528 -19.084   2.434  1.00  0.00     0.118 A 
HETATM   23  C   UNL     1      42.567 -18.165   2.050  1.00  0.00     0.043 A 
HETATM   24  F   UNL     1      43.748 -20.160   1.669  1.00  0.00    -0.206 F 
HETATM   25  C   UNL     1      44.018 -16.226   5.984  1.00  0.00     0.096 A 
HETATM   26  H   UNL     1      45.430 -17.807   5.941  1.00  0.00     0.165 HD
ENDBRANCH  12  16
ENDBRANCH   8   9
ENDBRANCH   1   8
TORSDOF 3
ENDMDL
MODEL 10
REMARK VINA RESULT:      -7.7      4.169      6.842
REMARK  3 active torsions:
REMARK  status: ('A' for Active; 'I' for Inactive)
REMARK    1  A    between atoms: C_7  and  C_8 
REMARK    2  A    between atoms: N_11  and  C_13 
REMARK    3  A    between atoms: C_13  and  C_14 
ROOT
HETATM    1  C   UNL     1      39.485 -13.074   1.252  1.00  0.00     0.080 A 
HETATM    2  O   UNL     1      39.269 -12.215   0.213  1.00  0.00    -0.302 OA
HETATM    3  C   UNL     1      39.524 -12.912  -0.931  1.00  0.00     0.155 A 
HETATM    4  C   UNL     1      39.361 -12.231  -2.165  1.00  0.00     0.125 C 
HETATM    5  N   UNL     1      39.208 -11.665  -3.165  1.00  0.00    -0.189 NA
HETATM    6  C   UNL     1      39.892 -14.206  -0.639  1.00  0.00     0.051 A 
HETATM    7  C   UNL     1      39.869 -14.311   0.775  1.00  0.00     0.038 A 
ENDROOT
BRANCH   1   8
HETATM    8  C   UNL     1      39.264 -12.534   2.616  1.00  0.00     0.299 C 
BRANCH   8   9
HETATM    9  N   UNL     1      40.499 -12.542   3.507  1.00  0.00    -0.065 N 
HETATM   10  C   UNL     1      40.560 -13.771   4.384  1.00  0.00     0.236 C 
HETATM   11  C   UNL     1      41.847 -13.771   5.197  1.00  0.00     0.037 C 
HETATM   12  C   UNL     1      43.084 -13.771   4.277  1.00  0.00     0.024 C 
HETATM   13  C   UNL     1      43.014 -12.480   3.461  1.00  0.00     0.037 C 
HETATM   14  C   UNL     1      41.728 -12.345   2.656  1.00  0.00     0.236 C 
HETATM   15  H   UNL     1      40.394 -11.731   4.132  1.00  0.00     0.280 HD
BRANCH  12  16
HETATM   16  C   UNL     1      43.191 -15.078   3.501  1.00  0.00    -0.026 A 
HETATM   17  C   UNL     1      43.392 -16.443   3.934  1.00  0.00    -0.001 A 
HETATM   18  C   UNL     1      43.556 -17.223   2.781  1.00  0.00     0.045 A 
HETATM   19  C   UNL     1      43.478 -17.115   5.179  1.00  0.00     0.017 A 
HETATM   20  C   UNL     1      43.868 -18.588   2.810  1.00  0.00     0.072 A 
HETATM   21  N   UNL     1      43.327 -16.413   1.698  1.00  0.00    -0.365 N 
HETATM   22  C   UNL     1      43.995 -19.190   4.056  1.00  0.00     0.118 A 
HETATM   23  C   UNL     1      43.791 -18.480   5.227  1.00  0.00     0.043 A 
HETATM   24  F   UNL     1      44.311 -20.489   4.125  1.00  0.00    -0.206 F 
HETATM   25  C   UNL     1      43.096 -15.136   2.117  1.00  0.00     0.096 A 
HETATM   26  H   UNL     1      43.320 -16.728   0.736  1.00  0.00     0.165 HD
ENDBRANCH  12  16
ENDBRANCH   8   9
ENDBRANCH   1   8
TORSDOF 3
ENDMDL
