MODEL 1
REMARK VINA RESULT:      -8.4      0.000      0.000
REMARK  4 active torsions:
REMARK  status: ('A' for Active; 'I' for Inactive)
REMARK    1  A    between atoms: C_10  and  C_11 
REMARK       I    between atoms: C_11  and  N_12 
REMARK    2  A    between atoms: N_12  and  N_13 
REMARK       I    between atoms: N_13  and  C_14 
REMARK    3  A    between atoms: C_14  and  C_15 
REMARK    4  A    between atoms: C_15  and  C_16 
ROOT
HETATM    1  C   UNL     1      42.948 -13.892   6.521  1.00  0.00     0.272 C 
HETATM    2  N   UNL     1      43.464 -12.628   6.336  1.00  0.00    -0.263 N 
HETATM    3  O   UNL     1      43.152 -14.513   7.566  1.00  0.00    -0.266 OA
HETATM    4  H   UNL     1      43.294 -12.058   5.509  1.00  0.00     0.190 HD
ENDROOT
BRANCH   2   5
HETATM    5  N   UNL     1      44.160 -12.021   7.390  1.00  0.00    -0.267 N 
HETATM    6  C   UNL     1      45.297 -11.298   7.102  1.00  0.00     0.240 C 
HETATM    7  O   UNL     1      45.757 -11.200   5.965  1.00  0.00    -0.272 OA
HETATM    8  H   UNL     1      43.793 -12.170   8.328  1.00  0.00     0.190 HD
BRANCH   6   9
HETATM    9  C   UNL     1      45.934 -10.628   8.304  1.00  0.00     0.143 C 
BRANCH   9  10
HETATM   10  C   UNL     1      45.009  -9.740   9.105  1.00  0.00    -0.049 A 
HETATM   11  C   UNL     1      44.704 -10.005  10.449  1.00  0.00     0.009 A 
HETATM   12  C   UNL     1      43.892  -9.133  11.180  1.00  0.00     0.024 A 
HETATM   13  C   UNL     1      43.394  -7.980  10.579  1.00  0.00     0.034 A 
HETATM   14 CL   UNL     1      42.406  -6.901  11.483  1.00  0.00    -0.084 Cl
HETATM   15  C   UNL     1      43.701  -7.691   9.252  1.00  0.00     0.024 A 
HETATM   16  C   UNL     1      44.509  -8.566   8.520  1.00  0.00     0.009 A 
ENDBRANCH   9  10
ENDBRANCH   6   9
ENDBRANCH   2   5
BRANCH   1  17
HETATM   17  C   UNL     1      42.162 -14.454   5.421  1.00  0.00     0.064 A 
HETATM   18  C   UNL     1      42.414 -15.541   4.510  1.00  0.00     0.046 A 
HETATM   19  C   UNL     1      43.463 -16.463   4.302  1.00  0.00     0.130 A 
HETATM   20  C   UNL     1      41.312 -15.635   3.650  1.00  0.00     0.046 A 
HETATM   21  C   UNL     1      43.394 -17.422   3.290  1.00  0.00     0.043 A 
HETATM   22  F   UNL     1      44.556 -16.437   5.076  1.00  0.00    -0.205 F 
HETATM   23  C   UNL     1      42.279 -17.484   2.462  1.00  0.00     0.005 A 
HETATM   24  C   UNL     1      41.217 -16.590   2.628  1.00  0.00     0.030 A 
HETATM   25  N   UNL     1      40.425 -14.652   4.014  1.00  0.00    -0.364 N 
HETATM   26  H   UNL     1      39.536 -14.482   3.562  1.00  0.00     0.165 HD
HETATM   27  C   UNL     1      40.924 -13.938   5.064  1.00  0.00     0.106 A 
ENDBRANCH   1  17
TORSDOF 4
ENDMDL
MODEL 2
REMARK VINA RESULT:      -8.3      1.909      2.342
REMARK  4 active torsions:
REMARK  status: ('A' for Active; 'I' for Inactive)
REMARK    1  A    between atoms: C_10  and  C_11 
REMARK       I    between atoms: C_11  and  N_12 
REMARK    2  A    between atoms: N_12  and  N_13 
REMARK       I    between atoms: N_13  and  C_14 
REMARK    3  A    between atoms: C_14  and  C_15 
REMARK    4  A    between atoms: C_15  and  C_16 
ROOT
HETATM    1  C   UNL     1      42.713 -14.548   6.268  1.00  0.00     0.272 C 
HETATM    2  N   UNL     1      43.431 -13.874   7.232  1.00  0.00    -0.263 N 
HETATM    3  O   UNL     1      41.810 -13.989   5.644  1.00  0.00    -0.266 OA
HETATM    4  H   UNL     1      44.211 -14.277   7.750  1.00  0.00     0.190 HD
ENDROOT
BRANCH   2   5
HETATM    5  N   UNL     1      43.172 -12.513   7.438  1.00  0.00    -0.267 N 
HETATM    6  C   UNL     1      44.161 -11.599   7.143  1.00  0.00     0.240 C 
HETATM    7  O   UNL     1      45.280 -11.929   6.752  1.00  0.00    -0.272 OA
HETATM    8  H   UNL     1      42.260 -12.272   7.821  1.00  0.00     0.190 HD
BRANCH   6   9
HETATM    9  C   UNL     1      43.754 -10.151   7.337  1.00  0.00     0.143 C 
BRANCH   9  10
HETATM   10  C   UNL     1      43.658  -9.703   8.778  1.00  0.00    -0.049 A 
HETATM   11  C   UNL     1      44.744  -9.802   9.661  1.00  0.00     0.009 A 
HETATM   12  C   UNL     1      44.643  -9.325  10.971  1.00  0.00     0.024 A 
HETATM   13  C   UNL     1      43.462  -8.727  11.402  1.00  0.00     0.034 A 
HETATM   14 CL   UNL     1      43.342  -8.127  13.010  1.00  0.00    -0.084 Cl
HETATM   15  C   UNL     1      42.380  -8.602  10.535  1.00  0.00     0.024 A 
HETATM   16  C   UNL     1      42.480  -9.084   9.226  1.00  0.00     0.009 A 
ENDBRANCH   9  10
ENDBRANCH   6   9
ENDBRANCH   2   5
BRANCH   1  17
HETATM   17  C   UNL     1      43.072 -15.949   6.035  1.00  0.00     0.064 A 
HETATM   18  C   UNL     1      43.294 -16.701   4.826  1.00  0.00     0.046 A 
HETATM   19  C   UNL     1      43.257 -16.424   3.442  1.00  0.00     0.130 A 
HETATM   20  C   UNL     1      43.607 -18.015   5.198  1.00  0.00     0.046 A 
HETATM   21  C   UNL     1      43.527 -17.416   2.498  1.00  0.00     0.043 A 
HETATM   22  F   UNL     1      42.959 -15.195   3.001  1.00  0.00    -0.205 F 
HETATM   23  C   UNL     1      43.839 -18.706   2.910  1.00  0.00     0.005 A 
HETATM   24  C   UNL     1      43.884 -19.029   4.269  1.00  0.00     0.030 A 
HETATM   25  N   UNL     1      43.578 -18.068   6.570  1.00  0.00    -0.364 N 
HETATM   26  H   UNL     1      43.763 -18.898   7.118  1.00  0.00     0.165 HD
HETATM   27  C   UNL     1      43.253 -16.845   7.079  1.00  0.00     0.106 A 
ENDBRANCH   1  17
TORSDOF 4
ENDMDL
MODEL 3
REMARK VINA RESULT:      -8.3      3.893      8.550
REMARK  4 active torsions:
REMARK  status: ('A' for Active; 'I' for Inactive)
REMARK    1  A    between atoms: C_10  and  C_11 
REMARK       I    between atoms: C_11  and  N_12 
REMARK    2  A    between atoms: N_12  and  N_13 
REMARK       I    between atoms: N_13  and  C_14 
REMARK    3  A    between atoms: C_14  and  C_15 
REMARK    4  A    between atoms: C_15  and  C_16 
ROOT
HETATM    1  C   UNL     1      43.325 -12.725   5.545  1.00  0.00     0.272 C 
HETATM    2  N   UNL     1      42.938 -12.739   4.222  1.00  0.00    -0.263 N 
HETATM    3  O   UNL     1      43.848 -13.713   6.063  1.00  0.00    -0.266 OA
HETATM    4  H   UNL     1      42.537 -11.939   3.736  1.00  0.00     0.190 HD
ENDROOT
BRANCH   2   5
HETATM    5  N   UNL     1      43.222 -13.872   3.448  1.00  0.00    -0.267 N 
HETATM    6  C   UNL     1      42.214 -14.780   3.209  1.00  0.00     0.240 C 
HETATM    7  O   UNL     1      41.085 -14.665   3.685  1.00  0.00    -0.272 OA
HETATM    8  H   UNL     1      44.180 -13.974   3.118  1.00  0.00     0.190 HD
BRANCH   6   9
HETATM    9  C   UNL     1      42.609 -15.931   2.305  1.00  0.00     0.143 C 
BRANCH   9  10
HETATM   10  C   UNL     1      43.175 -17.138   3.018  1.00  0.00    -0.049 A 
HETATM   11  C   UNL     1      43.600 -17.080   4.354  1.00  0.00     0.009 A 
HETATM   12  C   UNL     1      44.064 -18.227   5.005  1.00  0.00     0.024 A 
HETATM   13  C   UNL     1      44.087 -19.445   4.331  1.00  0.00     0.034 A 
HETATM   14 CL   UNL     1      44.644 -20.859   5.136  1.00  0.00    -0.084 Cl
HETATM   15  C   UNL     1      43.651 -19.527   3.011  1.00  0.00     0.024 A 
HETATM   16  C   UNL     1      43.192 -18.378   2.359  1.00  0.00     0.009 A 
ENDBRANCH   9  10
ENDBRANCH   6   9
ENDBRANCH   2   5
BRANCH   1  17
HETATM   17  C   UNL     1      43.077 -11.491   6.294  1.00  0.00     0.064 A 
HETATM   18  C   UNL     1      43.951 -10.620   7.038  1.00  0.00     0.046 A 
HETATM   19  C   UNL     1      45.329 -10.592   7.344  1.00  0.00     0.130 A 
HETATM   20  C   UNL     1      43.167  -9.582   7.559  1.00  0.00     0.046 A 
HETATM   21  C   UNL     1      45.876  -9.572   8.124  1.00  0.00     0.043 A 
HETATM   22  F   UNL     1      46.146 -11.551   6.892  1.00  0.00    -0.205 F 
HETATM   23  C   UNL     1      45.064  -8.557   8.617  1.00  0.00     0.005 A 
HETATM   24  C   UNL     1      43.694  -8.545   8.342  1.00  0.00     0.030 A 
HETATM   25  N   UNL     1      41.874  -9.804   7.155  1.00  0.00    -0.364 N 
HETATM   26  H   UNL     1      41.088  -9.212   7.388  1.00  0.00     0.165 HD
HETATM   27  C   UNL     1      41.807 -10.943   6.406  1.00  0.00     0.106 A 
ENDBRANCH   1  17
TORSDOF 4
ENDMDL
MODEL 4
REMARK VINA RESULT:      -8.2      6.867      9.085
REMARK  4 active torsions:
REMARK  status: ('A' for Active; 'I' for Inactive)
REMARK    1  A    between atoms: C_10  and  C_11 
REMARK       I    between atoms: C_11  and  N_12 
REMARK    2  A    between atoms: N_12  and  N_13 
REMARK       I    between atoms: N_13  and  C_14 
REMARK    3  A    between atoms: C_14  and  C_15 
REMARK    4  A    between atoms: C_15  and  C_16 
ROOT
HETATM    1  C   UNL     1      43.104 -16.005   2.523  1.00  0.00     0.272 C 
HETATM    2  N   UNL     1      41.912 -15.322   2.625  1.00  0.00    -0.263 N 
HETATM    3  O   UNL     1      43.838 -15.858   1.545  1.00  0.00    -0.266 OA
HETATM    4  H   UNL     1      41.288 -15.380   3.428  1.00  0.00     0.190 HD
ENDROOT
BRANCH   2   5
HETATM    5  N   UNL     1      41.580 -14.391   1.632  1.00  0.00    -0.267 N 
HETATM    6  C   UNL     1      40.451 -13.620   1.799  1.00  0.00     0.240 C 
HETATM    7  O   UNL     1      39.691 -13.746   2.759  1.00  0.00    -0.272 OA
HETATM    8  H   UNL     1      42.191 -14.350   0.819  1.00  0.00     0.190 HD
BRANCH   6   9
HETATM    9  C   UNL     1      40.222 -12.598   0.702  1.00  0.00     0.143 C 
BRANCH   9  10
HETATM   10  C   UNL     1      39.590 -13.145  -0.558  1.00  0.00    -0.049 A 
HETATM   11  C   UNL     1      39.071 -12.304  -1.553  1.00  0.00     0.009 A 
HETATM   12  C   UNL     1      38.544 -12.838  -2.733  1.00  0.00     0.024 A 
HETATM   13  C   UNL     1      38.552 -14.215  -2.935  1.00  0.00     0.034 A 
HETATM   14 CL   UNL     1      37.918 -14.870  -4.394  1.00  0.00    -0.084 Cl
HETATM   15  C   UNL     1      39.080 -15.064  -1.967  1.00  0.00     0.024 A 
HETATM   16  C   UNL     1      39.601 -14.530  -0.785  1.00  0.00     0.009 A 
ENDBRANCH   9  10
ENDBRANCH   6   9
ENDBRANCH   2   5
BRANCH   1  17
HETATM   17  C   UNL     1      43.444 -16.911   3.623  1.00  0.00     0.064 A 
HETATM   18  C   UNL     1      43.605 -18.342   3.682  1.00  0.00     0.046 A 
HETATM   19  C   UNL     1      43.503 -19.409   2.763  1.00  0.00     0.130 A 
HETATM   20  C   UNL     1      43.930 -18.675   5.003  1.00  0.00     0.046 A 
HETATM   21  C   UNL     1      43.723 -20.729   3.160  1.00  0.00     0.043 A 
HETATM   22  F   UNL     1      43.190 -19.177   1.482  1.00  0.00    -0.205 F 
HETATM   23  C   UNL     1      44.049 -21.016   4.481  1.00  0.00     0.005 A 
HETATM   24  C   UNL     1      44.157 -19.993   5.427  1.00  0.00     0.030 A 
HETATM   25  N   UNL     1      43.966 -17.506   5.722  1.00  0.00    -0.364 N 
HETATM   26  H   UNL     1      44.173 -17.444   6.710  1.00  0.00     0.165 HD
HETATM   27  C   UNL     1      43.672 -16.449   4.911  1.00  0.00     0.106 A 
ENDBRANCH   1  17
TORSDOF 4
ENDMDL
MODEL 5
REMARK VINA RESULT:      -8.1      1.467      1.966
REMARK  4 active torsions:
REMARK  status: ('A' for Active; 'I' for Inactive)
REMARK    1  A    between atoms: C_10  and  C_11 
REMARK       I    between atoms: C_11  and  N_12 
REMARK    2  A    between atoms: N_12  and  N_13 
REMARK       I    between atoms: N_13  and  C_14 
REMARK    3  A    between atoms: C_14  and  C_15 
REMARK    4  A    between atoms: C_15  and  C_16 
ROOT
HETATM    1  C   UNL     1      42.776 -13.642   6.675  1.00  0.00     0.272 C 
HETATM    2  N   UNL     1      43.079 -12.305   6.812  1.00  0.00    -0.263 N 
HETATM    3  O   UNL     1      43.295 -14.487   7.406  1.00  0.00    -0.266 OA
HETATM    4  H   UNL     1      42.651 -11.563   6.259  1.00  0.00     0.190 HD
ENDROOT
BRANCH   2   5
HETATM    5  N   UNL     1      43.929 -11.907   7.852  1.00  0.00    -0.267 N 
HETATM    6  C   UNL     1      43.935 -10.583   8.232  1.00  0.00     0.240 C 
HETATM    7  O   UNL     1      43.262  -9.722   7.667  1.00  0.00    -0.272 OA
HETATM    8  H   UNL     1      44.521 -12.627   8.261  1.00  0.00     0.190 HD
BRANCH   6   9
HETATM    9  C   UNL     1      44.838 -10.274   9.411  1.00  0.00     0.143 C 
BRANCH   9  10
HETATM   10  C   UNL     1      44.119  -9.893  10.684  1.00  0.00    -0.049 A 
HETATM   11  C   UNL     1      43.925  -8.555  11.056  1.00  0.00     0.009 A 
HETATM   12  C   UNL     1      43.205  -8.233  12.211  1.00  0.00     0.024 A 
HETATM   13  C   UNL     1      42.656  -9.247  12.991  1.00  0.00     0.034 A 
HETATM   14 CL   UNL     1      41.757  -8.851  14.403  1.00  0.00    -0.084 Cl
HETATM   15  C   UNL     1      42.821 -10.581  12.627  1.00  0.00     0.024 A 
HETATM   16  C   UNL     1      43.546 -10.902  11.476  1.00  0.00     0.009 A 
ENDBRANCH   9  10
ENDBRANCH   6   9
ENDBRANCH   2   5
BRANCH   1  17
HETATM   17  C   UNL     1      41.823 -14.001   5.623  1.00  0.00     0.064 A 
HETATM   18  C   UNL     1      41.875 -14.977   4.564  1.00  0.00     0.046 A 
HETATM   19  C   UNL     1      42.811 -15.935   4.118  1.00  0.00     0.130 A 
HETATM   20  C   UNL     1      40.677 -14.882   3.844  1.00  0.00     0.046 A 
HETATM   21  C   UNL     1      42.544 -16.749   3.016  1.00  0.00     0.043 A 
HETATM   22  F   UNL     1      43.984 -16.086   4.746  1.00  0.00    -0.205 F 
HETATM   23  C   UNL     1      41.340 -16.626   2.332  1.00  0.00     0.005 A 
HETATM   24  C   UNL     1      40.385 -15.689   2.735  1.00  0.00     0.030 A 
HETATM   25  N   UNL     1      39.925 -13.894   4.431  1.00  0.00    -0.364 N 
HETATM   26  H   UNL     1      39.008 -13.606   4.117  1.00  0.00     0.165 HD
HETATM   27  C   UNL     1      40.601 -13.358   5.488  1.00  0.00     0.106 A 
ENDBRANCH   1  17
TORSDOF 4
ENDMDL
MODEL 6
REMARK VINA RESULT:      -8.1      2.582      3.624
REMARK  4 active torsions:
REMARK  status: ('A' for Active; 'I' for Inactive)
REMARK    1  A    between atoms: C_10  and  C_11 
REMARK       I    between atoms: C_11  and  N_12 
REMARK    2  A    between atoms: N_12  and  N_13 
REMARK       I    between atoms: N_13  and  C_14 
REMARK    3  A    between atoms: C_14  and  C_15 
REMARK    4  A    between atoms: C_15  and  C_16 
ROOT
HETATM    1  C   UNL     1      43.215 -15.509   4.530  1.00  0.00     0.272 C 
HETATM    2  N   UNL     1      42.521 -14.497   3.905  1.00  0.00    -0.263 N 
HETATM    3  O   UNL     1      43.707 -15.344   5.648  1.00  0.00    -0.266 OA
HETATM    4  H   UNL     1      42.064 -14.593   2.999  1.00  0.00     0.190 HD
ENDROOT
BRANCH   2   5
HETATM    5  N   UNL     1      42.310 -13.296   4.595  1.00  0.00    -0.267 N 
HETATM    6  C   UNL     1      43.022 -12.180   4.212  1.00  0.00     0.240 C 
HETATM    7  O   UNL     1      43.871 -12.201   3.322  1.00  0.00    -0.272 OA
HETATM    8  H   UNL     1      41.648 -13.321   5.368  1.00  0.00     0.190 HD
BRANCH   6   9
HETATM    9  C   UNL     1      42.669 -10.919   4.978  1.00  0.00     0.143 C 
BRANCH   9  10
HETATM   10  C   UNL     1      43.343 -10.780   6.324  1.00  0.00    -0.049 A 
HETATM   11  C   UNL     1      44.625 -11.294   6.569  1.00  0.00     0.009 A 
HETATM   12  C   UNL     1      45.246 -11.099   7.806  1.00  0.00     0.024 A 
HETATM   13  C   UNL     1      44.599 -10.370   8.800  1.00  0.00     0.034 A 
HETATM   14 CL   UNL     1      45.370 -10.117  10.316  1.00  0.00    -0.084 Cl
HETATM   15  C   UNL     1      43.335  -9.834   8.568  1.00  0.00     0.024 A 
HETATM   16  C   UNL     1      42.712 -10.035   7.333  1.00  0.00     0.009 A 
ENDBRANCH   9  10
ENDBRANCH   6   9
ENDBRANCH   2   5
BRANCH   1  17
HETATM   17  C   UNL     1      43.344 -16.773   3.801  1.00  0.00     0.064 A 
HETATM   18  C   UNL     1      43.566 -18.126   4.244  1.00  0.00     0.046 A 
HETATM   19  C   UNL     1      43.747 -18.765   5.490  1.00  0.00     0.130 A 
HETATM   20  C   UNL     1      43.609 -18.941   3.105  1.00  0.00     0.046 A 
HETATM   21  C   UNL     1      43.952 -20.143   5.574  1.00  0.00     0.043 A 
HETATM   22  F   UNL     1      43.726 -18.058   6.627  1.00  0.00    -0.205 F 
HETATM   23  C   UNL     1      43.983 -20.916   4.419  1.00  0.00     0.005 A 
HETATM   24  C   UNL     1      43.812 -20.327   3.163  1.00  0.00     0.030 A 
HETATM   25  N   UNL     1      43.424 -18.127   2.014  1.00  0.00    -0.364 N 
HETATM   26  H   UNL     1      43.411 -18.446   1.055  1.00  0.00     0.165 HD
HETATM   27  C   UNL     1      43.272 -16.833   2.417  1.00  0.00     0.106 A 
ENDBRANCH   1  17
TORSDOF 4
ENDMDL
MODEL 7
REMARK VINA RESULT:      -8.0      2.159      2.607
REMARK  4 active torsions:
REMARK  status: ('A' for Active; 'I' for Inactive)
REMARK    1  A    between atoms: C_10  and  C_11 
REMARK       I    between atoms: C_11  and  N_12 
REMARK    2  A    between atoms: N_12  and  N_13 
REMARK       I    between atoms: N_13  and  C_14 
REMARK    3  A    between atoms: C_14  and  C_15 
REMARK    4  A    between atoms: C_15  and  C_16 
ROOT
HETATM    1  C   UNL     1      42.548 -13.324   6.189  1.00  0.00     0.272 C 
HETATM    2  N   UNL     1      43.427 -12.984   7.194  1.00  0.00    -0.263 N 
HETATM    3  O   UNL     1      41.618 -12.577   5.880  1.00  0.00    -0.266 OA
HETATM    4  H   UNL     1      44.232 -13.547   7.462  1.00  0.00     0.190 HD
ENDROOT
BRANCH   2   5
HETATM    5  N   UNL     1      43.297 -11.732   7.809  1.00  0.00    -0.267 N 
HETATM    6  C   UNL     1      44.437 -11.008   8.082  1.00  0.00     0.240 C 
HETATM    7  O   UNL     1      45.570 -11.432   7.853  1.00  0.00    -0.272 OA
HETATM    8  H   UNL     1      42.354 -11.432   8.044  1.00  0.00     0.190 HD
BRANCH   6   9
HETATM    9  C   UNL     1      44.181  -9.640   8.686  1.00  0.00     0.143 C 
BRANCH   9  10
HETATM   10  C   UNL     1      43.266  -9.635   9.889  1.00  0.00    -0.049 A 
HETATM   11  C   UNL     1      41.938  -9.189   9.810  1.00  0.00     0.009 A 
HETATM   12  C   UNL     1      41.098  -9.250  10.926  1.00  0.00     0.024 A 
HETATM   13  C   UNL     1      41.574  -9.776  12.124  1.00  0.00     0.034 A 
HETATM   14 CL   UNL     1      40.537  -9.865  13.493  1.00  0.00    -0.084 Cl
HETATM   15  C   UNL     1      42.883 -10.242  12.216  1.00  0.00     0.024 A 
HETATM   16  C   UNL     1      43.724 -10.175  11.101  1.00  0.00     0.009 A 
ENDBRANCH   9  10
ENDBRANCH   6   9
ENDBRANCH   2   5
BRANCH   1  17
HETATM   17  C   UNL     1      42.769 -14.609   5.522  1.00  0.00     0.064 A 
HETATM   18  C   UNL     1      42.949 -14.961   4.136  1.00  0.00     0.046 A 
HETATM   19  C   UNL     1      42.980 -14.259   2.911  1.00  0.00     0.130 A 
HETATM   20  C   UNL     1      43.117 -16.350   4.072  1.00  0.00     0.046 A 
HETATM   21  C   UNL     1      43.175 -14.925   1.701  1.00  0.00     0.043 A 
HETATM   22  F   UNL     1      42.820 -12.930   2.884  1.00  0.00    -0.205 F 
HETATM   23  C   UNL     1      43.344 -16.305   1.682  1.00  0.00     0.005 A 
HETATM   24  C   UNL     1      43.317 -17.042   2.869  1.00  0.00     0.030 A 
HETATM   25  N   UNL     1      43.044 -16.830   5.357  1.00  0.00    -0.364 N 
HETATM   26  H   UNL     1      43.129 -17.805   5.613  1.00  0.00     0.165 HD
HETATM   27  C   UNL     1      42.830 -15.802   6.228  1.00  0.00     0.106 A 
ENDBRANCH   1  17
TORSDOF 4
ENDMDL
MODEL 8
REMARK VINA RESULT:      -8.0      6.399      8.242
REMARK  4 active torsions:
REMARK  status: ('A' for Active; 'I' for Inactive)
REMARK    1  A    between atoms: C_10  and  C_11 
REMARK       I    between atoms: C_11  and  N_12 
REMARK    2  A    between atoms: N_12  and  N_13 
REMARK       I    between atoms: N_13  and  C_14 
REMARK    3  A    between atoms: C_14  and  C_15 
REMARK    4  A    between atoms: C_15  and  C_16 
ROOT
HETATM    1  C   UNL     1      42.984 -16.092   2.229  1.00  0.00     0.272 C 
HETATM    2  N   UNL     1      41.949 -15.187   2.330  1.00  0.00    -0.263 N 
HETATM    3  O   UNL     1      43.609 -16.225   1.176  1.00  0.00    -0.266 OA
HETATM    4  H   UNL     1      41.426 -15.012   3.186  1.00  0.00     0.190 HD
ENDROOT
BRANCH   2   5
HETATM    5  N   UNL     1      41.668 -14.359   1.236  1.00  0.00    -0.267 N 
HETATM    6  C   UNL     1      40.536 -14.607   0.491  1.00  0.00     0.240 C 
HETATM    7  O   UNL     1      39.783 -15.555   0.715  1.00  0.00    -0.272 OA
HETATM    8  H   UNL     1      42.339 -13.620   1.035  1.00  0.00     0.190 HD
BRANCH   6   9
HETATM    9  C   UNL     1      40.289 -13.612  -0.626  1.00  0.00     0.143 C 
BRANCH   9  10
HETATM   10  C   UNL     1      39.195 -12.605  -0.355  1.00  0.00    -0.049 A 
HETATM   11  C   UNL     1      38.300 -12.194  -1.353  1.00  0.00     0.009 A 
HETATM   12  C   UNL     1      37.262 -11.305  -1.058  1.00  0.00     0.024 A 
HETATM   13  C   UNL     1      37.099 -10.837   0.243  1.00  0.00     0.034 A 
HETATM   14 CL   UNL     1      35.813  -9.756   0.610  1.00  0.00    -0.084 Cl
HETATM   15  C   UNL     1      37.966 -11.249   1.252  1.00  0.00     0.024 A 
HETATM   16  C   UNL     1      39.006 -12.134   0.955  1.00  0.00     0.009 A 
ENDBRANCH   9  10
ENDBRANCH   6   9
ENDBRANCH   2   5
BRANCH   1  17
HETATM   17  C   UNL     1      43.291 -16.882   3.424  1.00  0.00     0.064 A 
HETATM   18  C   UNL     1      43.512 -18.292   3.619  1.00  0.00     0.046 A 
HETATM   19  C   UNL     1      43.521 -19.438   2.794  1.00  0.00     0.130 A 
HETATM   20  C   UNL     1      43.763 -18.495   4.982  1.00  0.00     0.046 A 
HETATM   21  C   UNL     1      43.774 -20.706   3.319  1.00  0.00     0.043 A 
HETATM   22  F   UNL     1      43.284 -19.332   1.480  1.00  0.00    -0.205 F 
HETATM   23  C   UNL     1      44.024 -20.863   4.677  1.00  0.00     0.005 A 
HETATM   24  C   UNL     1      44.022 -19.758   5.534  1.00  0.00     0.030 A 
HETATM   25  N   UNL     1      43.698 -17.268   5.596  1.00  0.00    -0.364 N 
HETATM   26  H   UNL     1      43.836 -17.112   6.586  1.00  0.00     0.165 HD
HETATM   27  C   UNL     1      43.411 -16.301   4.678  1.00  0.00     0.106 A 
ENDBRANCH   1  17
TORSDOF 4
ENDMDL
MODEL 9
REMARK VINA RESULT:      -7.6      6.253      8.636
REMARK  4 active torsions:
REMARK  status: ('A' for Active; 'I' for Inactive)
REMARK    1  A    between atoms: C_10  and  C_11 
REMARK       I    between atoms: C_11  and  N_12 
REMARK    2  A    between atoms: N_12  and  N_13 
REMARK       I    between atoms: N_13  and  C_14 
REMARK    3  A    between atoms: C_14  and  C_15 
REMARK    4  A    between atoms: C_15  and  C_16 
ROOT
HETATM    1  C   UNL     1      39.849 -13.620   1.881  1.00  0.00     0.272 C 
HETATM    2  N   UNL     1      40.501 -13.218   3.026  1.00  0.00    -0.263 N 
HETATM    3  O   UNL     1      39.896 -14.792   1.503  1.00  0.00    -0.266 OA
HETATM    4  H   UNL     1      40.464 -12.272   3.402  1.00  0.00     0.190 HD
ENDROOT
BRANCH   2   5
HETATM    5  N   UNL     1      41.155 -14.182   3.804  1.00  0.00    -0.267 N 
HETATM    6  C   UNL     1      42.530 -14.256   3.748  1.00  0.00     0.240 C 
HETATM    7  O   UNL     1      43.208 -13.544   3.008  1.00  0.00    -0.272 OA
HETATM    8  H   UNL     1      40.567 -14.800   4.360  1.00  0.00     0.190 HD
BRANCH   6   9
HETATM    9  C   UNL     1      43.140 -15.286   4.679  1.00  0.00     0.143 C 
BRANCH   9  10
HETATM   10  C   UNL     1      43.402 -16.637   4.053  1.00  0.00    -0.049 A 
HETATM   11  C   UNL     1      44.125 -17.637   4.719  1.00  0.00     0.009 A 
HETATM   12  C   UNL     1      44.301 -18.897   4.138  1.00  0.00     0.024 A 
HETATM   13  C   UNL     1      43.738 -19.171   2.895  1.00  0.00     0.034 A 
HETATM   14 CL   UNL     1      43.942 -20.725   2.186  1.00  0.00    -0.084 Cl
HETATM   15  C   UNL     1      43.001 -18.197   2.226  1.00  0.00     0.024 A 
HETATM   16  C   UNL     1      42.830 -16.937   2.806  1.00  0.00     0.009 A 
ENDBRANCH   9  10
ENDBRANCH   6   9
ENDBRANCH   2   5
BRANCH   1  17
HETATM   17  C   UNL     1      39.114 -12.591   1.141  1.00  0.00     0.064 A 
HETATM   18  C   UNL     1      38.995 -12.312  -0.267  1.00  0.00     0.046 A 
HETATM   19  C   UNL     1      39.510 -12.875  -1.456  1.00  0.00     0.130 A 
HETATM   20  C   UNL     1      38.161 -11.195  -0.407  1.00  0.00     0.046 A 
HETATM   21  C   UNL     1      39.192 -12.341  -2.705  1.00  0.00     0.043 A 
HETATM   22  F   UNL     1      40.320 -13.940  -1.410  1.00  0.00    -0.205 F 
HETATM   23  C   UNL     1      38.356 -11.234  -2.800  1.00  0.00     0.005 A 
HETATM   24  C   UNL     1      37.826 -10.641  -1.651  1.00  0.00     0.030 A 
HETATM   25  N   UNL     1      37.786 -10.805   0.855  1.00  0.00    -0.364 N 
HETATM   26  H   UNL     1      37.183 -10.019   1.059  1.00  0.00     0.165 HD
HETATM   27  C   UNL     1      38.353 -11.626   1.786  1.00  0.00     0.106 A 
ENDBRANCH   1  17
TORSDOF 4
ENDMDL
MODEL 10
REMARK VINA RESULT:      -7.5      4.525      8.896
REMARK  4 active torsions:
REMARK  status: ('A' for Active; 'I' for Inactive)
REMARK    1  A    between atoms: C_10  and  C_11 
REMARK       I    between atoms: C_11  and  N_12 
REMARK    2  A    between atoms: N_12  and  N_13 
REMARK       I    between atoms: N_13  and  C_14 
REMARK    3  A    between atoms: C_14  and  C_15 
REMARK    4  A    between atoms: C_15  and  C_16 
ROOT
HETATM    1  C   UNL     1      41.760  -9.493   9.938  1.00  0.00     0.272 C 
HETATM    2  N   UNL     1      42.854 -10.313   9.763  1.00  0.00    -0.263 N 
HETATM    3  O   UNL     1      41.269  -8.881   8.988  1.00  0.00    -0.266 OA
HETATM    4  H   UNL     1      43.275 -10.869  10.506  1.00  0.00     0.190 HD
ENDROOT
BRANCH   2   5
HETATM    5  N   UNL     1      43.354 -10.504   8.469  1.00  0.00    -0.267 N 
HETATM    6  C   UNL     1      44.689 -10.811   8.314  1.00  0.00     0.240 C 
HETATM    7  O   UNL     1      45.473 -10.878   9.259  1.00  0.00    -0.272 OA
HETATM    8  H   UNL     1      42.698 -10.382   7.700  1.00  0.00     0.190 HD
BRANCH   6   9
HETATM    9  C   UNL     1      45.110 -11.065   6.879  1.00  0.00     0.143 C 
BRANCH   9  10
HETATM   10  C   UNL     1      44.294 -12.107   6.148  1.00  0.00    -0.049 A 
HETATM   11  C   UNL     1      44.061 -13.380   6.688  1.00  0.00     0.009 A 
HETATM   12  C   UNL     1      43.254 -14.302   6.015  1.00  0.00     0.024 A 
HETATM   13  C   UNL     1      42.657 -13.950   4.807  1.00  0.00     0.034 A 
HETATM   14 CL   UNL     1      41.652 -15.079   3.986  1.00  0.00    -0.084 Cl
HETATM   15  C   UNL     1      42.862 -12.684   4.265  1.00  0.00     0.024 A 
HETATM   16  C   UNL     1      43.673 -11.764   4.936  1.00  0.00     0.009 A 
ENDBRANCH   9  10
ENDBRANCH   6   9
ENDBRANCH   2   5
BRANCH   1  17
HETATM   17  C   UNL     1      41.224  -9.384  11.297  1.00  0.00     0.064 A 
HETATM   18  C   UNL     1      41.728  -8.745  12.486  1.00  0.00     0.046 A 
HETATM   19  C   UNL     1      42.881  -8.005  12.824  1.00  0.00     0.130 A 
HETATM   20  C   UNL     1      40.797  -8.966  13.509  1.00  0.00     0.046 A 
HETATM   21  C   UNL     1      43.073  -7.515  14.116  1.00  0.00     0.043 A 
HETATM   22  F   UNL     1      43.824  -7.755  11.905  1.00  0.00    -0.205 F 
HETATM   23  C   UNL     1      42.122  -7.751  15.102  1.00  0.00     0.005 A 
HETATM   24  C   UNL     1      40.966  -8.482  14.815  1.00  0.00     0.030 A 
HETATM   25  N   UNL     1      39.771  -9.706  12.975  1.00  0.00    -0.364 N 
HETATM   26  H   UNL     1      38.957 -10.016  13.490  1.00  0.00     0.165 HD
HETATM   27  C   UNL     1      40.018  -9.967  11.659  1.00  0.00     0.106 A 
ENDBRANCH   1  17
TORSDOF 4
ENDMDL
