MODEL 1
REMARK VINA RESULT:      -7.8      0.000      0.000
REMARK  6 active torsions:
REMARK  status: ('A' for Active; 'I' for Inactive)
REMARK    1  A    between atoms: N_2  and  C_4 
REMARK    2  A    between atoms: C_4  and  C_5 
REMARK    3  A    between atoms: C_5  and  N_6 
REMARK    4  A    between atoms: C_5  and  C_21 
REMARK       I    between atoms: N_6  and  C_7 
REMARK       I    between atoms: C_7  and  N_8 
REMARK    5  A    between atoms: N_8  and  C_9 
REMARK    6  A    between atoms: C_12  and  C_13 
ROOT
HETATM    1  N   UNL     1      42.153 -12.646   3.382  1.00  0.00    -0.333 N 
HETATM    2  C   UNL     1      42.775 -11.447   3.191  1.00  0.00     0.322 C 
HETATM    3  N   UNL     1      42.313 -10.644   2.200  1.00  0.00    -0.287 N 
HETATM    4  O   UNL     1      43.710 -11.088   3.904  1.00  0.00    -0.247 OA
HETATM    5  H   UNL     1      41.658 -12.978   2.557  1.00  0.00     0.165 HD
HETATM    6  H   UNL     1      42.832  -9.794   2.026  1.00  0.00     0.172 HD
ENDROOT
BRANCH   1   7
HETATM    7  C   UNL     1      42.721 -13.644   4.279  1.00  0.00     0.145 C 
BRANCH   7   8
HETATM    8  C   UNL     1      41.918 -13.825   5.610  1.00  0.00     0.263 C 
BRANCH   8   9
HETATM    9  N   UNL     1      42.767 -13.672   6.880  1.00  0.00    -0.076 N 
HETATM   10  C   UNL     1      44.106 -13.034   6.634  1.00  0.00     0.269 C 
HETATM   11  H   UNL     1      42.247 -13.055   7.518  1.00  0.00     0.279 HD
HETATM   12  C   UNL     1      42.918 -14.990   7.587  1.00  0.00     0.269 C 
ENDBRANCH   8   9
ENDBRANCH   7   8
BRANCH   7  13
HETATM   13  C   UNL     1      42.934 -14.990   3.599  1.00  0.00    -0.034 A 
HETATM   14  C   UNL     1      43.085 -16.188   4.317  1.00  0.00     0.009 A 
HETATM   15  C   UNL     1      43.319 -17.394   3.656  1.00  0.00     0.001 A 
HETATM   16  C   UNL     1      43.414 -17.423   2.268  1.00  0.00     0.000 A 
HETATM   17  C   UNL     1      43.268 -16.246   1.538  1.00  0.00     0.001 A 
HETATM   18  C   UNL     1      43.028 -15.039   2.196  1.00  0.00     0.009 A 
ENDBRANCH   7  13
ENDBRANCH   1   7
BRANCH   3  19
HETATM   19  C   UNL     1      41.200 -10.867   1.442  1.00  0.00     0.175 A 
HETATM   20  S   UNL     1      39.822  -9.986   1.906  1.00  0.00    -0.061 SA
HETATM   21  C   UNL     1      38.945 -10.733   0.631  1.00  0.00     0.086 A 
HETATM   22  C   UNL     1      39.765 -11.617  -0.048  1.00  0.00     0.078 A 
HETATM   23  N   UNL     1      41.073 -11.682   0.424  1.00  0.00    -0.223 NA
BRANCH  22  24
HETATM   24  C   UNL     1      39.327 -12.464  -1.143  1.00  0.00     0.011 A 
HETATM   25  C   UNL     1      40.267 -13.182  -1.877  1.00  0.00     0.130 A 
HETATM   26  N   UNL     1      39.978 -13.993  -2.923  1.00  0.00    -0.272 NA
HETATM   27  C   UNL     1      38.672 -14.104  -3.250  1.00  0.00     0.116 A 
HETATM   28  C   UNL     1      37.655 -13.437  -2.584  1.00  0.00     0.020 A 
HETATM   29  C   UNL     1      37.990 -12.603  -1.517  1.00  0.00     0.017 A 
ENDBRANCH  22  24
ENDBRANCH   3  19
TORSDOF 6
ENDMDL
MODEL 2
REMARK VINA RESULT:      -7.8      3.337      6.813
REMARK  6 active torsions:
REMARK  status: ('A' for Active; 'I' for Inactive)
REMARK    1  A    between atoms: N_2  and  C_4 
REMARK    2  A    between atoms: C_4  and  C_5 
REMARK    3  A    between atoms: C_5  and  N_6 
REMARK    4  A    between atoms: C_5  and  C_21 
REMARK       I    between atoms: N_6  and  C_7 
REMARK       I    between atoms: C_7  and  N_8 
REMARK    5  A    between atoms: N_8  and  C_9 
REMARK    6  A    between atoms: C_12  and  C_13 
ROOT
HETATM    1  N   UNL     1      40.587 -13.733   4.757  1.00  0.00    -0.333 N 
HETATM    2  C   UNL     1      40.173 -13.687   6.056  1.00  0.00     0.322 C 
HETATM    3  N   UNL     1      40.702 -14.590   6.921  1.00  0.00    -0.287 N 
HETATM    4  O   UNL     1      39.367 -12.846   6.444  1.00  0.00    -0.247 OA
HETATM    5  H   UNL     1      40.959 -14.641   4.485  1.00  0.00     0.165 HD
HETATM    6  H   UNL     1      40.329 -14.588   7.861  1.00  0.00     0.172 HD
ENDROOT
BRANCH   1   7
HETATM    7  C   UNL     1      39.914 -12.943   3.734  1.00  0.00     0.145 C 
BRANCH   7   8
HETATM    8  C   UNL     1      40.443 -11.475   3.622  1.00  0.00     0.263 C 
BRANCH   8   9
HETATM    9  N   UNL     1      41.868 -11.280   4.159  1.00  0.00    -0.076 N 
HETATM   10  C   UNL     1      42.030 -10.041   4.994  1.00  0.00     0.269 C 
HETATM   11  H   UNL     1      42.076 -12.086   4.765  1.00  0.00     0.279 HD
HETATM   12  C   UNL     1      42.872 -11.314   3.042  1.00  0.00     0.269 C 
ENDBRANCH   8   9
ENDBRANCH   7   8
BRANCH   7  13
HETATM   13  C   UNL     1      39.925 -13.619   2.369  1.00  0.00    -0.034 A 
HETATM   14  C   UNL     1      39.840 -12.899   1.166  1.00  0.00     0.009 A 
HETATM   15  C   UNL     1      39.812 -13.560  -0.063  1.00  0.00     0.001 A 
HETATM   16  C   UNL     1      39.864 -14.951  -0.110  1.00  0.00     0.000 A 
HETATM   17  C   UNL     1      39.949 -15.682   1.073  1.00  0.00     0.001 A 
HETATM   18  C   UNL     1      39.982 -15.023   2.302  1.00  0.00     0.009 A 
ENDBRANCH   7  13
ENDBRANCH   1   7
BRANCH   3  19
HETATM   19  C   UNL     1      41.704 -15.473   6.644  1.00  0.00     0.175 A 
HETATM   20  S   UNL     1      43.034 -15.412   7.703  1.00  0.00    -0.061 SA
HETATM   21  C   UNL     1      43.783 -16.664   6.794  1.00  0.00     0.086 A 
HETATM   22  C   UNL     1      42.970 -17.026   5.735  1.00  0.00     0.078 A 
HETATM   23  N   UNL     1      41.764 -16.337   5.661  1.00  0.00    -0.223 NA
BRANCH  22  24
HETATM   24  C   UNL     1      43.326 -18.012   4.730  1.00  0.00     0.011 A 
HETATM   25  C   UNL     1      43.850 -19.240   5.124  1.00  0.00     0.130 A 
HETATM   26  N   UNL     1      44.226 -20.229   4.279  1.00  0.00    -0.272 NA
HETATM   27  C   UNL     1      44.059 -19.985   2.960  1.00  0.00     0.116 A 
HETATM   28  C   UNL     1      43.545 -18.798   2.460  1.00  0.00     0.020 A 
HETATM   29  C   UNL     1      43.176 -17.797   3.359  1.00  0.00     0.017 A 
ENDBRANCH  22  24
ENDBRANCH   3  19
TORSDOF 6
ENDMDL
MODEL 3
REMARK VINA RESULT:      -7.7      2.509      3.210
REMARK  6 active torsions:
REMARK  status: ('A' for Active; 'I' for Inactive)
REMARK    1  A    between atoms: N_2  and  C_4 
REMARK    2  A    between atoms: C_4  and  C_5 
REMARK    3  A    between atoms: C_5  and  N_6 
REMARK    4  A    between atoms: C_5  and  C_21 
REMARK       I    between atoms: N_6  and  C_7 
REMARK       I    between atoms: C_7  and  N_8 
REMARK    5  A    between atoms: N_8  and  C_9 
REMARK    6  A    between atoms: C_12  and  C_13 
ROOT
HETATM    1  N   UNL     1      42.420 -15.792   3.834  1.00  0.00    -0.333 N 
HETATM    2  C   UNL     1      41.228 -16.007   4.464  1.00  0.00     0.322 C 
HETATM    3  N   UNL     1      40.187 -15.199   4.142  1.00  0.00    -0.287 N 
HETATM    4  O   UNL     1      41.088 -16.915   5.280  1.00  0.00    -0.247 OA
HETATM    5  H   UNL     1      42.516 -14.847   3.469  1.00  0.00     0.165 HD
HETATM    6  H   UNL     1      39.335 -15.326   4.671  1.00  0.00     0.172 HD
ENDROOT
BRANCH   1   7
HETATM    7  C   UNL     1      43.628 -16.475   4.276  1.00  0.00     0.145 C 
BRANCH   7   8
HETATM    8  C   UNL     1      43.927 -16.303   5.802  1.00  0.00     0.263 C 
BRANCH   8   9
HETATM    9  N   UNL     1      43.206 -15.113   6.452  1.00  0.00    -0.076 N 
HETATM   10  C   UNL     1      43.965 -13.820   6.344  1.00  0.00     0.269 C 
HETATM   11  H   UNL     1      42.316 -14.989   5.950  1.00  0.00     0.279 HD
HETATM   12  C   UNL     1      42.853 -15.415   7.881  1.00  0.00     0.269 C 
ENDBRANCH   8   9
ENDBRANCH   7   8
BRANCH   7  13
HETATM   13  C   UNL     1      43.642 -17.950   3.895  1.00  0.00    -0.034 A 
HETATM   14  C   UNL     1      44.034 -18.961   4.787  1.00  0.00     0.009 A 
HETATM   15  C   UNL     1      44.072 -20.296   4.384  1.00  0.00     0.001 A 
HETATM   16  C   UNL     1      43.724 -20.643   3.082  1.00  0.00     0.000 A 
HETATM   17  C   UNL     1      43.333 -19.654   2.181  1.00  0.00     0.001 A 
HETATM   18  C   UNL     1      43.290 -18.319   2.584  1.00  0.00     0.009 A 
ENDBRANCH   7  13
ENDBRANCH   1   7
BRANCH   3  19
HETATM   19  C   UNL     1      40.179 -14.258   3.154  1.00  0.00     0.175 A 
HETATM   20  S   UNL     1      39.825 -12.675   3.667  1.00  0.00    -0.061 SA
HETATM   21  C   UNL     1      39.980 -12.140   2.041  1.00  0.00     0.086 A 
HETATM   22  C   UNL     1      40.274 -13.213   1.220  1.00  0.00     0.078 A 
HETATM   23  N   UNL     1      40.397 -14.435   1.875  1.00  0.00    -0.223 NA
BRANCH  22  24
HETATM   24  C   UNL     1      40.410 -13.127  -0.224  1.00  0.00     0.011 A 
HETATM   25  C   UNL     1      40.991 -11.998  -0.795  1.00  0.00     0.130 A 
HETATM   26  N   UNL     1      41.161 -11.802  -2.124  1.00  0.00    -0.272 NA
HETATM   27  C   UNL     1      40.736 -12.797  -2.933  1.00  0.00     0.116 A 
HETATM   28  C   UNL     1      40.146 -13.963  -2.471  1.00  0.00     0.020 A 
HETATM   29  C   UNL     1      39.979 -14.128  -1.095  1.00  0.00     0.017 A 
ENDBRANCH  22  24
ENDBRANCH   3  19
TORSDOF 6
ENDMDL
MODEL 4
REMARK VINA RESULT:      -7.5      2.548      7.192
REMARK  6 active torsions:
REMARK  status: ('A' for Active; 'I' for Inactive)
REMARK    1  A    between atoms: N_2  and  C_4 
REMARK    2  A    between atoms: C_4  and  C_5 
REMARK    3  A    between atoms: C_5  and  N_6 
REMARK    4  A    between atoms: C_5  and  C_21 
REMARK       I    between atoms: N_6  and  C_7 
REMARK       I    between atoms: C_7  and  N_8 
REMARK    5  A    between atoms: N_8  and  C_9 
REMARK    6  A    between atoms: C_12  and  C_13 
ROOT
HETATM    1  N   UNL     1      40.029 -12.581   1.353  1.00  0.00    -0.333 N 
HETATM    2  C   UNL     1      39.041 -12.587   2.295  1.00  0.00     0.322 C 
HETATM    3  N   UNL     1      39.232 -13.338   3.409  1.00  0.00    -0.287 N 
HETATM    4  O   UNL     1      38.019 -11.919   2.157  1.00  0.00    -0.247 OA
HETATM    5  H   UNL     1      40.632 -13.399   1.399  1.00  0.00     0.165 HD
HETATM    6  H   UNL     1      38.460 -13.388   4.059  1.00  0.00     0.172 HD
ENDROOT
BRANCH   1   7
HETATM    7  C   UNL     1      39.808 -11.974   0.048  1.00  0.00     0.145 C 
BRANCH   7   8
HETATM    8  C   UNL     1      41.080 -11.289  -0.553  1.00  0.00     0.263 C 
BRANCH   8   9
HETATM    9  N   UNL     1      40.800  -9.951  -1.252  1.00  0.00    -0.076 N 
HETATM   10  C   UNL     1      40.808 -10.045  -2.752  1.00  0.00     0.269 C 
HETATM   11  H   UNL     1      39.856  -9.654  -0.968  1.00  0.00     0.279 HD
HETATM   12  C   UNL     1      41.746  -8.886  -0.771  1.00  0.00     0.269 C 
ENDBRANCH   8   9
ENDBRANCH   7   8
BRANCH   7  13
HETATM   13  C   UNL     1      39.203 -12.947  -0.957  1.00  0.00    -0.034 A 
HETATM   14  C   UNL     1      39.719 -14.235  -1.170  1.00  0.00     0.009 A 
HETATM   15  C   UNL     1      39.161 -15.080  -2.130  1.00  0.00     0.001 A 
HETATM   16  C   UNL     1      38.081 -14.649  -2.897  1.00  0.00     0.000 A 
HETATM   17  C   UNL     1      37.556 -13.375  -2.701  1.00  0.00     0.001 A 
HETATM   18  C   UNL     1      38.110 -12.530  -1.738  1.00  0.00     0.009 A 
ENDBRANCH   7  13
ENDBRANCH   1   7
BRANCH   3  19
HETATM   19  C   UNL     1      40.377 -14.002   3.739  1.00  0.00     0.175 A 
HETATM   20  S   UNL     1      41.450 -13.141   4.739  1.00  0.00    -0.061 SA
HETATM   21  C   UNL     1      42.522 -14.483   4.704  1.00  0.00     0.086 A 
HETATM   22  C   UNL     1      41.991 -15.488   3.915  1.00  0.00     0.078 A 
HETATM   23  N   UNL     1      40.743 -15.204   3.368  1.00  0.00    -0.223 NA
BRANCH  22  24
HETATM   24  C   UNL     1      42.666 -16.739   3.619  1.00  0.00     0.011 A 
HETATM   25  C   UNL     1      43.590 -17.255   4.523  1.00  0.00     0.130 A 
HETATM   26  N   UNL     1      44.286 -18.404   4.350  1.00  0.00    -0.272 NA
HETATM   27  C   UNL     1      44.037 -19.087   3.211  1.00  0.00     0.116 A 
HETATM   28  C   UNL     1      43.135 -18.666   2.245  1.00  0.00     0.020 A 
HETATM   29  C   UNL     1      42.442 -17.473   2.453  1.00  0.00     0.017 A 
ENDBRANCH  22  24
ENDBRANCH   3  19
TORSDOF 6
ENDMDL
MODEL 5
REMARK VINA RESULT:      -7.0     16.369     18.130
REMARK  6 active torsions:
REMARK  status: ('A' for Active; 'I' for Inactive)
REMARK    1  A    between atoms: N_2  and  C_4 
REMARK    2  A    between atoms: C_4  and  C_5 
REMARK    3  A    between atoms: C_5  and  N_6 
REMARK    4  A    between atoms: C_5  and  C_21 
REMARK       I    between atoms: N_6  and  C_7 
REMARK       I    between atoms: C_7  and  N_8 
REMARK    5  A    between atoms: N_8  and  C_9 
REMARK    6  A    between atoms: C_12  and  C_13 
ROOT
HETATM    1  N   UNL     1      47.907 -29.605   0.906  1.00  0.00    -0.333 N 
HETATM    2  C   UNL     1      47.305 -28.474   1.376  1.00  0.00     0.322 C 
HETATM    3  N   UNL     1      46.134 -28.095   0.805  1.00  0.00    -0.287 N 
HETATM    4  O   UNL     1      47.790 -27.826   2.302  1.00  0.00    -0.247 OA
HETATM    5  H   UNL     1      47.625 -29.846  -0.042  1.00  0.00     0.165 HD
HETATM    6  H   UNL     1      45.742 -27.216   1.116  1.00  0.00     0.172 HD
ENDROOT
BRANCH   1   7
HETATM    7  C   UNL     1      49.259 -29.955   1.320  1.00  0.00     0.145 C 
BRANCH   7   8
HETATM    8  C   UNL     1      49.311 -30.967   2.512  1.00  0.00     0.263 C 
BRANCH   8   9
HETATM    9  N   UNL     1      49.301 -30.305   3.898  1.00  0.00    -0.076 N 
HETATM   10  C   UNL     1      50.471 -30.693   4.757  1.00  0.00     0.269 C 
HETATM   11  H   UNL     1      49.356 -29.288   3.747  1.00  0.00     0.279 HD
HETATM   12  C   UNL     1      48.000 -30.563   4.605  1.00  0.00     0.269 C 
ENDBRANCH   8   9
ENDBRANCH   7   8
BRANCH   7  13
HETATM   13  C   UNL     1      50.117 -30.451   0.163  1.00  0.00    -0.034 A 
HETATM   14  C   UNL     1      51.175 -31.358   0.338  1.00  0.00     0.009 A 
HETATM   15  C   UNL     1      51.963 -31.755  -0.743  1.00  0.00     0.001 A 
HETATM   16  C   UNL     1      51.710 -31.249  -2.015  1.00  0.00     0.000 A 
HETATM   17  C   UNL     1      50.666 -30.348  -2.208  1.00  0.00     0.001 A 
HETATM   18  C   UNL     1      49.874 -29.953  -1.130  1.00  0.00     0.009 A 
ENDBRANCH   7  13
ENDBRANCH   1   7
BRANCH   3  19
HETATM   19  C   UNL     1      45.430 -28.805  -0.124  1.00  0.00     0.175 A 
HETATM   20  S   UNL     1      43.988 -29.506   0.444  1.00  0.00    -0.061 SA
HETATM   21  C   UNL     1      43.717 -30.158  -1.123  1.00  0.00     0.086 A 
HETATM   22  C   UNL     1      44.758 -29.807  -1.964  1.00  0.00     0.078 A 
HETATM   23  N   UNL     1      45.742 -29.015  -1.379  1.00  0.00    -0.223 NA
BRANCH  22  24
HETATM   24  C   UNL     1      44.879 -30.244  -3.344  1.00  0.00     0.011 A 
HETATM   25  C   UNL     1      45.978 -31.005  -3.732  1.00  0.00     0.130 A 
HETATM   26  N   UNL     1      46.201 -31.459  -4.988  1.00  0.00    -0.272 NA
HETATM   27  C   UNL     1      45.267 -31.144  -5.912  1.00  0.00     0.116 A 
HETATM   28  C   UNL     1      44.135 -30.395  -5.633  1.00  0.00     0.020 A 
HETATM   29  C   UNL     1      43.940 -29.936  -4.330  1.00  0.00     0.017 A 
ENDBRANCH  22  24
ENDBRANCH   3  19
TORSDOF 6
ENDMDL
MODEL 6
REMARK VINA RESULT:      -7.0     16.256     18.113
REMARK  6 active torsions:
REMARK  status: ('A' for Active; 'I' for Inactive)
REMARK    1  A    between atoms: N_2  and  C_4 
REMARK    2  A    between atoms: C_4  and  C_5 
REMARK    3  A    between atoms: C_5  and  N_6 
REMARK    4  A    between atoms: C_5  and  C_21 
REMARK       I    between atoms: N_6  and  C_7 
REMARK       I    between atoms: C_7  and  N_8 
REMARK    5  A    between atoms: N_8  and  C_9 
REMARK    6  A    between atoms: C_12  and  C_13 
ROOT
HETATM    1  N   UNL     1      48.632 -29.927   1.828  1.00  0.00    -0.333 N 
HETATM    2  C   UNL     1      48.231 -28.969   2.713  1.00  0.00     0.322 C 
HETATM    3  N   UNL     1      47.018 -28.393   2.517  1.00  0.00    -0.287 N 
HETATM    4  O   UNL     1      48.930 -28.649   3.672  1.00  0.00    -0.247 OA
HETATM    5  H   UNL     1      48.165 -29.861   0.925  1.00  0.00     0.165 HD
HETATM    6  H   UNL     1      46.771 -27.636   3.139  1.00  0.00     0.172 HD
ENDROOT
BRANCH   1   7
HETATM    7  C   UNL     1      49.997 -30.435   1.849  1.00  0.00     0.145 C 
BRANCH   7   8
HETATM    8  C   UNL     1      50.186 -31.698   2.753  1.00  0.00     0.263 C 
BRANCH   8   9
HETATM    9  N   UNL     1      50.060 -31.416   4.257  1.00  0.00    -0.076 N 
HETATM   10  C   UNL     1      51.366 -31.068   4.914  1.00  0.00     0.269 C 
HETATM   11  H   UNL     1      49.438 -30.602   4.360  1.00  0.00     0.279 HD
HETATM   12  C   UNL     1      49.387 -32.561   4.962  1.00  0.00     0.269 C 
ENDBRANCH   8   9
ENDBRANCH   7   8
BRANCH   7  13
HETATM   13  C   UNL     1      50.549 -30.694   0.452  1.00  0.00    -0.034 A 
HETATM   14  C   UNL     1      50.083 -30.013  -0.685  1.00  0.00     0.009 A 
HETATM   15  C   UNL     1      50.587 -30.310  -1.952  1.00  0.00     0.001 A 
HETATM   16  C   UNL     1      51.559 -31.294  -2.105  1.00  0.00     0.000 A 
HETATM   17  C   UNL     1      52.033 -31.980  -0.989  1.00  0.00     0.001 A 
HETATM   18  C   UNL     1      51.535 -31.681   0.279  1.00  0.00     0.009 A 
ENDBRANCH   7  13
ENDBRANCH   1   7
BRANCH   3  19
HETATM   19  C   UNL     1      46.098 -28.764   1.581  1.00  0.00     0.175 A 
HETATM   20  S   UNL     1      44.699 -29.509   2.199  1.00  0.00    -0.061 SA
HETATM   21  C   UNL     1      44.105 -29.669   0.593  1.00  0.00     0.086 A 
HETATM   22  C   UNL     1      45.028 -29.156  -0.301  1.00  0.00     0.078 A 
HETATM   23  N   UNL     1      46.175 -28.626   0.280  1.00  0.00    -0.223 NA
BRANCH  22  24
HETATM   24  C   UNL     1      44.873 -29.188  -1.745  1.00  0.00     0.011 A 
HETATM   25  C   UNL     1      44.284 -30.294  -2.351  1.00  0.00     0.130 A 
HETATM   26  N   UNL     1      44.097 -30.438  -3.684  1.00  0.00    -0.272 NA
HETATM   27  C   UNL     1      44.511 -29.413  -4.461  1.00  0.00     0.116 A 
HETATM   28  C   UNL     1      45.106 -28.265  -3.962  1.00  0.00     0.020 A 
HETATM   29  C   UNL     1      45.292 -28.153  -2.583  1.00  0.00     0.017 A 
ENDBRANCH  22  24
ENDBRANCH   3  19
TORSDOF 6
ENDMDL
MODEL 7
REMARK VINA RESULT:      -6.9      2.573      3.654
REMARK  6 active torsions:
REMARK  status: ('A' for Active; 'I' for Inactive)
REMARK    1  A    between atoms: N_2  and  C_4 
REMARK    2  A    between atoms: C_4  and  C_5 
REMARK    3  A    between atoms: C_5  and  N_6 
REMARK    4  A    between atoms: C_5  and  C_21 
REMARK       I    between atoms: N_6  and  C_7 
REMARK       I    between atoms: C_7  and  N_8 
REMARK    5  A    between atoms: N_8  and  C_9 
REMARK    6  A    between atoms: C_12  and  C_13 
ROOT
HETATM    1  N   UNL     1      41.795 -14.426   2.209  1.00  0.00    -0.333 N 
HETATM    2  C   UNL     1      40.502 -14.836   2.356  1.00  0.00     0.322 C 
HETATM    3  N   UNL     1      39.588 -14.377   1.465  1.00  0.00    -0.287 N 
HETATM    4  O   UNL     1      40.172 -15.613   3.248  1.00  0.00    -0.247 OA
HETATM    5  H   UNL     1      41.885 -13.555   1.690  1.00  0.00     0.165 HD
HETATM    6  H   UNL     1      38.624 -14.632   1.632  1.00  0.00     0.172 HD
ENDROOT
BRANCH   1   7
HETATM    7  C   UNL     1      42.785 -14.705   3.242  1.00  0.00     0.145 C 
BRANCH   7   8
HETATM    8  C   UNL     1      42.369 -14.207   4.665  1.00  0.00     0.263 C 
BRANCH   8   9
HETATM    9  N   UNL     1      43.306 -13.144   5.257  1.00  0.00    -0.076 N 
HETATM   10  C   UNL     1      43.695 -13.415   6.683  1.00  0.00     0.269 C 
HETATM   11  H   UNL     1      44.169 -13.158   4.696  1.00  0.00     0.279 HD
HETATM   12  C   UNL     1      42.720 -11.769   5.107  1.00  0.00     0.269 C 
ENDBRANCH   8   9
ENDBRANCH   7   8
BRANCH   7  13
HETATM   13  C   UNL     1      43.187 -16.174   3.288  1.00  0.00    -0.034 A 
HETATM   14  C   UNL     1      43.146 -17.007   2.159  1.00  0.00     0.009 A 
HETATM   15  C   UNL     1      43.483 -18.358   2.254  1.00  0.00     0.001 A 
HETATM   16  C   UNL     1      43.862 -18.899   3.480  1.00  0.00     0.000 A 
HETATM   17  C   UNL     1      43.908 -18.088   4.611  1.00  0.00     0.001 A 
HETATM   18  C   UNL     1      43.576 -16.736   4.517  1.00  0.00     0.009 A 
ENDBRANCH   7  13
ENDBRANCH   1   7
BRANCH   3  19
HETATM   19  C   UNL     1      39.856 -13.631   0.354  1.00  0.00     0.175 A 
HETATM   20  S   UNL     1      39.573 -14.416  -1.129  1.00  0.00    -0.061 SA
HETATM   21  C   UNL     1      40.093 -12.998  -1.950  1.00  0.00     0.086 A 
HETATM   22  C   UNL     1      40.463 -12.032  -1.031  1.00  0.00     0.078 A 
HETATM   23  N   UNL     1      40.314 -12.405   0.302  1.00  0.00    -0.223 NA
BRANCH  22  24
HETATM   24  C   UNL     1      41.010 -10.734  -1.383  1.00  0.00     0.011 A 
HETATM   25  C   UNL     1      41.762 -10.026  -0.449  1.00  0.00     0.130 A 
HETATM   26  N   UNL     1      42.311  -8.807  -0.661  1.00  0.00    -0.272 NA
HETATM   27  C   UNL     1      42.109  -8.264  -1.881  1.00  0.00     0.116 A 
HETATM   28  C   UNL     1      41.380  -8.883  -2.885  1.00  0.00     0.020 A 
HETATM   29  C   UNL     1      40.820 -10.135  -2.629  1.00  0.00     0.017 A 
ENDBRANCH  22  24
ENDBRANCH   3  19
TORSDOF 6
ENDMDL
MODEL 8
REMARK VINA RESULT:      -6.9      2.685      7.121
REMARK  6 active torsions:
REMARK  status: ('A' for Active; 'I' for Inactive)
REMARK    1  A    between atoms: N_2  and  C_4 
REMARK    2  A    between atoms: C_4  and  C_5 
REMARK    3  A    between atoms: C_5  and  N_6 
REMARK    4  A    between atoms: C_5  and  C_21 
REMARK       I    between atoms: N_6  and  C_7 
REMARK       I    between atoms: C_7  and  N_8 
REMARK    5  A    between atoms: N_8  and  C_9 
REMARK    6  A    between atoms: C_12  and  C_13 
ROOT
HETATM    1  N   UNL     1      42.311 -14.183   3.523  1.00  0.00    -0.333 N 
HETATM    2  C   UNL     1      43.256 -13.632   2.708  1.00  0.00     0.322 C 
HETATM    3  N   UNL     1      43.670 -12.369   2.982  1.00  0.00    -0.287 N 
HETATM    4  O   UNL     1      43.738 -14.260   1.768  1.00  0.00    -0.247 OA
HETATM    5  H   UNL     1      41.754 -13.490   4.019  1.00  0.00     0.165 HD
HETATM    6  H   UNL     1      44.315 -11.951   2.325  1.00  0.00     0.172 HD
ENDROOT
BRANCH   1   7
HETATM    7  C   UNL     1      41.668 -15.442   3.171  1.00  0.00     0.145 C 
BRANCH   7   8
HETATM    8  C   UNL     1      41.098 -15.474   1.714  1.00  0.00     0.263 C 
BRANCH   8   9
HETATM    9  N   UNL     1      39.805 -14.667   1.529  1.00  0.00    -0.076 N 
HETATM   10  C   UNL     1      39.817 -13.787   0.311  1.00  0.00     0.269 C 
HETATM   11  H   UNL     1      39.041 -15.347   1.409  1.00  0.00     0.279 HD
HETATM   12  C   UNL     1      39.484 -13.877   2.766  1.00  0.00     0.269 C 
ENDBRANCH   8   9
ENDBRANCH   7   8
BRANCH   7  13
HETATM   13  C   UNL     1      42.567 -16.648   3.417  1.00  0.00    -0.034 A 
HETATM   14  C   UNL     1      42.792 -17.637   2.446  1.00  0.00     0.009 A 
HETATM   15  C   UNL     1      43.589 -18.748   2.726  1.00  0.00     0.001 A 
HETATM   16  C   UNL     1      44.171 -18.890   3.983  1.00  0.00     0.000 A 
HETATM   17  C   UNL     1      43.959 -17.920   4.960  1.00  0.00     0.001 A 
HETATM   18  C   UNL     1      43.166 -16.807   4.680  1.00  0.00     0.009 A 
ENDBRANCH   7  13
ENDBRANCH   1   7
BRANCH   3  19
HETATM   19  C   UNL     1      43.317 -11.630   4.073  1.00  0.00     0.175 A 
HETATM   20  S   UNL     1      42.020 -10.557   3.831  1.00  0.00    -0.061 SA
HETATM   21  C   UNL     1      42.169 -10.047   5.465  1.00  0.00     0.086 A 
HETATM   22  C   UNL     1      43.212 -10.722   6.075  1.00  0.00     0.078 A 
HETATM   23  N   UNL     1      43.866 -11.643   5.263  1.00  0.00    -0.223 NA
BRANCH  22  24
HETATM   24  C   UNL     1      43.653 -10.487   7.439  1.00  0.00     0.011 A 
HETATM   25  C   UNL     1      44.864 -11.020   7.872  1.00  0.00     0.130 A 
HETATM   26  N   UNL     1      45.370 -10.876   9.120  1.00  0.00    -0.272 NA
HETATM   27  C   UNL     1      44.632 -10.147   9.985  1.00  0.00     0.116 A 
HETATM   28  C   UNL     1      43.414  -9.570   9.657  1.00  0.00     0.020 A 
HETATM   29  C   UNL     1      42.918  -9.746   8.364  1.00  0.00     0.017 A 
ENDBRANCH  22  24
ENDBRANCH   3  19
TORSDOF 6
ENDMDL
MODEL 9
REMARK VINA RESULT:      -6.5      4.447      8.776
REMARK  6 active torsions:
REMARK  status: ('A' for Active; 'I' for Inactive)
REMARK    1  A    between atoms: N_2  and  C_4 
REMARK    2  A    between atoms: C_4  and  C_5 
REMARK    3  A    between atoms: C_5  and  N_6 
REMARK    4  A    between atoms: C_5  and  C_21 
REMARK       I    between atoms: N_6  and  C_7 
REMARK       I    between atoms: C_7  and  N_8 
REMARK    5  A    between atoms: N_8  and  C_9 
REMARK    6  A    between atoms: C_12  and  C_13 
ROOT
HETATM    1  N   UNL     1      42.807 -12.429   6.694  1.00  0.00    -0.333 N 
HETATM    2  C   UNL     1      43.539 -11.533   5.972  1.00  0.00     0.322 C 
HETATM    3  N   UNL     1      44.061 -10.465   6.629  1.00  0.00    -0.287 N 
HETATM    4  O   UNL     1      43.744 -11.691   4.771  1.00  0.00    -0.247 OA
HETATM    5  H   UNL     1      42.422 -12.037   7.551  1.00  0.00     0.165 HD
HETATM    6  H   UNL     1      44.537  -9.775   6.065  1.00  0.00     0.172 HD
ENDROOT
BRANCH   1   7
HETATM    7  C   UNL     1      42.045 -13.476   6.026  1.00  0.00     0.145 C 
BRANCH   7   8
HETATM    8  C   UNL     1      41.380 -13.016   4.688  1.00  0.00     0.263 C 
BRANCH   8   9
HETATM    9  N   UNL     1      39.849 -13.141   4.673  1.00  0.00    -0.076 N 
HETATM   10  C   UNL     1      39.243 -12.927   3.314  1.00  0.00     0.269 C 
HETATM   11  H   UNL     1      39.623 -14.103   4.961  1.00  0.00     0.279 HD
HETATM   12  C   UNL     1      39.226 -12.231   5.693  1.00  0.00     0.269 C 
ENDBRANCH   8   9
ENDBRANCH   7   8
BRANCH   7  13
HETATM   13  C   UNL     1      42.860 -14.745   5.807  1.00  0.00    -0.034 A 
HETATM   14  C   UNL     1      43.792 -15.219   6.744  1.00  0.00     0.009 A 
HETATM   15  C   UNL     1      44.548 -16.364   6.485  1.00  0.00     0.001 A 
HETATM   16  C   UNL     1      44.388 -17.049   5.284  1.00  0.00     0.000 A 
HETATM   17  C   UNL     1      43.469 -16.594   4.342  1.00  0.00     0.001 A 
HETATM   18  C   UNL     1      42.709 -15.453   4.601  1.00  0.00     0.009 A 
ENDBRANCH   7  13
ENDBRANCH   1   7
BRANCH   3  19
HETATM   19  C   UNL     1      44.024 -10.259   7.977  1.00  0.00     0.175 A 
HETATM   20  S   UNL     1      45.532 -10.328   8.760  1.00  0.00    -0.061 SA
HETATM   21  C   UNL     1      44.743 -10.016  10.254  1.00  0.00     0.086 A 
HETATM   22  C   UNL     1      43.380  -9.899  10.050  1.00  0.00     0.078 A 
HETATM   23  N   UNL     1      42.973 -10.032   8.726  1.00  0.00    -0.223 NA
BRANCH  22  24
HETATM   24  C   UNL     1      42.408  -9.696  11.110  1.00  0.00     0.011 A 
HETATM   25  C   UNL     1      41.066  -9.509  10.788  1.00  0.00     0.130 A 
HETATM   26  N   UNL     1      40.075  -9.302  11.687  1.00  0.00    -0.272 NA
HETATM   27  C   UNL     1      40.441  -9.291  12.988  1.00  0.00     0.116 A 
HETATM   28  C   UNL     1      41.747  -9.469  13.419  1.00  0.00     0.020 A 
HETATM   29  C   UNL     1      42.744  -9.672  12.464  1.00  0.00     0.017 A 
ENDBRANCH  22  24
ENDBRANCH   3  19
TORSDOF 6
ENDMDL
MODEL 10
REMARK VINA RESULT:      -6.5     16.960     19.668
REMARK  6 active torsions:
REMARK  status: ('A' for Active; 'I' for Inactive)
REMARK    1  A    between atoms: N_2  and  C_4 
REMARK    2  A    between atoms: C_4  and  C_5 
REMARK    3  A    between atoms: C_5  and  N_6 
REMARK    4  A    between atoms: C_5  and  C_21 
REMARK       I    between atoms: N_6  and  C_7 
REMARK       I    between atoms: C_7  and  N_8 
REMARK    5  A    between atoms: N_8  and  C_9 
REMARK    6  A    between atoms: C_12  and  C_13 
ROOT
HETATM    1  N   UNL     1      47.914 -29.773   2.089  1.00  0.00    -0.333 N 
HETATM    2  C   UNL     1      47.701 -28.555   1.513  1.00  0.00     0.322 C 
HETATM    3  N   UNL     1      48.188 -28.351   0.263  1.00  0.00    -0.287 N 
HETATM    4  O   UNL     1      47.069 -27.674   2.091  1.00  0.00    -0.247 OA
HETATM    5  H   UNL     1      48.708 -30.272   1.693  1.00  0.00     0.165 HD
HETATM    6  H   UNL     1      48.085 -27.420  -0.117  1.00  0.00     0.172 HD
ENDROOT
BRANCH   1   7
HETATM    7  C   UNL     1      47.609 -29.994   3.496  1.00  0.00     0.145 C 
BRANCH   7   8
HETATM    8  C   UNL     1      46.262 -30.753   3.738  1.00  0.00     0.263 C 
BRANCH   8   9
HETATM    9  N   UNL     1      45.349 -30.818   2.505  1.00  0.00    -0.076 N 
HETATM   10  C   UNL     1      44.219 -29.828   2.544  1.00  0.00     0.269 C 
HETATM   11  H   UNL     1      45.930 -30.587   1.687  1.00  0.00     0.279 HD
HETATM   12  C   UNL     1      44.839 -32.214   2.288  1.00  0.00     0.269 C 
ENDBRANCH   8   9
ENDBRANCH   7   8
BRANCH   7  13
HETATM   13  C   UNL     1      48.747 -30.679   4.243  1.00  0.00    -0.034 A 
HETATM   14  C   UNL     1      48.546 -31.791   5.077  1.00  0.00     0.009 A 
HETATM   15  C   UNL     1      49.610 -32.363   5.776  1.00  0.00     0.001 A 
HETATM   16  C   UNL     1      50.890 -31.830   5.657  1.00  0.00     0.000 A 
HETATM   17  C   UNL     1      51.110 -30.727   4.836  1.00  0.00     0.001 A 
HETATM   18  C   UNL     1      50.048 -30.157   4.132  1.00  0.00     0.009 A 
ENDBRANCH   7  13
ENDBRANCH   1   7
BRANCH   3  19
HETATM   19  C   UNL     1      48.775 -29.293  -0.531  1.00  0.00     0.175 A 
HETATM   20  S   UNL     1      47.778 -29.934  -1.750  1.00  0.00    -0.061 SA
HETATM   21  C   UNL     1      49.079 -30.937  -2.253  1.00  0.00     0.086 A 
HETATM   22  C   UNL     1      50.179 -30.723  -1.441  1.00  0.00     0.078 A 
HETATM   23  N   UNL     1      49.996 -29.762  -0.451  1.00  0.00    -0.223 NA
BRANCH  22  24
HETATM   24  C   UNL     1      51.431 -31.451  -1.548  1.00  0.00     0.011 A 
HETATM   25  C   UNL     1      51.876 -32.218  -0.475  1.00  0.00     0.130 A 
HETATM   26  N   UNL     1      53.028 -32.929  -0.457  1.00  0.00    -0.272 NA
HETATM   27  C   UNL     1      53.777 -32.883  -1.580  1.00  0.00     0.116 A 
HETATM   28  C   UNL     1      53.426 -32.155  -2.706  1.00  0.00     0.020 A 
HETATM   29  C   UNL     1      52.236 -31.426  -2.688  1.00  0.00     0.017 A 
ENDBRANCH  22  24
ENDBRANCH   3  19
TORSDOF 6
ENDMDL
