MODEL 1
REMARK VINA RESULT:      -8.7      0.000      0.000
REMARK  8 active torsions:
REMARK  status: ('A' for Active; 'I' for Inactive)
REMARK    1  A    between atoms: O_2  and  C_3 
REMARK    2  A    between atoms: C_10  and  C_11 
REMARK    3  A    between atoms: N_12  and  N_13 
REMARK       I    between atoms: N_13  and  C_14 
REMARK    4  A    between atoms: C_14  and  C_15 
REMARK    5  A    between atoms: N_16  and  C_17 
REMARK    6  A    between atoms: C_21  and  N_22 
REMARK    7  A    between atoms: C_25  and  C_26 
REMARK    8  A    between atoms: C_26  and  N_27 
ROOT
HETATM    1  C   UNL     1      42.834 -12.280   5.253  1.00  0.00     0.154 A 
HETATM    2  N   UNL     1      43.932 -11.542   5.707  1.00  0.00    -0.184 N 
HETATM    3  N   UNL     1      44.625 -11.089   4.619  1.00  0.00    -0.058 NA
HETATM    4  N   UNL     1      44.077 -11.555   3.516  1.00  0.00    -0.132 NA
HETATM    5  C   UNL     1      42.997 -12.303   3.871  1.00  0.00     0.118 A 
ENDROOT
BRANCH   1   6
HETATM    6  C   UNL     1      41.803 -12.996   5.973  1.00  0.00     0.271 C 
HETATM    7  N   UNL     1      42.181 -14.119   6.707  1.00  0.00    -0.145 NA
HETATM    8  H   UNL     1      43.019 -14.586   6.363  1.00  0.00     0.158 HD
HETATM    9  O   UNL     1      40.670 -12.520   6.022  1.00  0.00    -0.271 OA
BRANCH   7  10
HETATM   10  N   UNL     1      41.231 -15.050   7.003  1.00  0.00    -0.205 NA
HETATM   11  C   UNL     1      40.886 -16.005   6.184  1.00  0.00     0.147 C 
BRANCH  11  12
HETATM   12  C   UNL     1      41.268 -16.349   4.790  1.00  0.00     0.019 A 
HETATM   13  C   UNL     1      42.415 -17.145   4.598  1.00  0.00     0.101 A 
HETATM   14  C   UNL     1      42.874 -17.430   3.300  1.00  0.00     0.069 A 
HETATM   15 CL   UNL     1      44.319 -18.335   3.026  1.00  0.00    -0.081 Cl
HETATM   16  C   UNL     1      42.173 -16.966   2.190  1.00  0.00     0.050 A 
HETATM   17  C   UNL     1      41.013 -16.224   2.382  1.00  0.00     0.036 A 
HETATM   18 CL   UNL     1      40.144 -15.624   1.022  1.00  0.00    -0.084 Cl
HETATM   19  C   UNL     1      40.554 -15.927   3.668  1.00  0.00     0.039 A 
BRANCH  13  20
HETATM   20  O   UNL     1      43.122 -17.593   5.688  1.00  0.00    -0.353 OA
HETATM   21  C   UNL     1      44.312 -16.823   5.897  1.00  0.00     0.210 C 
ENDBRANCH  13  20
ENDBRANCH  11  12
ENDBRANCH   7  10
ENDBRANCH   1   6
BRANCH   2  22
HETATM   22  C   UNL     1      44.394 -11.278   7.018  1.00  0.00     0.230 A 
HETATM   23  N   UNL     1      43.546 -11.269   8.043  1.00  0.00    -0.081 NA
HETATM   24  O   UNL     1      44.351 -10.993   9.149  1.00  0.00    -0.103 OA
HETATM   25  N   UNL     1      45.676 -10.828   8.773  1.00  0.00    -0.083 NA
HETATM   26  C   UNL     1      45.705 -11.011   7.455  1.00  0.00     0.201 A 
BRANCH  26  27
HETATM   27  N   UNL     1      46.819 -10.951   6.708  1.00  0.00    -0.379 N 
HETATM   28  H   UNL     1      47.635 -10.455   7.056  1.00  0.00     0.158 HD
HETATM   29  H   UNL     1      46.860 -11.215   5.727  1.00  0.00     0.158 HD
ENDBRANCH  26  27
ENDBRANCH   2  22
BRANCH   5  30
HETATM   30  C   UNL     1      42.230 -12.998   2.791  1.00  0.00     0.298 C 
BRANCH  30  31
HETATM   31  N   UNL     1      41.090 -12.122   2.259  1.00  0.00    -0.066 N 
HETATM   32  H   UNL     1      41.339 -11.174   2.585  1.00  0.00     0.280 HD
HETATM   33  C   UNL     1      41.106 -12.091   0.750  1.00  0.00     0.235 C 
HETATM   34  C   UNL     1      40.161 -11.038   0.183  1.00  0.00     0.028 C 
HETATM   35  C   UNL     1      38.696 -11.450   0.261  1.00  0.00     0.002 C 
HETATM   36  C   UNL     1      38.004 -11.124   1.579  1.00  0.00     0.002 C 
HETATM   37  C   UNL     1      38.818 -11.300   2.857  1.00  0.00     0.028 C 
HETATM   38  C   UNL     1      39.763 -12.494   2.875  1.00  0.00     0.235 C 
ENDBRANCH  30  31
ENDBRANCH   5  30
TORSDOF 8
ENDMDL
MODEL 2
REMARK VINA RESULT:      -8.5      1.327      2.284
REMARK  8 active torsions:
REMARK  status: ('A' for Active; 'I' for Inactive)
REMARK    1  A    between atoms: O_2  and  C_3 
REMARK    2  A    between atoms: C_10  and  C_11 
REMARK    3  A    between atoms: N_12  and  N_13 
REMARK       I    between atoms: N_13  and  C_14 
REMARK    4  A    between atoms: C_14  and  C_15 
REMARK    5  A    between atoms: N_16  and  C_17 
REMARK    6  A    between atoms: C_21  and  N_22 
REMARK    7  A    between atoms: C_25  and  C_26 
REMARK    8  A    between atoms: C_26  and  N_27 
ROOT
HETATM    1  C   UNL     1      43.278 -12.107   5.258  1.00  0.00     0.154 A 
HETATM    2  N   UNL     1      44.342 -11.472   5.909  1.00  0.00    -0.184 N 
HETATM    3  N   UNL     1      45.232 -11.047   4.963  1.00  0.00    -0.058 NA
HETATM    4  N   UNL     1      44.835 -11.438   3.769  1.00  0.00    -0.132 NA
HETATM    5  C   UNL     1      43.659 -12.106   3.920  1.00  0.00     0.118 A 
ENDROOT
BRANCH   1   6
HETATM    6  C   UNL     1      42.096 -12.757   5.778  1.00  0.00     0.271 C 
HETATM    7  N   UNL     1      42.270 -13.872   6.596  1.00  0.00    -0.145 NA
HETATM    8  H   UNL     1      43.136 -14.385   6.432  1.00  0.00     0.158 HD
HETATM    9  O   UNL     1      40.997 -12.234   5.595  1.00  0.00    -0.271 OA
BRANCH   7  10
HETATM   10  N   UNL     1      41.238 -14.754   6.720  1.00  0.00    -0.205 NA
HETATM   11  C   UNL     1      41.220 -15.920   6.136  1.00  0.00     0.147 C 
BRANCH  11  12
HETATM   12  C   UNL     1      42.131 -16.606   5.184  1.00  0.00     0.019 A 
HETATM   13  C   UNL     1      42.193 -16.119   3.863  1.00  0.00     0.101 A 
HETATM   14  C   UNL     1      42.970 -16.781   2.897  1.00  0.00     0.069 A 
HETATM   15 CL   UNL     1      43.010 -16.262   1.250  1.00  0.00    -0.081 Cl
HETATM   16  C   UNL     1      43.724 -17.899   3.247  1.00  0.00     0.050 A 
HETATM   17  C   UNL     1      43.700 -18.347   4.563  1.00  0.00     0.036 A 
HETATM   18 CL   UNL     1      44.609 -19.740   5.011  1.00  0.00    -0.084 Cl
HETATM   19  C   UNL     1      42.924 -17.702   5.529  1.00  0.00     0.039 A 
BRANCH  13  20
HETATM   20  O   UNL     1      41.441 -15.027   3.505  1.00  0.00    -0.353 OA
HETATM   21  C   UNL     1      40.189 -15.416   2.927  1.00  0.00     0.210 C 
ENDBRANCH  13  20
ENDBRANCH  11  12
ENDBRANCH   7  10
ENDBRANCH   1   6
BRANCH   2  22
HETATM   22  C   UNL     1      44.606 -11.281   7.286  1.00  0.00     0.230 A 
HETATM   23  N   UNL     1      43.705 -11.630   8.201  1.00  0.00    -0.081 NA
HETATM   24  O   UNL     1      44.312 -11.312   9.416  1.00  0.00    -0.103 OA
HETATM   25  N   UNL     1      45.570 -10.762   9.217  1.00  0.00    -0.083 NA
HETATM   26  C   UNL     1      45.756 -10.748   7.898  1.00  0.00     0.201 A 
BRANCH  26  27
HETATM   27  N   UNL     1      46.870 -10.302   7.297  1.00  0.00    -0.379 N 
HETATM   28  H   UNL     1      47.311  -9.445   7.620  1.00  0.00     0.158 HD
HETATM   29  H   UNL     1      47.220 -10.661   6.413  1.00  0.00     0.158 HD
ENDBRANCH  26  27
ENDBRANCH   2  22
BRANCH   5  30
HETATM   30  C   UNL     1      43.025 -12.709   2.706  1.00  0.00     0.298 C 
BRANCH  30  31
HETATM   31  N   UNL     1      41.702 -12.015   2.362  1.00  0.00    -0.066 N 
HETATM   32  H   UNL     1      41.053 -12.352   3.090  1.00  0.00     0.280 HD
HETATM   33  C   UNL     1      41.826 -10.521   2.536  1.00  0.00     0.235 C 
HETATM   34  C   UNL     1      40.478  -9.815   2.454  1.00  0.00     0.028 C 
HETATM   35  C   UNL     1      39.947  -9.708   1.029  1.00  0.00     0.002 C 
HETATM   36  C   UNL     1      39.158 -10.918   0.544  1.00  0.00     0.002 C 
HETATM   37  C   UNL     1      39.657 -12.294   0.971  1.00  0.00     0.028 C 
HETATM   38  C   UNL     1      41.171 -12.458   1.020  1.00  0.00     0.235 C 
ENDBRANCH  30  31
ENDBRANCH   5  30
TORSDOF 8
ENDMDL
MODEL 3
REMARK VINA RESULT:      -8.4      3.555      7.314
REMARK  8 active torsions:
REMARK  status: ('A' for Active; 'I' for Inactive)
REMARK    1  A    between atoms: O_2  and  C_3 
REMARK    2  A    between atoms: C_10  and  C_11 
REMARK    3  A    between atoms: N_12  and  N_13 
REMARK       I    between atoms: N_13  and  C_14 
REMARK    4  A    between atoms: C_14  and  C_15 
REMARK    5  A    between atoms: N_16  and  C_17 
REMARK    6  A    between atoms: C_21  and  N_22 
REMARK    7  A    between atoms: C_25  and  C_26 
REMARK    8  A    between atoms: C_26  and  N_27 
ROOT
HETATM    1  C   UNL     1      41.793 -14.191   6.325  1.00  0.00     0.154 A 
HETATM    2  N   UNL     1      40.441 -13.832   6.323  1.00  0.00    -0.184 N 
HETATM    3  N   UNL     1      39.712 -14.898   6.770  1.00  0.00    -0.058 NA
HETATM    4  N   UNL     1      40.509 -15.925   6.983  1.00  0.00    -0.132 NA
HETATM    5  C   UNL     1      41.780 -15.532   6.698  1.00  0.00     0.118 A 
ENDROOT
BRANCH   1   6
HETATM    6  C   UNL     1      42.974 -13.459   5.924  1.00  0.00     0.271 C 
HETATM    7  N   UNL     1      43.841 -13.021   6.924  1.00  0.00    -0.145 NA
HETATM    8  H   UNL     1      43.399 -12.873   7.831  1.00  0.00     0.158 HD
HETATM    9  O   UNL     1      43.240 -13.364   4.726  1.00  0.00    -0.271 OA
BRANCH   7  10
HETATM   10  N   UNL     1      44.675 -11.978   6.649  1.00  0.00    -0.205 NA
HETATM   11  C   UNL     1      44.517 -10.785   7.154  1.00  0.00     0.147 C 
BRANCH  11  12
HETATM   12  C   UNL     1      43.481 -10.165   8.020  1.00  0.00     0.019 A 
HETATM   13  C   UNL     1      43.676 -10.207   9.415  1.00  0.00     0.101 A 
HETATM   14  C   UNL     1      42.690  -9.715  10.286  1.00  0.00     0.069 A 
HETATM   15 CL   UNL     1      42.858  -9.819  12.002  1.00  0.00    -0.081 Cl
HETATM   16  C   UNL     1      41.528  -9.139   9.778  1.00  0.00     0.050 A 
HETATM   17  C   UNL     1      41.360  -9.054   8.401  1.00  0.00     0.036 A 
HETATM   18 CL   UNL     1      39.921  -8.364   7.753  1.00  0.00    -0.084 Cl
HETATM   19  C   UNL     1      42.331  -9.548   7.526  1.00  0.00     0.039 A 
BRANCH  13  20
HETATM   20  O   UNL     1      44.813 -10.787   9.925  1.00  0.00    -0.353 OA
HETATM   21  C   UNL     1      45.829  -9.813  10.191  1.00  0.00     0.210 C 
ENDBRANCH  13  20
ENDBRANCH  11  12
ENDBRANCH   7  10
ENDBRANCH   1   6
BRANCH   2  22
HETATM   22  C   UNL     1      39.798 -12.641   5.908  1.00  0.00     0.230 A 
HETATM   23  N   UNL     1      39.076 -11.929   6.769  1.00  0.00    -0.081 NA
HETATM   24  O   UNL     1      38.622 -10.845   6.017  1.00  0.00    -0.103 OA
HETATM   25  N   UNL     1      39.068 -10.924   4.706  1.00  0.00    -0.083 NA
HETATM   26  C   UNL     1      39.802 -12.033   4.639  1.00  0.00     0.201 A 
BRANCH  26  27
HETATM   27  N   UNL     1      40.430 -12.457   3.531  1.00  0.00    -0.379 N 
HETATM   28  H   UNL     1      40.573 -13.452   3.379  1.00  0.00     0.158 HD
HETATM   29  H   UNL     1      40.943 -11.847   2.900  1.00  0.00     0.158 HD
ENDBRANCH  26  27
ENDBRANCH   2  22
BRANCH   5  30
HETATM   30  C   UNL     1      42.876 -16.544   6.804  1.00  0.00     0.298 C 
BRANCH  30  31
HETATM   31  N   UNL     1      43.356 -16.998   5.420  1.00  0.00    -0.066 N 
HETATM   32  H   UNL     1      44.129 -16.348   5.205  1.00  0.00     0.280 HD
HETATM   33  C   UNL     1      43.950 -18.384   5.494  1.00  0.00     0.235 C 
HETATM   34  C   UNL     1      44.668 -18.775   4.208  1.00  0.00     0.028 C 
HETATM   35  C   UNL     1      43.711 -19.134   3.078  1.00  0.00     0.002 C 
HETATM   36  C   UNL     1      43.219 -17.953   2.250  1.00  0.00     0.002 C 
HETATM   37  C   UNL     1      42.920 -16.656   2.994  1.00  0.00     0.028 C 
HETATM   38  C   UNL     1      42.287 -16.819   4.370  1.00  0.00     0.235 C 
ENDBRANCH  30  31
ENDBRANCH   5  30
TORSDOF 8
ENDMDL
MODEL 4
REMARK VINA RESULT:      -8.4      3.399      6.653
REMARK  8 active torsions:
REMARK  status: ('A' for Active; 'I' for Inactive)
REMARK    1  A    between atoms: O_2  and  C_3 
REMARK    2  A    between atoms: C_10  and  C_11 
REMARK    3  A    between atoms: N_12  and  N_13 
REMARK       I    between atoms: N_13  and  C_14 
REMARK    4  A    between atoms: C_14  and  C_15 
REMARK    5  A    between atoms: N_16  and  C_17 
REMARK    6  A    between atoms: C_21  and  N_22 
REMARK    7  A    between atoms: C_25  and  C_26 
REMARK    8  A    between atoms: C_26  and  N_27 
ROOT
HETATM    1  C   UNL     1      40.772 -13.328   1.157  1.00  0.00     0.154 A 
HETATM    2  N   UNL     1      40.403 -12.518   0.077  1.00  0.00    -0.184 N 
HETATM    3  N   UNL     1      39.967 -11.319   0.568  1.00  0.00    -0.058 NA
HETATM    4  N   UNL     1      39.969 -11.350   1.885  1.00  0.00    -0.132 NA
HETATM    5  C   UNL     1      40.433 -12.570   2.273  1.00  0.00     0.118 A 
ENDROOT
BRANCH   1   6
HETATM    6  C   UNL     1      41.267 -14.687   1.203  1.00  0.00     0.271 C 
HETATM    7  N   UNL     1      42.618 -14.880   1.484  1.00  0.00    -0.145 NA
HETATM    8  H   UNL     1      43.219 -14.097   1.225  1.00  0.00     0.158 HD
HETATM    9  O   UNL     1      40.465 -15.617   1.126  1.00  0.00    -0.271 OA
BRANCH   7  10
HETATM   10  N   UNL     1      43.202 -16.048   1.095  1.00  0.00    -0.205 NA
HETATM   11  C   UNL     1      43.457 -17.028   1.917  1.00  0.00     0.147 C 
BRANCH  11  12
HETATM   12  C   UNL     1      43.315 -17.199   3.386  1.00  0.00     0.019 A 
HETATM   13  C   UNL     1      43.762 -18.408   3.956  1.00  0.00     0.101 A 
HETATM   14  C   UNL     1      43.574 -18.661   5.325  1.00  0.00     0.069 A 
HETATM   15 CL   UNL     1      44.037 -20.162   6.044  1.00  0.00    -0.081 Cl
HETATM   16  C   UNL     1      42.985 -17.700   6.142  1.00  0.00     0.050 A 
HETATM   17  C   UNL     1      42.591 -16.489   5.588  1.00  0.00     0.036 A 
HETATM   18 CL   UNL     1      41.841 -15.295   6.579  1.00  0.00    -0.084 Cl
HETATM   19  C   UNL     1      42.765 -16.230   4.226  1.00  0.00     0.039 A 
BRANCH  13  20
HETATM   20  O   UNL     1      44.330 -19.368   3.153  1.00  0.00    -0.353 OA
HETATM   21  C   UNL     1      43.349 -20.283   2.651  1.00  0.00     0.210 C 
ENDBRANCH  13  20
ENDBRANCH  11  12
ENDBRANCH   7  10
ENDBRANCH   1   6
BRANCH   2  22
HETATM   22  C   UNL     1      40.379 -12.780  -1.314  1.00  0.00     0.230 A 
HETATM   23  N   UNL     1      41.108 -12.047  -2.151  1.00  0.00    -0.081 NA
HETATM   24  O   UNL     1      40.843 -12.597  -3.405  1.00  0.00    -0.103 OA
HETATM   25  N   UNL     1      39.945 -13.651  -3.309  1.00  0.00    -0.083 NA
HETATM   26  C   UNL     1      39.662 -13.769  -2.013  1.00  0.00     0.201 A 
BRANCH  26  27
HETATM   27  N   UNL     1      38.836 -14.695  -1.502  1.00  0.00    -0.379 N 
HETATM   28  H   UNL     1      37.838 -14.508  -1.447  1.00  0.00     0.158 HD
HETATM   29  H   UNL     1      39.149 -15.516  -0.992  1.00  0.00     0.158 HD
ENDBRANCH  26  27
ENDBRANCH   2  22
BRANCH   5  30
HETATM   30  C   UNL     1      40.475 -12.880   3.735  1.00  0.00     0.298 C 
BRANCH  30  31
HETATM   31  N   UNL     1      41.562 -12.068   4.450  1.00  0.00    -0.066 N 
HETATM   32  H   UNL     1      41.530 -11.151   3.977  1.00  0.00     0.280 HD
HETATM   33  C   UNL     1      41.186 -11.836   5.893  1.00  0.00     0.235 C 
HETATM   34  C   UNL     1      42.101 -10.825   6.574  1.00  0.00     0.028 C 
HETATM   35  C   UNL     1      43.471 -11.397   6.916  1.00  0.00     0.002 C 
HETATM   36  C   UNL     1      44.499 -11.324   5.792  1.00  0.00     0.002 C 
HETATM   37  C   UNL     1      44.001 -11.580   4.374  1.00  0.00     0.028 C 
HETATM   38  C   UNL     1      42.934 -12.658   4.236  1.00  0.00     0.235 C 
ENDBRANCH  30  31
ENDBRANCH   5  30
TORSDOF 8
ENDMDL
MODEL 5
REMARK VINA RESULT:      -8.3      4.509      6.757
REMARK  8 active torsions:
REMARK  status: ('A' for Active; 'I' for Inactive)
REMARK    1  A    between atoms: O_2  and  C_3 
REMARK    2  A    between atoms: C_10  and  C_11 
REMARK    3  A    between atoms: N_12  and  N_13 
REMARK       I    between atoms: N_13  and  C_14 
REMARK    4  A    between atoms: C_14  and  C_15 
REMARK    5  A    between atoms: N_16  and  C_17 
REMARK    6  A    between atoms: C_21  and  N_22 
REMARK    7  A    between atoms: C_25  and  C_26 
REMARK    8  A    between atoms: C_26  and  N_27 
ROOT
HETATM    1  C   UNL     1      42.410 -12.333   6.152  1.00  0.00     0.154 A 
HETATM    2  N   UNL     1      43.659 -12.597   6.726  1.00  0.00    -0.184 N 
HETATM    3  N   UNL     1      43.929 -13.928   6.575  1.00  0.00    -0.058 NA
HETATM    4  N   UNL     1      42.902 -14.530   6.012  1.00  0.00    -0.132 NA
HETATM    5  C   UNL     1      41.952 -13.588   5.763  1.00  0.00     0.118 A 
ENDROOT
BRANCH   1   6
HETATM    6  C   UNL     1      41.643 -11.110   6.061  1.00  0.00     0.271 C 
HETATM    7  N   UNL     1      41.567 -10.301   7.194  1.00  0.00    -0.145 NA
HETATM    8  H   UNL     1      41.682 -10.799   8.076  1.00  0.00     0.158 HD
HETATM    9  O   UNL     1      41.201 -10.764   4.967  1.00  0.00    -0.271 OA
BRANCH   7  10
HETATM   10  N   UNL     1      40.528  -9.426   7.298  1.00  0.00    -0.205 NA
HETATM   11  C   UNL     1      40.111  -8.944   8.436  1.00  0.00     0.147 C 
BRANCH  11  12
HETATM   12  C   UNL     1      40.486  -9.187   9.853  1.00  0.00     0.019 A 
HETATM   13  C   UNL     1      41.727  -8.690  10.302  1.00  0.00     0.101 A 
HETATM   14  C   UNL     1      42.172  -8.964  11.606  1.00  0.00     0.069 A 
HETATM   15 CL   UNL     1      43.720  -8.440  12.166  1.00  0.00    -0.081 Cl
HETATM   16  C   UNL     1      41.372  -9.691  12.483  1.00  0.00     0.050 A 
HETATM   17  C   UNL     1      40.127 -10.136  12.055  1.00  0.00     0.036 A 
HETATM   18 CL   UNL     1      39.131 -11.054  13.119  1.00  0.00    -0.084 Cl
HETATM   19  C   UNL     1      39.678  -9.877  10.758  1.00  0.00     0.039 A 
BRANCH  13  20
HETATM   20  O   UNL     1      42.529  -7.986   9.437  1.00  0.00    -0.353 OA
HETATM   21  C   UNL     1      42.391  -6.572   9.622  1.00  0.00     0.210 C 
ENDBRANCH  13  20
ENDBRANCH  11  12
ENDBRANCH   7  10
ENDBRANCH   1   6
BRANCH   2  22
HETATM   22  C   UNL     1      44.559 -11.751   7.417  1.00  0.00     0.230 A 
HETATM   23  N   UNL     1      44.345 -11.436   8.692  1.00  0.00    -0.081 NA
HETATM   24  O   UNL     1      45.424 -10.617   9.027  1.00  0.00    -0.103 OA
HETATM   25  N   UNL     1      46.271 -10.439   7.942  1.00  0.00    -0.083 NA
HETATM   26  C   UNL     1      45.739 -11.146   6.947  1.00  0.00     0.201 A 
BRANCH  26  27
HETATM   27  N   UNL     1      46.276 -11.246   5.720  1.00  0.00    -0.379 N 
HETATM   28  H   UNL     1      45.672 -11.248   4.902  1.00  0.00     0.158 HD
HETATM   29  H   UNL     1      47.244 -11.501   5.543  1.00  0.00     0.158 HD
ENDBRANCH  26  27
ENDBRANCH   2  22
BRANCH   5  30
HETATM   30  C   UNL     1      40.650 -14.031   5.174  1.00  0.00     0.298 C 
BRANCH  30  31
HETATM   31  N   UNL     1      40.790 -14.350   3.681  1.00  0.00    -0.066 N 
HETATM   32  H   UNL     1      41.781 -14.144   3.479  1.00  0.00     0.280 HD
HETATM   33  C   UNL     1      40.584 -15.825   3.433  1.00  0.00     0.235 C 
HETATM   34  C   UNL     1      40.963 -16.232   2.014  1.00  0.00     0.028 C 
HETATM   35  C   UNL     1      39.928 -15.809   0.978  1.00  0.00     0.002 C 
HETATM   36  C   UNL     1      40.096 -14.392   0.441  1.00  0.00     0.002 C 
HETATM   37  C   UNL     1      40.529 -13.317   1.432  1.00  0.00     0.028 C 
HETATM   38  C   UNL     1      39.940 -13.437   2.831  1.00  0.00     0.235 C 
ENDBRANCH  30  31
ENDBRANCH   5  30
TORSDOF 8
ENDMDL
MODEL 6
REMARK VINA RESULT:      -8.2      4.043      7.650
REMARK  8 active torsions:
REMARK  status: ('A' for Active; 'I' for Inactive)
REMARK    1  A    between atoms: O_2  and  C_3 
REMARK    2  A    between atoms: C_10  and  C_11 
REMARK    3  A    between atoms: N_12  and  N_13 
REMARK       I    between atoms: N_13  and  C_14 
REMARK    4  A    between atoms: C_14  and  C_15 
REMARK    5  A    between atoms: N_16  and  C_17 
REMARK    6  A    between atoms: C_21  and  N_22 
REMARK    7  A    between atoms: C_25  and  C_26 
REMARK    8  A    between atoms: C_26  and  N_27 
ROOT
HETATM    1  C   UNL     1      41.721 -13.359   6.287  1.00  0.00     0.154 A 
HETATM    2  N   UNL     1      40.338 -13.150   6.262  1.00  0.00    -0.184 N 
HETATM    3  N   UNL     1      39.718 -14.356   6.437  1.00  0.00    -0.058 NA
HETATM    4  N   UNL     1      40.619 -15.315   6.497  1.00  0.00    -0.132 NA
HETATM    5  C   UNL     1      41.847 -14.741   6.386  1.00  0.00     0.118 A 
ENDROOT
BRANCH   1   6
HETATM    6  C   UNL     1      42.826 -12.440   6.123  1.00  0.00     0.271 C 
HETATM    7  N   UNL     1      43.623 -12.172   7.235  1.00  0.00    -0.145 NA
HETATM    8  H   UNL     1      43.150 -12.290   8.132  1.00  0.00     0.158 HD
HETATM    9  O   UNL     1      43.103 -12.034   4.995  1.00  0.00    -0.271 OA
BRANCH   7  10
HETATM   10  N   UNL     1      44.347 -11.018   7.253  1.00  0.00    -0.205 NA
HETATM   11  C   UNL     1      44.095 -10.028   8.065  1.00  0.00     0.147 C 
BRANCH  11  12
HETATM   12  C   UNL     1      43.034  -9.771   9.073  1.00  0.00     0.019 A 
HETATM   13  C   UNL     1      41.775  -9.337   8.610  1.00  0.00     0.101 A 
HETATM   14  C   UNL     1      40.762  -8.996   9.522  1.00  0.00     0.069 A 
HETATM   15 CL   UNL     1      39.234  -8.386   8.995  1.00  0.00    -0.081 Cl
HETATM   16  C   UNL     1      40.977  -9.126  10.892  1.00  0.00     0.050 A 
HETATM   17  C   UNL     1      42.202  -9.602  11.343  1.00  0.00     0.036 A 
HETATM   18 CL   UNL     1      42.493  -9.750  13.035  1.00  0.00    -0.084 Cl
HETATM   19  C   UNL     1      43.219  -9.936  10.446  1.00  0.00     0.039 A 
BRANCH  13  20
HETATM   20  O   UNL     1      41.561  -9.191   7.261  1.00  0.00    -0.353 OA
HETATM   21  C   UNL     1      41.791  -7.843   6.834  1.00  0.00     0.210 C 
ENDBRANCH  13  20
ENDBRANCH  11  12
ENDBRANCH   7  10
ENDBRANCH   1   6
BRANCH   2  22
HETATM   22  C   UNL     1      39.581 -11.974   6.047  1.00  0.00     0.230 A 
HETATM   23  N   UNL     1      38.775 -11.507   6.997  1.00  0.00    -0.081 NA
HETATM   24  O   UNL     1      38.222 -10.354   6.439  1.00  0.00    -0.103 OA
HETATM   25  N   UNL     1      38.692 -10.148   5.149  1.00  0.00    -0.083 NA
HETATM   26  C   UNL     1      39.539 -11.147   4.908  1.00  0.00     0.201 A 
BRANCH  26  27
HETATM   27  N   UNL     1      40.223 -11.298   3.763  1.00  0.00    -0.379 N 
HETATM   28  H   UNL     1      41.222 -11.107   3.742  1.00  0.00     0.158 HD
HETATM   29  H   UNL     1      39.788 -11.420   2.853  1.00  0.00     0.158 HD
ENDBRANCH  26  27
ENDBRANCH   2  22
BRANCH   5  30
HETATM   30  C   UNL     1      43.048 -15.633   6.366  1.00  0.00     0.298 C 
BRANCH  30  31
HETATM   31  N   UNL     1      42.971 -16.652   5.223  1.00  0.00    -0.066 N 
HETATM   32  H   UNL     1      42.222 -17.296   5.522  1.00  0.00     0.280 HD
HETATM   33  C   UNL     1      42.502 -15.987   3.952  1.00  0.00     0.235 C 
HETATM   34  C   UNL     1      42.165 -16.997   2.861  1.00  0.00     0.028 C 
HETATM   35  C   UNL     1      43.402 -17.604   2.209  1.00  0.00     0.002 C 
HETATM   36  C   UNL     1      43.979 -18.818   2.928  1.00  0.00     0.002 C 
HETATM   37  C   UNL     1      43.967 -18.798   4.452  1.00  0.00     0.028 C 
HETATM   38  C   UNL     1      44.248 -17.446   5.094  1.00  0.00     0.235 C 
ENDBRANCH  30  31
ENDBRANCH   5  30
TORSDOF 8
ENDMDL
MODEL 7
REMARK VINA RESULT:      -8.0      2.126      5.610
REMARK  8 active torsions:
REMARK  status: ('A' for Active; 'I' for Inactive)
REMARK    1  A    between atoms: O_2  and  C_3 
REMARK    2  A    between atoms: C_10  and  C_11 
REMARK    3  A    between atoms: N_12  and  N_13 
REMARK       I    between atoms: N_13  and  C_14 
REMARK    4  A    between atoms: C_14  and  C_15 
REMARK    5  A    between atoms: N_16  and  C_17 
REMARK    6  A    between atoms: C_21  and  N_22 
REMARK    7  A    between atoms: C_25  and  C_26 
REMARK    8  A    between atoms: C_26  and  N_27 
ROOT
HETATM    1  C   UNL     1      40.805 -11.527   5.087  1.00  0.00     0.154 A 
HETATM    2  N   UNL     1      40.897 -11.352   3.702  1.00  0.00    -0.184 N 
HETATM    3  N   UNL     1      41.614 -10.214   3.460  1.00  0.00    -0.058 NA
HETATM    4  N   UNL     1      41.913  -9.625   4.599  1.00  0.00    -0.132 NA
HETATM    5  C   UNL     1      41.414 -10.390   5.608  1.00  0.00     0.118 A 
ENDROOT
BRANCH   1   6
HETATM    6  C   UNL     1      40.141 -12.541   5.877  1.00  0.00     0.271 C 
HETATM    7  N   UNL     1      40.913 -13.588   6.377  1.00  0.00    -0.145 NA
HETATM    8  H   UNL     1      41.749 -13.795   5.830  1.00  0.00     0.158 HD
HETATM    9  O   UNL     1      38.962 -12.378   6.189  1.00  0.00    -0.271 OA
BRANCH   7  10
HETATM   10  N   UNL     1      40.289 -14.754   6.710  1.00  0.00    -0.205 NA
HETATM   11  C   UNL     1      40.549 -15.894   6.132  1.00  0.00     0.147 C 
BRANCH  11  12
HETATM   12  C   UNL     1      41.425 -16.296   5.001  1.00  0.00     0.019 A 
HETATM   13  C   UNL     1      42.500 -17.165   5.277  1.00  0.00     0.101 A 
HETATM   14  C   UNL     1      43.413 -17.509   4.265  1.00  0.00     0.069 A 
HETATM   15 CL   UNL     1      44.786 -18.507   4.582  1.00  0.00    -0.081 Cl
HETATM   16  C   UNL     1      43.237 -17.032   2.969  1.00  0.00     0.050 A 
HETATM   17  C   UNL     1      42.148 -16.216   2.689  1.00  0.00     0.036 A 
HETATM   18 CL   UNL     1      41.925 -15.599   1.096  1.00  0.00    -0.084 Cl
HETATM   19  C   UNL     1      41.240 -15.860   3.688  1.00  0.00     0.039 A 
BRANCH  13  20
HETATM   20  O   UNL     1      42.690 -17.627   6.556  1.00  0.00    -0.353 OA
HETATM   21  C   UNL     1      43.630 -16.819   7.275  1.00  0.00     0.210 C 
ENDBRANCH  13  20
ENDBRANCH  11  12
ENDBRANCH   7  10
ENDBRANCH   1   6
BRANCH   2  22
HETATM   22  C   UNL     1      40.351 -12.103   2.634  1.00  0.00     0.230 A 
HETATM   23  N   UNL     1      39.467 -13.069   2.870  1.00  0.00    -0.081 NA
HETATM   24  O   UNL     1      39.154 -13.561   1.603  1.00  0.00    -0.103 OA
HETATM   25  N   UNL     1      39.864 -12.892   0.617  1.00  0.00    -0.083 NA
HETATM   26  C   UNL     1      40.601 -11.984   1.254  1.00  0.00     0.201 A 
BRANCH  26  27
HETATM   27  N   UNL     1      41.423 -11.115   0.644  1.00  0.00    -0.379 N 
HETATM   28  H   UNL     1      41.055 -10.474  -0.053  1.00  0.00     0.158 HD
HETATM   29  H   UNL     1      42.437 -11.164   0.692  1.00  0.00     0.158 HD
ENDBRANCH  26  27
ENDBRANCH   2  22
BRANCH   5  30
HETATM   30  C   UNL     1      41.572  -9.902   7.013  1.00  0.00     0.298 C 
BRANCH  30  31
HETATM   31  N   UNL     1      43.049  -9.714   7.379  1.00  0.00    -0.066 N 
HETATM   32  H   UNL     1      43.439  -9.211   6.567  1.00  0.00     0.280 HD
HETATM   33  C   UNL     1      43.186  -8.801   8.574  1.00  0.00     0.235 C 
HETATM   34  C   UNL     1      44.631  -8.381   8.817  1.00  0.00     0.028 C 
HETATM   35  C   UNL     1      45.477  -9.487   9.437  1.00  0.00     0.002 C 
HETATM   36  C   UNL     1      46.100 -10.457   8.439  1.00  0.00     0.002 C 
HETATM   37  C   UNL     1      45.256 -10.854   7.232  1.00  0.00     0.028 C 
HETATM   38  C   UNL     1      43.768 -11.036   7.501  1.00  0.00     0.235 C 
ENDBRANCH  30  31
ENDBRANCH   5  30
TORSDOF 8
ENDMDL
MODEL 8
REMARK VINA RESULT:      -8.0      4.516      7.050
REMARK  8 active torsions:
REMARK  status: ('A' for Active; 'I' for Inactive)
REMARK    1  A    between atoms: O_2  and  C_3 
REMARK    2  A    between atoms: C_10  and  C_11 
REMARK    3  A    between atoms: N_12  and  N_13 
REMARK       I    between atoms: N_13  and  C_14 
REMARK    4  A    between atoms: C_14  and  C_15 
REMARK    5  A    between atoms: N_16  and  C_17 
REMARK    6  A    between atoms: C_21  and  N_22 
REMARK    7  A    between atoms: C_25  and  C_26 
REMARK    8  A    between atoms: C_26  and  N_27 
ROOT
HETATM    1  C   UNL     1      43.114 -11.277   5.433  1.00  0.00     0.154 A 
HETATM    2  N   UNL     1      44.319 -11.128   6.129  1.00  0.00    -0.184 N 
HETATM    3  N   UNL     1      45.345 -11.177   5.227  1.00  0.00    -0.058 NA
HETATM    4  N   UNL     1      44.869 -11.421   4.023  1.00  0.00    -0.132 NA
HETATM    5  C   UNL     1      43.514 -11.509   4.121  1.00  0.00     0.118 A 
ENDROOT
BRANCH   1   6
HETATM    6  C   UNL     1      41.746 -11.327   5.899  1.00  0.00     0.271 C 
HETATM    7  N   UNL     1      41.199 -10.166   6.444  1.00  0.00    -0.145 NA
HETATM    8  H   UNL     1      41.883  -9.529   6.853  1.00  0.00     0.158 HD
HETATM    9  O   UNL     1      41.077 -12.336   5.680  1.00  0.00    -0.271 OA
BRANCH   7  10
HETATM   10  N   UNL     1      40.131 -10.283   7.282  1.00  0.00    -0.205 NA
HETATM   11  C   UNL     1      40.008  -9.595   8.383  1.00  0.00     0.147 C 
BRANCH  11  12
HETATM   12  C   UNL     1      40.885  -8.629   9.094  1.00  0.00     0.019 A 
HETATM   13  C   UNL     1      40.801  -7.270   8.730  1.00  0.00     0.101 A 
HETATM   14  C   UNL     1      41.667  -6.325   9.306  1.00  0.00     0.069 A 
HETATM   15 CL   UNL     1      41.648  -4.665   8.827  1.00  0.00    -0.081 Cl
HETATM   16  C   UNL     1      42.586  -6.715  10.277  1.00  0.00     0.050 A 
HETATM   17  C   UNL     1      42.632  -8.046  10.671  1.00  0.00     0.036 A 
HETATM   18 CL   UNL     1      43.776  -8.551  11.856  1.00  0.00    -0.084 Cl
HETATM   19  C   UNL     1      41.782  -8.996  10.098  1.00  0.00     0.039 A 
BRANCH  13  20
HETATM   20  O   UNL     1      39.908  -6.880   7.761  1.00  0.00    -0.353 OA
HETATM   21  C   UNL     1      38.689  -6.392   8.334  1.00  0.00     0.210 C 
ENDBRANCH  13  20
ENDBRANCH  11  12
ENDBRANCH   7  10
ENDBRANCH   1   6
BRANCH   2  22
HETATM   22  C   UNL     1      44.581 -10.997   7.514  1.00  0.00     0.230 A 
HETATM   23  N   UNL     1      43.769 -11.554   8.409  1.00  0.00    -0.081 NA
HETATM   24  O   UNL     1      44.345 -11.231   9.638  1.00  0.00    -0.103 OA
HETATM   25  N   UNL     1      45.493 -10.471   9.467  1.00  0.00    -0.083 NA
HETATM   26  C   UNL     1      45.644 -10.331   8.152  1.00  0.00     0.201 A 
BRANCH  26  27
HETATM   27  N   UNL     1      46.657  -9.668   7.573  1.00  0.00    -0.379 N 
HETATM   28  H   UNL     1      46.648  -8.652   7.547  1.00  0.00     0.158 HD
HETATM   29  H   UNL     1      47.365 -10.107   6.991  1.00  0.00     0.158 HD
ENDBRANCH  26  27
ENDBRANCH   2  22
BRANCH   5  30
HETATM   30  C   UNL     1      42.735 -11.843   2.889  1.00  0.00     0.298 C 
BRANCH  30  31
HETATM   31  N   UNL     1      42.214 -13.285   2.928  1.00  0.00    -0.066 N 
HETATM   32  H   UNL     1      42.141 -13.490   3.936  1.00  0.00     0.280 HD
HETATM   33  C   UNL     1      40.818 -13.359   2.358  1.00  0.00     0.235 C 
HETATM   34  C   UNL     1      40.163 -14.712   2.607  1.00  0.00     0.028 C 
HETATM   35  C   UNL     1      40.703 -15.811   1.698  1.00  0.00     0.002 C 
HETATM   36  C   UNL     1      41.958 -16.509   2.208  1.00  0.00     0.002 C 
HETATM   37  C   UNL     1      43.002 -15.645   2.907  1.00  0.00     0.028 C 
HETATM   38  C   UNL     1      43.202 -14.253   2.322  1.00  0.00     0.235 C 
ENDBRANCH  30  31
ENDBRANCH   5  30
TORSDOF 8
ENDMDL
MODEL 9
REMARK VINA RESULT:      -7.9      2.334      5.206
REMARK  8 active torsions:
REMARK  status: ('A' for Active; 'I' for Inactive)
REMARK    1  A    between atoms: O_2  and  C_3 
REMARK    2  A    between atoms: C_10  and  C_11 
REMARK    3  A    between atoms: N_12  and  N_13 
REMARK       I    between atoms: N_13  and  C_14 
REMARK    4  A    between atoms: C_14  and  C_15 
REMARK    5  A    between atoms: N_16  and  C_17 
REMARK    6  A    between atoms: C_21  and  N_22 
REMARK    7  A    between atoms: C_25  and  C_26 
REMARK    8  A    between atoms: C_26  and  N_27 
ROOT
HETATM    1  C   UNL     1      42.265 -12.374   6.249  1.00  0.00     0.154 A 
HETATM    2  N   UNL     1      43.124 -11.511   6.938  1.00  0.00    -0.184 N 
HETATM    3  N   UNL     1      44.140 -12.253   7.473  1.00  0.00    -0.058 NA
HETATM    4  N   UNL     1      43.936 -13.531   7.228  1.00  0.00    -0.132 NA
HETATM    5  C   UNL     1      42.789 -13.638   6.503  1.00  0.00     0.118 A 
ENDROOT
BRANCH   1   6
HETATM    6  C   UNL     1      41.035 -12.121   5.532  1.00  0.00     0.271 C 
HETATM    7  N   UNL     1      41.123 -11.532   4.272  1.00  0.00    -0.145 NA
HETATM    8  H   UNL     1      41.955 -10.958   4.131  1.00  0.00     0.158 HD
HETATM    9  O   UNL     1      39.977 -12.548   5.992  1.00  0.00    -0.271 OA
BRANCH   7  10
HETATM   10  N   UNL     1      40.032 -10.877   3.783  1.00  0.00    -0.205 NA
HETATM   11  C   UNL     1      39.454 -11.192   2.657  1.00  0.00     0.147 C 
BRANCH  11  12
HETATM   12  C   UNL     1      39.758 -12.177   1.587  1.00  0.00     0.019 A 
HETATM   13  C   UNL     1      40.148 -11.682   0.326  1.00  0.00     0.101 A 
HETATM   14  C   UNL     1      40.363 -12.562  -0.747  1.00  0.00     0.069 A 
HETATM   15 CL   UNL     1      40.765 -11.988  -2.326  1.00  0.00    -0.081 Cl
HETATM   16  C   UNL     1      40.238 -13.937  -0.564  1.00  0.00     0.050 A 
HETATM   17  C   UNL     1      39.902 -14.425   0.693  1.00  0.00     0.036 A 
HETATM   18 CL   UNL     1      39.722 -16.121   0.934  1.00  0.00    -0.084 Cl
HETATM   19  C   UNL     1      39.677 -13.559   1.765  1.00  0.00     0.039 A 
BRANCH  13  20
HETATM   20  O   UNL     1      40.259 -10.326   0.133  1.00  0.00    -0.353 OA
HETATM   21  C   UNL     1      41.614  -9.882   0.274  1.00  0.00     0.210 C 
ENDBRANCH  13  20
ENDBRANCH  11  12
ENDBRANCH   7  10
ENDBRANCH   1   6
BRANCH   2  22
HETATM   22  C   UNL     1      43.049 -10.117   7.169  1.00  0.00     0.230 A 
HETATM   23  N   UNL     1      42.208  -9.361   6.468  1.00  0.00    -0.081 NA
HETATM   24  O   UNL     1      42.403  -8.075   6.974  1.00  0.00    -0.103 OA
HETATM   25  N   UNL     1      43.371  -8.071   7.968  1.00  0.00    -0.083 NA
HETATM   26  C   UNL     1      43.767  -9.336   8.095  1.00  0.00     0.201 A 
BRANCH  26  27
HETATM   27  N   UNL     1      44.691  -9.754   8.974  1.00  0.00    -0.379 N 
HETATM   28  H   UNL     1      45.468 -10.327   8.658  1.00  0.00     0.158 HD
HETATM   29  H   UNL     1      44.583  -9.692   9.983  1.00  0.00     0.158 HD
ENDBRANCH  26  27
ENDBRANCH   2  22
BRANCH   5  30
HETATM   30  C   UNL     1      42.302 -15.006   6.144  1.00  0.00     0.298 C 
BRANCH  30  31
HETATM   31  N   UNL     1      42.949 -15.510   4.849  1.00  0.00    -0.066 N 
HETATM   32  H   UNL     1      43.914 -15.147   4.902  1.00  0.00     0.280 HD
HETATM   33  C   UNL     1      43.040 -17.017   4.854  1.00  0.00     0.235 C 
HETATM   34  C   UNL     1      43.900 -17.548   3.714  1.00  0.00     0.028 C 
HETATM   35  C   UNL     1      43.197 -17.493   2.362  1.00  0.00     0.002 C 
HETATM   36  C   UNL     1      43.326 -16.167   1.623  1.00  0.00     0.002 C 
HETATM   37  C   UNL     1      43.270 -14.893   2.459  1.00  0.00     0.028 C 
HETATM   38  C   UNL     1      42.292 -14.916   3.627  1.00  0.00     0.235 C 
ENDBRANCH  30  31
ENDBRANCH   5  30
TORSDOF 8
ENDMDL
MODEL 10
REMARK VINA RESULT:      -7.9      4.599      6.910
REMARK  8 active torsions:
REMARK  status: ('A' for Active; 'I' for Inactive)
REMARK    1  A    between atoms: O_2  and  C_3 
REMARK    2  A    between atoms: C_10  and  C_11 
REMARK    3  A    between atoms: N_12  and  N_13 
REMARK       I    between atoms: N_13  and  C_14 
REMARK    4  A    between atoms: C_14  and  C_15 
REMARK    5  A    between atoms: N_16  and  C_17 
REMARK    6  A    between atoms: C_21  and  N_22 
REMARK    7  A    between atoms: C_25  and  C_26 
REMARK    8  A    between atoms: C_26  and  N_27 
ROOT
HETATM    1  C   UNL     1      43.039 -11.154   5.507  1.00  0.00     0.154 A 
HETATM    2  N   UNL     1      44.271 -11.073   6.166  1.00  0.00    -0.184 N 
HETATM    3  N   UNL     1      45.265 -11.184   5.234  1.00  0.00    -0.058 NA
HETATM    4  N   UNL     1      44.740 -11.403   4.046  1.00  0.00    -0.132 NA
HETATM    5  C   UNL     1      43.386 -11.413   4.184  1.00  0.00     0.118 A 
ENDROOT
BRANCH   1   6
HETATM    6  C   UNL     1      41.685 -11.123   6.013  1.00  0.00     0.271 C 
HETATM    7  N   UNL     1      41.269  -9.980   6.694  1.00  0.00    -0.145 NA
HETATM    8  H   UNL     1      42.022  -9.458   7.142  1.00  0.00     0.158 HD
HETATM    9  O   UNL     1      40.915 -12.035   5.715  1.00  0.00    -0.271 OA
BRANCH   7  10
HETATM   10  N   UNL     1      40.215 -10.084   7.553  1.00  0.00    -0.205 NA
HETATM   11  C   UNL     1      40.053  -9.299   8.583  1.00  0.00     0.147 C 
BRANCH  11  12
HETATM   12  C   UNL     1      40.868  -8.211   9.184  1.00  0.00     0.019 A 
HETATM   13  C   UNL     1      41.628  -8.513  10.331  1.00  0.00     0.101 A 
HETATM   14  C   UNL     1      42.347  -7.503  10.993  1.00  0.00     0.069 A 
HETATM   15 CL   UNL     1      43.227  -7.818  12.446  1.00  0.00    -0.081 Cl
HETATM   16  C   UNL     1      42.353  -6.203  10.494  1.00  0.00     0.050 A 
HETATM   17  C   UNL     1      41.643  -5.919   9.334  1.00  0.00     0.036 A 
HETATM   18 CL   UNL     1      41.621  -4.313   8.713  1.00  0.00    -0.084 Cl
HETATM   19  C   UNL     1      40.917  -6.913   8.673  1.00  0.00     0.039 A 
BRANCH  13  20
HETATM   20  O   UNL     1      41.615  -9.790  10.839  1.00  0.00    -0.353 OA
HETATM   21  C   UNL     1      40.648  -9.930  11.887  1.00  0.00     0.210 C 
ENDBRANCH  13  20
ENDBRANCH  11  12
ENDBRANCH   7  10
ENDBRANCH   1   6
BRANCH   2  22
HETATM   22  C   UNL     1      44.581 -10.955   7.542  1.00  0.00     0.230 A 
HETATM   23  N   UNL     1      43.789 -11.500   8.461  1.00  0.00    -0.081 NA
HETATM   24  O   UNL     1      44.412 -11.194   9.672  1.00  0.00    -0.103 OA
HETATM   25  N   UNL     1      45.568 -10.455   9.466  1.00  0.00    -0.083 NA
HETATM   26  C   UNL     1      45.678 -10.312   8.147  1.00  0.00     0.201 A 
BRANCH  26  27
HETATM   27  N   UNL     1      46.684  -9.665   7.538  1.00  0.00    -0.379 N 
HETATM   28  H   UNL     1      47.162  -8.907   8.017  1.00  0.00     0.158 HD
HETATM   29  H   UNL     1      46.900  -9.754   6.549  1.00  0.00     0.158 HD
ENDBRANCH  26  27
ENDBRANCH   2  22
BRANCH   5  30
HETATM   30  C   UNL     1      42.552 -11.704   2.978  1.00  0.00     0.298 C 
BRANCH  30  31
HETATM   31  N   UNL     1      42.036 -13.147   2.987  1.00  0.00    -0.066 N 
HETATM   32  H   UNL     1      41.888 -13.346   3.989  1.00  0.00     0.280 HD
HETATM   33  C   UNL     1      40.687 -13.232   2.315  1.00  0.00     0.235 C 
HETATM   34  C   UNL     1      40.021 -14.586   2.523  1.00  0.00     0.028 C 
HETATM   35  C   UNL     1      40.631 -15.688   1.666  1.00  0.00     0.002 C 
HETATM   36  C   UNL     1      41.848 -16.377   2.273  1.00  0.00     0.002 C 
HETATM   37  C   UNL     1      42.833 -15.504   3.042  1.00  0.00     0.028 C 
HETATM   38  C   UNL     1      43.070 -14.115   2.465  1.00  0.00     0.235 C 
ENDBRANCH  30  31
ENDBRANCH   5  30
TORSDOF 8
ENDMDL
