MODEL 1
REMARK VINA RESULT:     -10.1      0.000      0.000
REMARK  6 active torsions:
REMARK  status: ('A' for Active; 'I' for Inactive)
REMARK    1  A    between atoms: C_8  and  C_9 
REMARK       I    between atoms: C_9  and  N_10 
REMARK    2  A    between atoms: N_10  and  N_11 
REMARK       I    between atoms: N_11  and  C_12 
REMARK    3  A    between atoms: C_12  and  C_13 
REMARK    4  A    between atoms: C_13  and  C_14 
REMARK    5  A    between atoms: C_14  and  N_15 
REMARK    6  A    between atoms: C_28  and  O_29 
ROOT
HETATM    1  N   UNL     1      43.050 -12.857   7.146  1.00  0.00    -0.267 N 
HETATM    2  C   UNL     1      44.092 -11.963   7.011  1.00  0.00     0.237 C 
HETATM    3  O   UNL     1      45.235 -12.325   6.740  1.00  0.00    -0.272 OA
HETATM    4  H   UNL     1      42.070 -12.583   7.213  1.00  0.00     0.190 HD
ENDROOT
BRANCH   1   5
HETATM    5  N   UNL     1      43.311 -14.203   6.871  1.00  0.00    -0.263 N 
HETATM    6  C   UNL     1      42.561 -14.833   5.901  1.00  0.00     0.272 C 
HETATM    7  O   UNL     1      41.640 -14.266   5.309  1.00  0.00    -0.266 OA
HETATM    8  H   UNL     1      44.196 -14.556   7.231  1.00  0.00     0.190 HD
BRANCH   6   9
HETATM    9  C   UNL     1      42.918 -16.237   5.547  1.00  0.00     0.067 A 
HETATM   10  C   UNL     1      42.956 -16.678   4.215  1.00  0.00     0.032 A 
HETATM   11  C   UNL     1      43.286 -18.010   3.900  1.00  0.00    -0.025 A 
HETATM   12  C   UNL     1      43.314 -18.460   2.571  1.00  0.00     0.012 A 
HETATM   13  C   UNL     1      43.596 -18.914   4.942  1.00  0.00    -0.023 A 
HETATM   14  C   UNL     1      43.643 -19.783   2.272  1.00  0.00     0.001 A 
HETATM   15  C   UNL     1      43.949 -20.673   3.297  1.00  0.00     0.001 A 
HETATM   16  C   UNL     1      43.926 -20.242   4.625  1.00  0.00     0.012 A 
HETATM   17  C   UNL     1      43.574 -18.465   6.269  1.00  0.00     0.049 A 
HETATM   18  C   UNL     1      43.246 -17.142   6.566  1.00  0.00     0.082 A 
BRANCH  18  19
HETATM   19  O   UNL     1      43.269 -16.807   7.895  1.00  0.00    -0.360 OA
HETATM   20  H   UNL     1      44.112 -16.335   8.076  1.00  0.00     0.217 HD
ENDBRANCH  18  19
ENDBRANCH   6   9
ENDBRANCH   1   5
BRANCH   2  21
HETATM   21  C   UNL     1      43.691 -10.527   7.239  1.00  0.00     0.125 C 
BRANCH  21  22
HETATM   22  C   UNL     1      44.750  -9.802   8.062  1.00  0.00     0.145 C 
BRANCH  22  23
HETATM   23  N   UNL     1      44.180  -9.150   9.226  1.00  0.00    -0.279 N 
HETATM   24  C   UNL     1      44.165  -9.698  10.479  1.00  0.00     0.261 A 
HETATM   25  O   UNL     1      44.612 -10.765  10.852  1.00  0.00    -0.267 OA
HETATM   26  C   UNL     1      43.504  -8.728  11.348  1.00  0.00     0.048 A 
HETATM   27  C   UNL     1      43.189  -7.622  10.578  1.00  0.00     0.048 A 
HETATM   28  C   UNL     1      43.199  -8.792  12.694  1.00  0.00     0.018 A 
HETATM   29  C   UNL     1      43.651  -7.887   9.217  1.00  0.00     0.261 A 
HETATM   30  C   UNL     1      42.550  -6.519  11.108  1.00  0.00     0.018 A 
HETATM   31  O   UNL     1      43.573  -7.095   8.299  1.00  0.00    -0.267 OA
HETATM   32  C   UNL     1      42.227  -6.561  12.469  1.00  0.00     0.001 A 
HETATM   33  C   UNL     1      42.550  -7.688  13.255  1.00  0.00     0.001 A 
ENDBRANCH  22  23
ENDBRANCH  21  22
ENDBRANCH   2  21
TORSDOF 6
ENDMDL
MODEL 2
REMARK VINA RESULT:     -10.1      1.239      2.127
REMARK  6 active torsions:
REMARK  status: ('A' for Active; 'I' for Inactive)
REMARK    1  A    between atoms: C_8  and  C_9 
REMARK       I    between atoms: C_9  and  N_10 
REMARK    2  A    between atoms: N_10  and  N_11 
REMARK       I    between atoms: N_11  and  C_12 
REMARK    3  A    between atoms: C_12  and  C_13 
REMARK    4  A    between atoms: C_13  and  C_14 
REMARK    5  A    between atoms: C_14  and  N_15 
REMARK    6  A    between atoms: C_28  and  O_29 
ROOT
HETATM    1  N   UNL     1      42.532 -12.466   5.815  1.00  0.00    -0.267 N 
HETATM    2  C   UNL     1      43.496 -12.048   6.709  1.00  0.00     0.237 C 
HETATM    3  O   UNL     1      44.328 -12.817   7.185  1.00  0.00    -0.272 OA
HETATM    4  H   UNL     1      41.933 -11.833   5.286  1.00  0.00     0.190 HD
ENDROOT
BRANCH   1   5
HETATM    5  N   UNL     1      42.582 -13.796   5.384  1.00  0.00    -0.263 N 
HETATM    6  C   UNL     1      42.982 -14.052   4.090  1.00  0.00     0.272 C 
HETATM    7  O   UNL     1      43.245 -13.150   3.292  1.00  0.00    -0.266 OA
HETATM    8  H   UNL     1      42.556 -14.494   6.126  1.00  0.00     0.190 HD
BRANCH   6   9
HETATM    9  C   UNL     1      43.129 -15.477   3.676  1.00  0.00     0.067 A 
HETATM   10  C   UNL     1      43.460 -16.485   4.596  1.00  0.00     0.032 A 
HETATM   11  C   UNL     1      43.604 -17.823   4.185  1.00  0.00    -0.025 A 
HETATM   12  C   UNL     1      43.946 -18.834   5.097  1.00  0.00     0.012 A 
HETATM   13  C   UNL     1      43.399 -18.160   2.827  1.00  0.00    -0.023 A 
HETATM   14  C   UNL     1      44.085 -20.158   4.678  1.00  0.00     0.001 A 
HETATM   15  C   UNL     1      43.883 -20.490   3.341  1.00  0.00     0.001 A 
HETATM   16  C   UNL     1      43.541 -19.497   2.421  1.00  0.00     0.012 A 
HETATM   17  C   UNL     1      43.051 -17.154   1.916  1.00  0.00     0.049 A 
HETATM   18  C   UNL     1      42.913 -15.832   2.337  1.00  0.00     0.082 A 
BRANCH  18  19
HETATM   19  O   UNL     1      42.556 -14.931   1.366  1.00  0.00    -0.360 OA
HETATM   20  H   UNL     1      42.578 -15.393   0.499  1.00  0.00     0.217 HD
ENDBRANCH  18  19
ENDBRANCH   6   9
ENDBRANCH   1   5
BRANCH   2  21
HETATM   21  C   UNL     1      43.415 -10.578   7.043  1.00  0.00     0.125 C 
BRANCH  21  22
HETATM   22  C   UNL     1      44.532 -10.188   8.003  1.00  0.00     0.145 C 
BRANCH  22  23
HETATM   23  N   UNL     1      44.036  -9.423   9.131  1.00  0.00    -0.279 N 
HETATM   24  C   UNL     1      43.999  -9.890  10.416  1.00  0.00     0.261 A 
HETATM   25  O   UNL     1      44.368 -10.963  10.851  1.00  0.00    -0.267 OA
HETATM   26  C   UNL     1      43.431  -8.818  11.231  1.00  0.00     0.048 A 
HETATM   27  C   UNL     1      43.190  -7.741  10.397  1.00  0.00     0.048 A 
HETATM   28  C   UNL     1      43.145  -8.775  12.582  1.00  0.00     0.018 A 
HETATM   29  C   UNL     1      43.607  -8.125   9.049  1.00  0.00     0.261 A 
HETATM   30  C   UNL     1      42.649  -6.559  10.864  1.00  0.00     0.018 A 
HETATM   31  O   UNL     1      43.575  -7.387   8.084  1.00  0.00    -0.267 OA
HETATM   32  C   UNL     1      42.347  -6.492  12.229  1.00  0.00     0.001 A 
HETATM   33  C   UNL     1      42.594  -7.590  13.080  1.00  0.00     0.001 A 
ENDBRANCH  22  23
ENDBRANCH  21  22
ENDBRANCH   2  21
TORSDOF 6
ENDMDL
MODEL 3
REMARK VINA RESULT:     -10.0      1.274      2.658
REMARK  6 active torsions:
REMARK  status: ('A' for Active; 'I' for Inactive)
REMARK    1  A    between atoms: C_8  and  C_9 
REMARK       I    between atoms: C_9  and  N_10 
REMARK    2  A    between atoms: N_10  and  N_11 
REMARK       I    between atoms: N_11  and  C_12 
REMARK    3  A    between atoms: C_12  and  C_13 
REMARK    4  A    between atoms: C_13  and  C_14 
REMARK    5  A    between atoms: C_14  and  N_15 
REMARK    6  A    between atoms: C_28  and  O_29 
ROOT
HETATM    1  N   UNL     1      42.517 -12.613   5.662  1.00  0.00    -0.267 N 
HETATM    2  C   UNL     1      43.419 -12.163   6.603  1.00  0.00     0.237 C 
HETATM    3  O   UNL     1      44.207 -12.917   7.172  1.00  0.00    -0.272 OA
HETATM    4  H   UNL     1      41.964 -12.000   5.064  1.00  0.00     0.190 HD
ENDROOT
BRANCH   1   5
HETATM    5  N   UNL     1      42.583 -13.962   5.295  1.00  0.00    -0.263 N 
HETATM    6  C   UNL     1      43.008 -14.274   4.021  1.00  0.00     0.272 C 
HETATM    7  O   UNL     1      43.279 -13.409   3.186  1.00  0.00    -0.266 OA
HETATM    8  H   UNL     1      42.549 -14.624   6.068  1.00  0.00     0.190 HD
BRANCH   6   9
HETATM    9  C   UNL     1      43.171 -15.717   3.677  1.00  0.00     0.067 A 
HETATM   10  C   UNL     1      43.478 -16.680   4.651  1.00  0.00     0.032 A 
HETATM   11  C   UNL     1      43.638 -18.035   4.307  1.00  0.00    -0.025 A 
HETATM   12  C   UNL     1      43.956 -19.002   5.273  1.00  0.00     0.012 A 
HETATM   13  C   UNL     1      43.474 -18.435   2.960  1.00  0.00    -0.023 A 
HETATM   14  C   UNL     1      44.111 -20.343   4.919  1.00  0.00     0.001 A 
HETATM   15  C   UNL     1      43.949 -20.736   3.594  1.00  0.00     0.001 A 
HETATM   16  C   UNL     1      43.633 -19.788   2.619  1.00  0.00     0.012 A 
HETATM   17  C   UNL     1      43.151 -17.472   1.994  1.00  0.00     0.049 A 
HETATM   18  C   UNL     1      42.996 -16.133   2.350  1.00  0.00     0.082 A 
BRANCH  18  19
HETATM   19  O   UNL     1      42.666 -15.279   1.329  1.00  0.00    -0.360 OA
HETATM   20  H   UNL     1      43.289 -15.437   0.585  1.00  0.00     0.217 HD
ENDBRANCH  18  19
ENDBRANCH   6   9
ENDBRANCH   1   5
BRANCH   2  21
HETATM   21  C   UNL     1      43.331 -10.679   6.865  1.00  0.00     0.125 C 
BRANCH  21  22
HETATM   22  C   UNL     1      44.486 -10.225   7.750  1.00  0.00     0.145 C 
BRANCH  22  23
HETATM   23  N   UNL     1      44.023  -9.499   8.917  1.00  0.00    -0.279 N 
HETATM   24  C   UNL     1      43.576  -8.206   8.887  1.00  0.00     0.261 A 
HETATM   25  O   UNL     1      43.465  -7.457   7.936  1.00  0.00    -0.267 OA
HETATM   26  C   UNL     1      43.213  -7.861  10.259  1.00  0.00     0.048 A 
HETATM   27  C   UNL     1      43.423  -8.981  11.043  1.00  0.00     0.048 A 
HETATM   28  C   UNL     1      42.739  -6.676  10.789  1.00  0.00     0.018 A 
HETATM   29  C   UNL     1      43.919 -10.043  10.169  1.00  0.00     0.261 A 
HETATM   30  C   UNL     1      43.174  -8.982  12.401  1.00  0.00     0.018 A 
HETATM   31  O   UNL     1      44.158 -11.177  10.534  1.00  0.00    -0.267 OA
HETATM   32  C   UNL     1      42.697  -7.793  12.963  1.00  0.00     0.001 A 
HETATM   33  C   UNL     1      42.480  -6.650  12.164  1.00  0.00     0.001 A 
ENDBRANCH  22  23
ENDBRANCH  21  22
ENDBRANCH   2  21
TORSDOF 6
ENDMDL
MODEL 4
REMARK VINA RESULT:      -9.8      1.830     10.431
REMARK  6 active torsions:
REMARK  status: ('A' for Active; 'I' for Inactive)
REMARK    1  A    between atoms: C_8  and  C_9 
REMARK       I    between atoms: C_9  and  N_10 
REMARK    2  A    between atoms: N_10  and  N_11 
REMARK       I    between atoms: N_11  and  C_12 
REMARK    3  A    between atoms: C_12  and  C_13 
REMARK    4  A    between atoms: C_13  and  C_14 
REMARK    5  A    between atoms: C_14  and  N_15 
REMARK    6  A    between atoms: C_28  and  O_29 
ROOT
HETATM    1  N   UNL     1      43.101 -11.561   6.794  1.00  0.00    -0.267 N 
HETATM    2  C   UNL     1      42.818 -10.959   5.586  1.00  0.00     0.237 C 
HETATM    3  O   UNL     1      42.248  -9.873   5.511  1.00  0.00    -0.272 OA
HETATM    4  H   UNL     1      43.706 -12.376   6.896  1.00  0.00     0.190 HD
ENDROOT
BRANCH   1   5
HETATM    5  N   UNL     1      42.799 -10.849   7.959  1.00  0.00    -0.263 N 
HETATM    6  C   UNL     1      43.781 -10.711   8.917  1.00  0.00     0.272 C 
HETATM    7  O   UNL     1      44.891 -11.237   8.804  1.00  0.00    -0.266 OA
HETATM    8  H   UNL     1      41.960 -10.275   7.911  1.00  0.00     0.190 HD
BRANCH   6   9
HETATM    9  C   UNL     1      43.478  -9.864  10.107  1.00  0.00     0.067 A 
HETATM   10  C   UNL     1      43.143  -8.507   9.982  1.00  0.00     0.032 A 
HETATM   11  C   UNL     1      42.870  -7.720  11.117  1.00  0.00    -0.025 A 
HETATM   12  C   UNL     1      42.544  -6.359  11.001  1.00  0.00     0.012 A 
HETATM   13  C   UNL     1      42.922  -8.309  12.401  1.00  0.00    -0.023 A 
HETATM   14  C   UNL     1      42.275  -5.589  12.133  1.00  0.00     0.001 A 
HETATM   15  C   UNL     1      42.327  -6.169  13.398  1.00  0.00     0.001 A 
HETATM   16  C   UNL     1      42.648  -7.521  13.531  1.00  0.00     0.012 A 
HETATM   17  C   UNL     1      43.241  -9.668  12.519  1.00  0.00     0.049 A 
HETATM   18  C   UNL     1      43.509 -10.436  11.386  1.00  0.00     0.082 A 
BRANCH  18  19
HETATM   19  O   UNL     1      43.796 -11.757  11.616  1.00  0.00    -0.360 OA
HETATM   20  H   UNL     1      44.040 -12.170  10.757  1.00  0.00     0.217 HD
ENDBRANCH  18  19
ENDBRANCH   6   9
ENDBRANCH   1   5
BRANCH   2  21
HETATM   21  C   UNL     1      43.263 -11.764   4.389  1.00  0.00     0.125 C 
BRANCH  21  22
HETATM   22  C   UNL     1      42.138 -12.677   3.913  1.00  0.00     0.145 C 
BRANCH  22  23
HETATM   23  N   UNL     1      42.563 -14.060   3.824  1.00  0.00    -0.279 N 
HETATM   24  C   UNL     1      42.937 -14.817   4.900  1.00  0.00     0.261 A 
HETATM   25  O   UNL     1      42.970 -14.511   6.076  1.00  0.00    -0.267 OA
HETATM   26  C   UNL     1      43.291 -16.135   4.378  1.00  0.00     0.048 A 
HETATM   27  C   UNL     1      43.073 -16.116   3.012  1.00  0.00     0.048 A 
HETATM   28  C   UNL     1      43.762 -17.260   5.028  1.00  0.00     0.018 A 
HETATM   29  C   UNL     1      42.578 -14.786   2.663  1.00  0.00     0.261 A 
HETATM   30  C   UNL     1      43.315 -17.219   2.217  1.00  0.00     0.018 A 
HETATM   31  O   UNL     1      42.241 -14.450   1.545  1.00  0.00    -0.267 OA
HETATM   32  C   UNL     1      43.796 -18.370   2.851  1.00  0.00     0.001 A 
HETATM   33  C   UNL     1      44.017 -18.390   4.245  1.00  0.00     0.001 A 
ENDBRANCH  22  23
ENDBRANCH  21  22
ENDBRANCH   2  21
TORSDOF 6
ENDMDL
MODEL 5
REMARK VINA RESULT:      -9.7      2.008      2.926
REMARK  6 active torsions:
REMARK  status: ('A' for Active; 'I' for Inactive)
REMARK    1  A    between atoms: C_8  and  C_9 
REMARK       I    between atoms: C_9  and  N_10 
REMARK    2  A    between atoms: N_10  and  N_11 
REMARK       I    between atoms: N_11  and  C_12 
REMARK    3  A    between atoms: C_12  and  C_13 
REMARK    4  A    between atoms: C_13  and  C_14 
REMARK    5  A    between atoms: C_14  and  N_15 
REMARK    6  A    between atoms: C_28  and  O_29 
ROOT
HETATM    1  N   UNL     1      41.440 -12.604   4.905  1.00  0.00    -0.267 N 
HETATM    2  C   UNL     1      40.419 -12.172   5.726  1.00  0.00     0.237 C 
HETATM    3  O   UNL     1      39.737 -12.950   6.391  1.00  0.00    -0.272 OA
HETATM    4  H   UNL     1      42.120 -11.984   4.466  1.00  0.00     0.190 HD
ENDROOT
BRANCH   1   5
HETATM    5  N   UNL     1      41.747 -13.969   4.918  1.00  0.00    -0.263 N 
HETATM    6  C   UNL     1      42.683 -14.439   4.021  1.00  0.00     0.272 C 
HETATM    7  O   UNL     1      43.215 -13.710   3.181  1.00  0.00    -0.266 OA
HETATM    8  H   UNL     1      41.442 -14.475   5.747  1.00  0.00     0.190 HD
BRANCH   6   9
HETATM    9  C   UNL     1      43.076 -15.876   4.114  1.00  0.00     0.067 A 
HETATM   10  C   UNL     1      42.892 -16.763   3.043  1.00  0.00     0.032 A 
HETATM   11  C   UNL     1      43.259 -18.118   3.151  1.00  0.00    -0.025 A 
HETATM   12  C   UNL     1      43.067 -19.014   2.087  1.00  0.00     0.012 A 
HETATM   13  C   UNL     1      43.834 -18.588   4.354  1.00  0.00    -0.023 A 
HETATM   14  C   UNL     1      43.436 -20.354   2.207  1.00  0.00     0.001 A 
HETATM   15  C   UNL     1      44.003 -20.818   3.392  1.00  0.00     0.001 A 
HETATM   16  C   UNL     1      44.201 -19.940   4.459  1.00  0.00     0.012 A 
HETATM   17  C   UNL     1      44.032 -17.694   5.415  1.00  0.00     0.049 A 
HETATM   18  C   UNL     1      43.663 -16.355   5.293  1.00  0.00     0.082 A 
BRANCH  18  19
HETATM   19  O   UNL     1      43.914 -15.566   6.386  1.00  0.00    -0.360 OA
HETATM   20  H   UNL     1      43.769 -16.108   7.194  1.00  0.00     0.217 HD
ENDBRANCH  18  19
ENDBRANCH   6   9
ENDBRANCH   1   5
BRANCH   2  21
HETATM   21  C   UNL     1      40.224 -10.676   5.712  1.00  0.00     0.125 C 
BRANCH  21  22
HETATM   22  C   UNL     1      41.551  -9.967   5.468  1.00  0.00     0.145 C 
BRANCH  22  23
HETATM   23  N   UNL     1      42.336  -9.852   6.683  1.00  0.00    -0.279 N 
HETATM   24  C   UNL     1      43.516 -10.509   6.897  1.00  0.00     0.261 A 
HETATM   25  O   UNL     1      44.119 -11.260   6.155  1.00  0.00    -0.267 OA
HETATM   26  C   UNL     1      43.970 -10.122   8.231  1.00  0.00     0.048 A 
HETATM   27  C   UNL     1      43.055  -9.217   8.738  1.00  0.00     0.048 A 
HETATM   28  C   UNL     1      45.082 -10.519   8.949  1.00  0.00     0.018 A 
HETATM   29  C   UNL     1      42.018  -9.024   7.726  1.00  0.00     0.261 A 
HETATM   30  C   UNL     1      43.199  -8.657   9.992  1.00  0.00     0.018 A 
HETATM   31  O   UNL     1      41.087  -8.251   7.835  1.00  0.00    -0.267 OA
HETATM   32  C   UNL     1      44.315  -9.045  10.741  1.00  0.00     0.001 A 
HETATM   33  C   UNL     1      45.249  -9.967  10.223  1.00  0.00     0.001 A 
ENDBRANCH  22  23
ENDBRANCH  21  22
ENDBRANCH   2  21
TORSDOF 6
ENDMDL
MODEL 6
REMARK VINA RESULT:      -9.6      1.854      2.923
REMARK  6 active torsions:
REMARK  status: ('A' for Active; 'I' for Inactive)
REMARK    1  A    between atoms: C_8  and  C_9 
REMARK       I    between atoms: C_9  and  N_10 
REMARK    2  A    between atoms: N_10  and  N_11 
REMARK       I    between atoms: N_11  and  C_12 
REMARK    3  A    between atoms: C_12  and  C_13 
REMARK    4  A    between atoms: C_13  and  C_14 
REMARK    5  A    between atoms: C_14  and  N_15 
REMARK    6  A    between atoms: C_28  and  O_29 
ROOT
HETATM    1  N   UNL     1      41.093 -13.238   6.435  1.00  0.00    -0.267 N 
HETATM    2  C   UNL     1      40.316 -12.403   5.659  1.00  0.00     0.237 C 
HETATM    3  O   UNL     1      39.993 -12.690   4.507  1.00  0.00    -0.272 OA
HETATM    4  H   UNL     1      41.246 -13.107   7.434  1.00  0.00     0.190 HD
ENDROOT
BRANCH   1   5
HETATM    5  N   UNL     1      41.436 -14.485   5.902  1.00  0.00    -0.263 N 
HETATM    6  C   UNL     1      42.726 -14.940   6.073  1.00  0.00     0.272 C 
HETATM    7  O   UNL     1      43.594 -14.265   6.631  1.00  0.00    -0.266 OA
HETATM    8  H   UNL     1      40.649 -15.076   5.640  1.00  0.00     0.190 HD
BRANCH   6   9
HETATM    9  C   UNL     1      43.050 -16.313   5.589  1.00  0.00     0.067 A 
HETATM   10  C   UNL     1      42.967 -16.658   4.231  1.00  0.00     0.032 A 
HETATM   11  C   UNL     1      43.267 -17.962   3.794  1.00  0.00    -0.025 A 
HETATM   12  C   UNL     1      43.176 -18.316   2.438  1.00  0.00     0.012 A 
HETATM   13  C   UNL     1      43.670 -18.936   4.736  1.00  0.00    -0.023 A 
HETATM   14  C   UNL     1      43.477 -19.612   2.017  1.00  0.00     0.001 A 
HETATM   15  C   UNL     1      43.874 -20.571   2.945  1.00  0.00     0.001 A 
HETATM   16  C   UNL     1      43.970 -20.235   4.296  1.00  0.00     0.012 A 
HETATM   17  C   UNL     1      43.768 -18.583   6.089  1.00  0.00     0.049 A 
HETATM   18  C   UNL     1      43.467 -17.287   6.507  1.00  0.00     0.082 A 
BRANCH  18  19
HETATM   19  O   UNL     1      43.610 -17.046   7.850  1.00  0.00    -0.360 OA
HETATM   20  H   UNL     1      43.362 -17.865   8.335  1.00  0.00     0.217 HD
ENDBRANCH  18  19
ENDBRANCH   6   9
ENDBRANCH   1   5
BRANCH   2  21
HETATM   21  C   UNL     1      39.923 -11.123   6.353  1.00  0.00     0.125 C 
BRANCH  21  22
HETATM   22  C   UNL     1      40.951 -10.031   6.080  1.00  0.00     0.145 C 
BRANCH  22  23
HETATM   23  N   UNL     1      41.889  -9.882   7.176  1.00  0.00    -0.279 N 
HETATM   24  C   UNL     1      41.597  -9.251   8.353  1.00  0.00     0.261 A 
HETATM   25  O   UNL     1      40.554  -8.736   8.707  1.00  0.00    -0.267 OA
HETATM   26  C   UNL     1      42.805  -9.320   9.172  1.00  0.00     0.048 A 
HETATM   27  C   UNL     1      43.755 -10.027   8.457  1.00  0.00     0.048 A 
HETATM   28  C   UNL     1      43.064  -8.814  10.432  1.00  0.00     0.018 A 
HETATM   29  C   UNL     1      43.152 -10.412   7.183  1.00  0.00     0.261 A 
HETATM   30  C   UNL     1      45.019 -10.268   8.959  1.00  0.00     0.018 A 
HETATM   31  O   UNL     1      43.704 -11.088   6.338  1.00  0.00    -0.267 OA
HETATM   32  C   UNL     1      45.307  -9.762  10.232  1.00  0.00     0.001 A 
HETATM   33  C   UNL     1      44.338  -9.043  10.962  1.00  0.00     0.001 A 
ENDBRANCH  22  23
ENDBRANCH  21  22
ENDBRANCH   2  21
TORSDOF 6
ENDMDL
MODEL 7
REMARK VINA RESULT:      -9.6      1.500     10.779
REMARK  6 active torsions:
REMARK  status: ('A' for Active; 'I' for Inactive)
REMARK    1  A    between atoms: C_8  and  C_9 
REMARK       I    between atoms: C_9  and  N_10 
REMARK    2  A    between atoms: N_10  and  N_11 
REMARK       I    between atoms: N_11  and  C_12 
REMARK    3  A    between atoms: C_12  and  C_13 
REMARK    4  A    between atoms: C_13  and  C_14 
REMARK    5  A    between atoms: C_14  and  N_15 
REMARK    6  A    between atoms: C_28  and  O_29 
ROOT
HETATM    1  N   UNL     1      42.737 -10.947   6.962  1.00  0.00    -0.267 N 
HETATM    2  C   UNL     1      43.676 -11.892   6.609  1.00  0.00     0.237 C 
HETATM    3  O   UNL     1      44.476 -12.357   7.419  1.00  0.00    -0.272 OA
HETATM    4  H   UNL     1      41.965 -10.659   6.361  1.00  0.00     0.190 HD
ENDROOT
BRANCH   1   5
HETATM    5  N   UNL     1      42.653 -10.588   8.312  1.00  0.00    -0.263 N 
HETATM    6  C   UNL     1      43.280  -9.432   8.723  1.00  0.00     0.272 C 
HETATM    7  O   UNL     1      43.950  -8.736   7.956  1.00  0.00    -0.266 OA
HETATM    8  H   UNL     1      41.934 -11.073   8.845  1.00  0.00     0.190 HD
BRANCH   6   9
HETATM    9  C   UNL     1      43.098  -9.008  10.142  1.00  0.00     0.067 A 
HETATM   10  C   UNL     1      42.784  -7.684  10.485  1.00  0.00     0.032 A 
HETATM   11  C   UNL     1      42.625  -7.300  11.830  1.00  0.00    -0.025 A 
HETATM   12  C   UNL     1      42.323  -5.975  12.180  1.00  0.00     0.012 A 
HETATM   13  C   UNL     1      42.772  -8.268  12.851  1.00  0.00    -0.023 A 
HETATM   14  C   UNL     1      42.167  -5.608  13.517  1.00  0.00     0.001 A 
HETATM   15  C   UNL     1      42.311  -6.560  14.523  1.00  0.00     0.001 A 
HETATM   16  C   UNL     1      42.612  -7.882  14.191  1.00  0.00     0.012 A 
HETATM   17  C   UNL     1      43.068  -9.592  12.503  1.00  0.00     0.049 A 
HETATM   18  C   UNL     1      43.223  -9.958  11.166  1.00  0.00     0.082 A 
BRANCH  18  19
HETATM   19  O   UNL     1      43.497 -11.282  10.938  1.00  0.00    -0.360 OA
HETATM   20  H   UNL     1      42.643 -11.755  10.820  1.00  0.00     0.217 HD
ENDBRANCH  18  19
ENDBRANCH   6   9
ENDBRANCH   1   5
BRANCH   2  21
HETATM   21  C   UNL     1      43.628 -12.280   5.151  1.00  0.00     0.125 C 
BRANCH  21  22
HETATM   22  C   UNL     1      42.410 -13.153   4.872  1.00  0.00     0.145 C 
BRANCH  22  23
HETATM   23  N   UNL     1      42.785 -14.506   4.507  1.00  0.00    -0.279 N 
HETATM   24  C   UNL     1      42.806 -14.974   3.222  1.00  0.00     0.261 A 
HETATM   25  O   UNL     1      42.549 -14.386   2.190  1.00  0.00    -0.267 OA
HETATM   26  C   UNL     1      43.232 -16.370   3.296  1.00  0.00     0.048 A 
HETATM   27  C   UNL     1      43.485 -16.661   4.624  1.00  0.00     0.048 A 
HETATM   28  C   UNL     1      43.389 -17.313   2.298  1.00  0.00     0.018 A 
HETATM   29  C   UNL     1      43.223 -15.449   5.399  1.00  0.00     0.261 A 
HETATM   30  C   UNL     1      43.908 -17.910   5.032  1.00  0.00     0.018 A 
HETATM   31  O   UNL     1      43.396 -15.349   6.597  1.00  0.00    -0.267 OA
HETATM   32  C   UNL     1      44.071 -18.884   4.041  1.00  0.00     0.001 A 
HETATM   33  C   UNL     1      43.814 -18.587   2.685  1.00  0.00     0.001 A 
ENDBRANCH  22  23
ENDBRANCH  21  22
ENDBRANCH   2  21
TORSDOF 6
ENDMDL
MODEL 8
REMARK VINA RESULT:      -9.5      1.797     10.426
REMARK  6 active torsions:
REMARK  status: ('A' for Active; 'I' for Inactive)
REMARK    1  A    between atoms: C_8  and  C_9 
REMARK       I    between atoms: C_9  and  N_10 
REMARK    2  A    between atoms: N_10  and  N_11 
REMARK       I    between atoms: N_11  and  C_12 
REMARK    3  A    between atoms: C_12  and  C_13 
REMARK    4  A    between atoms: C_13  and  C_14 
REMARK    5  A    between atoms: C_14  and  N_15 
REMARK    6  A    between atoms: C_28  and  O_29 
ROOT
HETATM    1  N   UNL     1      42.429 -12.484   5.728  1.00  0.00    -0.267 N 
HETATM    2  C   UNL     1      41.264 -13.141   5.391  1.00  0.00     0.237 C 
HETATM    3  O   UNL     1      40.334 -13.278   6.185  1.00  0.00    -0.272 OA
HETATM    4  H   UNL     1      43.147 -12.218   5.055  1.00  0.00     0.190 HD
ENDROOT
BRANCH   1   5
HETATM    5  N   UNL     1      42.493 -11.885   6.990  1.00  0.00    -0.263 N 
HETATM    6  C   UNL     1      43.461 -10.929   7.214  1.00  0.00     0.272 C 
HETATM    7  O   UNL     1      44.298 -10.626   6.360  1.00  0.00    -0.266 OA
HETATM    8  H   UNL     1      41.670 -12.017   7.576  1.00  0.00     0.190 HD
BRANCH   6   9
HETATM    9  C   UNL     1      43.453 -10.226   8.530  1.00  0.00     0.067 A 
HETATM   10  C   UNL     1      42.339  -9.497   8.972  1.00  0.00     0.032 A 
HETATM   11  C   UNL     1      42.352  -8.831  10.213  1.00  0.00    -0.025 A 
HETATM   12  C   UNL     1      41.245  -8.091  10.657  1.00  0.00     0.012 A 
HETATM   13  C   UNL     1      43.503  -8.909  11.031  1.00  0.00    -0.023 A 
HETATM   14  C   UNL     1      41.272  -7.436  11.889  1.00  0.00     0.001 A 
HETATM   15  C   UNL     1      42.404  -7.513  12.694  1.00  0.00     0.001 A 
HETATM   16  C   UNL     1      43.514  -8.245  12.268  1.00  0.00     0.012 A 
HETATM   17  C   UNL     1      44.607  -9.652  10.592  1.00  0.00     0.049 A 
HETATM   18  C   UNL     1      44.579 -10.306   9.360  1.00  0.00     0.082 A 
BRANCH  18  19
HETATM   19  O   UNL     1      45.707 -11.016   9.037  1.00  0.00    -0.360 OA
HETATM   20  H   UNL     1      45.848 -11.698   9.730  1.00  0.00     0.217 HD
ENDBRANCH  18  19
ENDBRANCH   6   9
ENDBRANCH   1   5
BRANCH   2  21
HETATM   21  C   UNL     1      41.255 -13.674   3.980  1.00  0.00     0.125 C 
BRANCH  21  22
HETATM   22  C   UNL     1      42.676 -13.966   3.512  1.00  0.00     0.145 C 
BRANCH  22  23
HETATM   23  N   UNL     1      42.985 -15.382   3.566  1.00  0.00    -0.279 N 
HETATM   24  C   UNL     1      42.928 -16.220   2.486  1.00  0.00     0.261 A 
HETATM   25  O   UNL     1      42.644 -15.962   1.332  1.00  0.00    -0.267 OA
HETATM   26  C   UNL     1      43.307 -17.546   2.969  1.00  0.00     0.048 A 
HETATM   27  C   UNL     1      43.612 -17.430   4.313  1.00  0.00     0.048 A 
HETATM   28  C   UNL     1      43.383 -18.754   2.303  1.00  0.00     0.018 A 
HETATM   29  C   UNL     1      43.430 -16.029   4.687  1.00  0.00     0.261 A 
HETATM   30  C   UNL     1      44.010 -18.515   5.069  1.00  0.00     0.018 A 
HETATM   31  O   UNL     1      43.663 -15.577   5.791  1.00  0.00    -0.267 OA
HETATM   32  C   UNL     1      44.090 -19.751   4.419  1.00  0.00     0.001 A 
HETATM   33  C   UNL     1      43.780 -19.869   3.047  1.00  0.00     0.001 A 
ENDBRANCH  22  23
ENDBRANCH  21  22
ENDBRANCH   2  21
TORSDOF 6
ENDMDL
MODEL 9
REMARK VINA RESULT:      -9.3      5.334      7.980
REMARK  6 active torsions:
REMARK  status: ('A' for Active; 'I' for Inactive)
REMARK    1  A    between atoms: C_8  and  C_9 
REMARK       I    between atoms: C_9  and  N_10 
REMARK    2  A    between atoms: N_10  and  N_11 
REMARK       I    between atoms: N_11  and  C_12 
REMARK    3  A    between atoms: C_12  and  C_13 
REMARK    4  A    between atoms: C_13  and  C_14 
REMARK    5  A    between atoms: C_14  and  N_15 
REMARK    6  A    between atoms: C_28  and  O_29 
ROOT
HETATM    1  N   UNL     1      41.887 -13.058   4.091  1.00  0.00    -0.267 N 
HETATM    2  C   UNL     1      42.690 -12.221   3.344  1.00  0.00     0.237 C 
HETATM    3  O   UNL     1      43.704 -12.620   2.775  1.00  0.00    -0.272 OA
HETATM    4  H   UNL     1      40.965 -12.798   4.442  1.00  0.00     0.190 HD
ENDROOT
BRANCH   1   5
HETATM    5  N   UNL     1      42.209 -14.419   4.109  1.00  0.00    -0.263 N 
HETATM    6  C   UNL     1      42.920 -14.910   5.184  1.00  0.00     0.272 C 
HETATM    7  O   UNL     1      43.321 -14.183   6.096  1.00  0.00    -0.266 OA
HETATM    8  H   UNL     1      41.689 -14.997   3.453  1.00  0.00     0.190 HD
BRANCH   6   9
HETATM    9  C   UNL     1      43.168 -16.380   5.241  1.00  0.00     0.067 A 
HETATM   10  C   UNL     1      43.377 -17.140   4.079  1.00  0.00     0.032 A 
HETATM   11  C   UNL     1      43.600 -18.528   4.151  1.00  0.00    -0.025 A 
HETATM   12  C   UNL     1      43.798 -19.296   2.993  1.00  0.00     0.012 A 
HETATM   13  C   UNL     1      43.629 -19.163   5.413  1.00  0.00    -0.023 A 
HETATM   14  C   UNL     1      44.020 -20.671   3.077  1.00  0.00     0.001 A 
HETATM   15  C   UNL     1      44.048 -21.297   4.320  1.00  0.00     0.001 A 
HETATM   16  C   UNL     1      43.853 -20.548   5.482  1.00  0.00     0.012 A 
HETATM   17  C   UNL     1      43.438 -18.397   6.571  1.00  0.00     0.049 A 
HETATM   18  C   UNL     1      43.217 -17.023   6.485  1.00  0.00     0.082 A 
BRANCH  18  19
HETATM   19  O   UNL     1      43.057 -16.369   7.680  1.00  0.00    -0.360 OA
HETATM   20  H   UNL     1      43.438 -16.932   8.390  1.00  0.00     0.217 HD
ENDBRANCH  18  19
ENDBRANCH   6   9
ENDBRANCH   1   5
BRANCH   2  21
HETATM   21  C   UNL     1      42.210 -10.791   3.311  1.00  0.00     0.125 C 
BRANCH  21  22
HETATM   22  C   UNL     1      40.812 -10.712   2.706  1.00  0.00     0.145 C 
BRANCH  22  23
HETATM   23  N   UNL     1      40.754 -11.329   1.395  1.00  0.00    -0.279 N 
HETATM   24  C   UNL     1      40.105 -12.504   1.130  1.00  0.00     0.261 A 
HETATM   25  O   UNL     1      39.471 -13.215   1.886  1.00  0.00    -0.267 OA
HETATM   26  C   UNL     1      40.291 -12.769  -0.294  1.00  0.00     0.048 A 
HETATM   27  C   UNL     1      41.013 -11.715  -0.826  1.00  0.00     0.048 A 
HETATM   28  C   UNL     1      39.872 -13.833  -1.070  1.00  0.00     0.018 A 
HETATM   29  C   UNL     1      41.285 -10.776   0.261  1.00  0.00     0.261 A 
HETATM   30  C   UNL     1      41.358 -11.664  -2.161  1.00  0.00     0.018 A 
HETATM   31  O   UNL     1      41.859  -9.714   0.123  1.00  0.00    -0.267 OA
HETATM   32  C   UNL     1      40.949 -12.732  -2.968  1.00  0.00     0.001 A 
HETATM   33  C   UNL     1      40.211 -13.806  -2.427  1.00  0.00     0.001 A 
ENDBRANCH  22  23
ENDBRANCH  21  22
ENDBRANCH   2  21
TORSDOF 6
ENDMDL
MODEL 10
REMARK VINA RESULT:      -9.2      2.550      2.925
REMARK  6 active torsions:
REMARK  status: ('A' for Active; 'I' for Inactive)
REMARK    1  A    between atoms: C_8  and  C_9 
REMARK       I    between atoms: C_9  and  N_10 
REMARK    2  A    between atoms: N_10  and  N_11 
REMARK       I    between atoms: N_11  and  C_12 
REMARK    3  A    between atoms: C_12  and  C_13 
REMARK    4  A    between atoms: C_13  and  C_14 
REMARK    5  A    between atoms: C_14  and  N_15 
REMARK    6  A    between atoms: C_28  and  O_29 
ROOT
HETATM    1  N   UNL     1      40.617 -12.015   6.771  1.00  0.00    -0.267 N 
HETATM    2  C   UNL     1      40.535 -10.941   5.910  1.00  0.00     0.237 C 
HETATM    3  O   UNL     1      41.198 -10.876   4.876  1.00  0.00    -0.272 OA
HETATM    4  H   UNL     1      39.974 -12.174   7.546  1.00  0.00     0.190 HD
ENDROOT
BRANCH   1   5
HETATM    5  N   UNL     1      41.422 -13.093   6.388  1.00  0.00    -0.263 N 
HETATM    6  C   UNL     1      40.845 -14.342   6.296  1.00  0.00     0.272 C 
HETATM    7  O   UNL     1      39.665 -14.546   6.590  1.00  0.00    -0.266 OA
HETATM    8  H   UNL     1      42.314 -12.841   5.967  1.00  0.00     0.190 HD
BRANCH   6   9
HETATM    9  C   UNL     1      41.689 -15.463   5.788  1.00  0.00     0.067 A 
HETATM   10  C   UNL     1      41.659 -15.860   4.443  1.00  0.00     0.032 A 
HETATM   11  C   UNL     1      42.454 -16.927   3.983  1.00  0.00    -0.025 A 
HETATM   12  C   UNL     1      42.421 -17.337   2.641  1.00  0.00     0.012 A 
HETATM   13  C   UNL     1      43.308 -17.598   4.888  1.00  0.00    -0.023 A 
HETATM   14  C   UNL     1      43.215 -18.395   2.197  1.00  0.00     0.001 A 
HETATM   15  C   UNL     1      44.055 -19.057   3.089  1.00  0.00     0.001 A 
HETATM   16  C   UNL     1      44.102 -18.661   4.427  1.00  0.00     0.012 A 
HETATM   17  C   UNL     1      43.348 -17.186   6.227  1.00  0.00     0.049 A 
HETATM   18  C   UNL     1      42.553 -16.128   6.669  1.00  0.00     0.082 A 
BRANCH  18  19
HETATM   19  O   UNL     1      42.681 -15.799   7.994  1.00  0.00    -0.360 OA
HETATM   20  H   UNL     1      42.871 -14.836   8.052  1.00  0.00     0.217 HD
ENDBRANCH  18  19
ENDBRANCH   6   9
ENDBRANCH   1   5
BRANCH   2  21
HETATM   21  C   UNL     1      39.574  -9.871   6.366  1.00  0.00     0.125 C 
BRANCH  21  22
HETATM   22  C   UNL     1      40.327  -8.735   7.049  1.00  0.00     0.145 C 
BRANCH  22  23
HETATM   23  N   UNL     1      40.624  -9.038   8.436  1.00  0.00    -0.279 N 
HETATM   24  C   UNL     1      41.890  -9.206   8.928  1.00  0.00     0.261 A 
HETATM   25  O   UNL     1      42.954  -9.123   8.347  1.00  0.00    -0.267 OA
HETATM   26  C   UNL     1      41.745  -9.498  10.353  1.00  0.00     0.048 A 
HETATM   27  C   UNL     1      40.396  -9.452  10.655  1.00  0.00     0.048 A 
HETATM   28  C   UNL     1      42.700  -9.780  11.311  1.00  0.00     0.018 A 
HETATM   29  C   UNL     1      39.679  -9.128   9.423  1.00  0.00     0.261 A 
HETATM   30  C   UNL     1      39.923  -9.686  11.931  1.00  0.00     0.018 A 
HETATM   31  O   UNL     1      38.478  -8.963   9.350  1.00  0.00    -0.267 OA
HETATM   32  C   UNL     1      40.870  -9.978  12.919  1.00  0.00     0.001 A 
HETATM   33  C   UNL     1      42.246 -10.024  12.611  1.00  0.00     0.001 A 
ENDBRANCH  22  23
ENDBRANCH  21  22
ENDBRANCH   2  21
TORSDOF 6
ENDMDL
