MODEL 1
REMARK VINA RESULT:      -9.6      0.000      0.000
REMARK  5 active torsions:
REMARK  status: ('A' for Active; 'I' for Inactive)
REMARK    1  A    between atoms: C_4  and  O_5 
REMARK    2  A    between atoms: O_5  and  C_6 
REMARK    3  A    between atoms: C_6  and  C_7 
REMARK       I    between atoms: C_7  and  N_8 
REMARK    4  A    between atoms: N_8  and  C_9 
REMARK    5  A    between atoms: C_12  and  C_13 
ROOT
HETATM    1  C   UNL     1      43.251 -12.364   6.901  1.00  0.00     0.034 A 
HETATM    2  C   UNL     1      43.075 -12.312   5.516  1.00  0.00     0.030 A 
HETATM    3  C   UNL     1      43.170 -13.470   4.737  1.00  0.00     0.017 A 
HETATM    4  C   UNL     1      43.445 -14.702   5.338  1.00  0.00     0.010 A 
HETATM    5  C   UNL     1      43.677 -14.756   6.715  1.00  0.00     0.017 A 
HETATM    6  C   UNL     1      43.573 -13.594   7.492  1.00  0.00     0.030 A 
ENDROOT
BRANCH   1   7
HETATM    7  N   UNL     1      43.096 -11.247   7.747  1.00  0.00    -0.325 N 
HETATM    8  C   UNL     1      44.082 -10.606   8.477  1.00  0.00     0.246 C 
HETATM    9  O   UNL     1      45.255 -10.960   8.586  1.00  0.00    -0.271 OA
HETATM   10  H   UNL     1      42.174 -10.826   7.805  1.00  0.00     0.169 HD
BRANCH   8  11
HETATM   11  C   UNL     1      43.595  -9.359   9.217  1.00  0.00     0.278 C 
BRANCH  11  12
HETATM   12  O   UNL     1      44.295  -9.112  10.431  1.00  0.00    -0.342 OA
BRANCH  12  13
HETATM   13  C   UNL     1      43.517  -9.036  11.558  1.00  0.00     0.069 A 
HETATM   14  C   UNL     1      43.627  -8.068  12.564  1.00  0.00     0.043 A 
HETATM   15  C   UNL     1      42.763  -8.080  13.669  1.00  0.00    -0.059 A 
HETATM   16  C   UNL     1      42.852  -7.011  14.720  1.00  0.00     0.048 C 
HETATM   17  C   UNL     1      41.776  -9.067  13.755  1.00  0.00     0.007 A 
HETATM   18  C   UNL     1      41.670 -10.042  12.764  1.00  0.00     0.003 A 
HETATM   19  C   UNL     1      42.540 -10.027  11.673  1.00  0.00     0.037 A 
ENDBRANCH  12  13
ENDBRANCH  11  12
ENDBRANCH   8  11
ENDBRANCH   1   7
BRANCH   4  20
HETATM   20  C   UNL     1      43.470 -15.951   4.536  1.00  0.00     0.141 A 
HETATM   21  N   UNL     1      43.703 -17.102   5.083  1.00  0.00    -0.230 NA
HETATM   22  C   UNL     1      43.706 -18.241   4.254  1.00  0.00     0.074 A 
HETATM   23  C   UNL     1      43.431 -18.180   2.886  1.00  0.00     0.061 A 
HETATM   24  C   UNL     1      43.996 -19.487   4.815  1.00  0.00     0.032 A 
HETATM   25  C   UNL     1      43.135 -16.859   2.314  1.00  0.00     0.259 A 
HETATM   26  C   UNL     1      43.432 -19.326   2.084  1.00  0.00     0.019 A 
HETATM   27  O   UNL     1      42.843 -16.704   1.134  1.00  0.00    -0.267 OA
HETATM   28  N   UNL     1      43.198 -15.809   3.192  1.00  0.00    -0.307 N 
HETATM   29  H   UNL     1      42.948 -14.913   2.798  1.00  0.00     0.170 HD
HETATM   30  C   UNL     1      43.721 -20.562   2.660  1.00  0.00     0.001 A 
HETATM   31  C   UNL     1      44.004 -20.641   4.024  1.00  0.00     0.002 A 
ENDBRANCH   4  20
TORSDOF 5
ENDMDL
MODEL 2
REMARK VINA RESULT:      -9.3      0.873      1.669
REMARK  5 active torsions:
REMARK  status: ('A' for Active; 'I' for Inactive)
REMARK    1  A    between atoms: C_4  and  O_5 
REMARK    2  A    between atoms: O_5  and  C_6 
REMARK    3  A    between atoms: C_6  and  C_7 
REMARK       I    between atoms: C_7  and  N_8 
REMARK    4  A    between atoms: N_8  and  C_9 
REMARK    5  A    between atoms: C_12  and  C_13 
ROOT
HETATM    1  C   UNL     1      43.074 -12.197   6.682  1.00  0.00     0.034 A 
HETATM    2  C   UNL     1      43.731 -13.282   7.268  1.00  0.00     0.030 A 
HETATM    3  C   UNL     1      43.794 -14.519   6.617  1.00  0.00     0.017 A 
HETATM    4  C   UNL     1      43.197 -14.685   5.364  1.00  0.00     0.010 A 
HETATM    5  C   UNL     1      42.491 -13.622   4.794  1.00  0.00     0.017 A 
HETATM    6  C   UNL     1      42.437 -12.384   5.448  1.00  0.00     0.030 A 
ENDROOT
BRANCH   1   7
HETATM    7  N   UNL     1      43.038 -10.908   7.254  1.00  0.00    -0.325 N 
HETATM    8  C   UNL     1      43.913 -10.382   8.188  1.00  0.00     0.246 C 
HETATM    9  O   UNL     1      44.824 -10.983   8.753  1.00  0.00    -0.271 OA
HETATM   10  H   UNL     1      42.323 -10.267   6.922  1.00  0.00     0.169 HD
BRANCH   8  11
HETATM   11  C   UNL     1      43.650  -8.913   8.526  1.00  0.00     0.278 C 
BRANCH  11  12
HETATM   12  O   UNL     1      42.358  -8.680   9.072  1.00  0.00    -0.342 OA
BRANCH  12  13
HETATM   13  C   UNL     1      42.249  -8.851  10.429  1.00  0.00     0.069 A 
HETATM   14  C   UNL     1      41.196  -9.493  11.091  1.00  0.00     0.043 A 
HETATM   15  C   UNL     1      41.198  -9.623  12.488  1.00  0.00    -0.059 A 
HETATM   16  C   UNL     1      40.091 -10.356  13.189  1.00  0.00     0.048 C 
HETATM   17  C   UNL     1      42.273  -9.109  13.220  1.00  0.00     0.007 A 
HETATM   18  C   UNL     1      43.319  -8.456  12.569  1.00  0.00     0.003 A 
HETATM   19  C   UNL     1      43.303  -8.324  11.179  1.00  0.00     0.037 A 
ENDBRANCH  12  13
ENDBRANCH  11  12
ENDBRANCH   8  11
ENDBRANCH   1   7
BRANCH   4  20
HETATM   20  C   UNL     1      43.324 -15.967   4.625  1.00  0.00     0.141 A 
HETATM   21  N   UNL     1      43.542 -17.085   5.240  1.00  0.00    -0.230 NA
HETATM   22  C   UNL     1      43.647 -18.258   4.467  1.00  0.00     0.074 A 
HETATM   23  C   UNL     1      43.487 -18.264   3.080  1.00  0.00     0.061 A 
HETATM   24  C   UNL     1      43.925 -19.469   5.106  1.00  0.00     0.032 A 
HETATM   25  C   UNL     1      43.203 -16.978   2.426  1.00  0.00     0.259 A 
HETATM   26  C   UNL     1      43.588 -19.442   2.333  1.00  0.00     0.019 A 
HETATM   27  O   UNL     1      43.007 -16.883   1.220  1.00  0.00    -0.267 OA
HETATM   28  N   UNL     1      43.162 -15.890   3.258  1.00  0.00    -0.307 N 
HETATM   29  H   UNL     1      42.921 -15.021   2.805  1.00  0.00     0.170 HD
HETATM   30  C   UNL     1      43.862 -20.643   2.986  1.00  0.00     0.001 A 
HETATM   31  C   UNL     1      44.032 -20.655   4.371  1.00  0.00     0.002 A 
ENDBRANCH   4  20
TORSDOF 5
ENDMDL
MODEL 3
REMARK VINA RESULT:      -9.3      2.354      3.256
REMARK  5 active torsions:
REMARK  status: ('A' for Active; 'I' for Inactive)
REMARK    1  A    between atoms: C_4  and  O_5 
REMARK    2  A    between atoms: O_5  and  C_6 
REMARK    3  A    between atoms: C_6  and  C_7 
REMARK       I    between atoms: C_7  and  N_8 
REMARK    4  A    between atoms: N_8  and  C_9 
REMARK    5  A    between atoms: C_12  and  C_13 
ROOT
HETATM    1  C   UNL     1      43.014 -12.191   6.029  1.00  0.00     0.034 A 
HETATM    2  C   UNL     1      43.503 -13.050   7.016  1.00  0.00     0.030 A 
HETATM    3  C   UNL     1      43.582 -14.429   6.791  1.00  0.00     0.017 A 
HETATM    4  C   UNL     1      43.169 -14.968   5.569  1.00  0.00     0.010 A 
HETATM    5  C   UNL     1      42.628 -14.123   4.596  1.00  0.00     0.017 A 
HETATM    6  C   UNL     1      42.558 -12.742   4.823  1.00  0.00     0.030 A 
ENDROOT
BRANCH   1   7
HETATM    7  N   UNL     1      42.977 -10.788   6.168  1.00  0.00    -0.325 N 
HETATM    8  C   UNL     1      41.906 -10.014   6.577  1.00  0.00     0.246 C 
HETATM    9  O   UNL     1      40.764 -10.412   6.803  1.00  0.00    -0.271 OA
HETATM   10  H   UNL     1      43.838 -10.277   5.994  1.00  0.00     0.169 HD
BRANCH   8  11
HETATM   11  C   UNL     1      42.231  -8.526   6.718  1.00  0.00     0.278 C 
BRANCH  11  12
HETATM   12  O   UNL     1      42.288  -8.085   8.069  1.00  0.00    -0.342 OA
BRANCH  12  13
HETATM   13  C   UNL     1      43.215  -8.715   8.860  1.00  0.00     0.069 A 
HETATM   14  C   UNL     1      42.932  -9.517   9.972  1.00  0.00     0.043 A 
HETATM   15  C   UNL     1      43.965 -10.126  10.700  1.00  0.00    -0.059 A 
HETATM   16  C   UNL     1      43.654 -11.026  11.861  1.00  0.00     0.048 C 
HETATM   17  C   UNL     1      45.290  -9.933  10.298  1.00  0.00     0.007 A 
HETATM   18  C   UNL     1      45.581  -9.124   9.200  1.00  0.00     0.003 A 
HETATM   19  C   UNL     1      44.546  -8.515   8.488  1.00  0.00     0.037 A 
ENDBRANCH  12  13
ENDBRANCH  11  12
ENDBRANCH   8  11
ENDBRANCH   1   7
BRANCH   4  20
HETATM   20  C   UNL     1      43.322 -16.417   5.286  1.00  0.00     0.141 A 
HETATM   21  N   UNL     1      43.494 -16.857   4.081  1.00  0.00    -0.230 NA
HETATM   22  C   UNL     1      43.634 -18.246   3.895  1.00  0.00     0.074 A 
HETATM   23  C   UNL     1      43.632 -19.153   4.957  1.00  0.00     0.061 A 
HETATM   24  C   UNL     1      43.779 -18.746   2.599  1.00  0.00     0.032 A 
HETATM   25  C   UNL     1      43.470 -18.607   6.312  1.00  0.00     0.259 A 
HETATM   26  C   UNL     1      43.779 -20.528   4.749  1.00  0.00     0.019 A 
HETATM   27  O   UNL     1      43.494 -19.314   7.313  1.00  0.00    -0.267 OA
HETATM   28  N   UNL     1      43.300 -17.250   6.384  1.00  0.00    -0.307 N 
HETATM   29  H   UNL     1      43.236 -16.882   7.322  1.00  0.00     0.170 HD
HETATM   30  C   UNL     1      43.926 -21.011   3.450  1.00  0.00     0.001 A 
HETATM   31  C   UNL     1      43.924 -20.120   2.377  1.00  0.00     0.002 A 
ENDBRANCH   4  20
TORSDOF 5
ENDMDL
MODEL 4
REMARK VINA RESULT:      -8.9      2.214     11.275
REMARK  5 active torsions:
REMARK  status: ('A' for Active; 'I' for Inactive)
REMARK    1  A    between atoms: C_4  and  O_5 
REMARK    2  A    between atoms: O_5  and  C_6 
REMARK    3  A    between atoms: C_6  and  C_7 
REMARK       I    between atoms: C_7  and  N_8 
REMARK    4  A    between atoms: N_8  and  C_9 
REMARK    5  A    between atoms: C_12  and  C_13 
ROOT
HETATM    1  C   UNL     1      43.481 -11.675   5.958  1.00  0.00     0.034 A 
HETATM    2  C   UNL     1      44.270 -11.737   7.110  1.00  0.00     0.030 A 
HETATM    3  C   UNL     1      44.120 -10.795   8.134  1.00  0.00     0.017 A 
HETATM    4  C   UNL     1      43.174  -9.773   8.017  1.00  0.00     0.010 A 
HETATM    5  C   UNL     1      42.418  -9.670   6.846  1.00  0.00     0.017 A 
HETATM    6  C   UNL     1      42.567 -10.620   5.826  1.00  0.00     0.030 A 
ENDROOT
BRANCH   1   7
HETATM    7  N   UNL     1      43.535 -12.634   4.926  1.00  0.00    -0.325 N 
HETATM    8  C   UNL     1      42.649 -13.673   4.702  1.00  0.00     0.246 C 
HETATM    9  O   UNL     1      41.707 -13.997   5.424  1.00  0.00    -0.271 OA
HETATM   10  H   UNL     1      44.274 -12.540   4.236  1.00  0.00     0.169 HD
BRANCH   8  11
HETATM   11  C   UNL     1      42.939 -14.473   3.431  1.00  0.00     0.278 C 
BRANCH  11  12
HETATM   12  O   UNL     1      42.139 -15.643   3.304  1.00  0.00    -0.342 OA
BRANCH  12  13
HETATM   13  C   UNL     1      42.805 -16.834   3.438  1.00  0.00     0.069 A 
HETATM   14  C   UNL     1      42.763 -17.901   2.533  1.00  0.00     0.043 A 
HETATM   15  C   UNL     1      43.502 -19.071   2.767  1.00  0.00    -0.059 A 
HETATM   16  C   UNL     1      43.493 -20.193   1.769  1.00  0.00     0.048 C 
HETATM   17  C   UNL     1      44.294 -19.161   3.916  1.00  0.00     0.007 A 
HETATM   18  C   UNL     1      44.329 -18.108   4.829  1.00  0.00     0.003 A 
HETATM   19  C   UNL     1      43.584 -16.952   4.591  1.00  0.00     0.037 A 
ENDBRANCH  12  13
ENDBRANCH  11  12
ENDBRANCH   8  11
ENDBRANCH   1   7
BRANCH   4  20
HETATM   20  C   UNL     1      42.947  -8.815   9.128  1.00  0.00     0.141 A 
HETATM   21  N   UNL     1      43.236  -9.118  10.353  1.00  0.00    -0.230 NA
HETATM   22  C   UNL     1      42.994  -8.152  11.349  1.00  0.00     0.074 A 
HETATM   23  C   UNL     1      42.495  -6.880  11.062  1.00  0.00     0.061 A 
HETATM   24  C   UNL     1      43.258  -8.473  12.683  1.00  0.00     0.032 A 
HETATM   25  C   UNL     1      42.216  -6.565   9.654  1.00  0.00     0.259 A 
HETATM   26  C   UNL     1      42.270  -5.934  12.067  1.00  0.00     0.019 A 
HETATM   27  O   UNL     1      41.815  -5.465   9.293  1.00  0.00    -0.267 OA
HETATM   28  N   UNL     1      42.445  -7.583   8.766  1.00  0.00    -0.307 N 
HETATM   29  H   UNL     1      42.294  -7.341   7.797  1.00  0.00     0.170 HD
HETATM   30  C   UNL     1      42.542  -6.269  13.393  1.00  0.00     0.001 A 
HETATM   31  C   UNL     1      43.034  -7.537  13.699  1.00  0.00     0.002 A 
ENDBRANCH   4  20
TORSDOF 5
ENDMDL
MODEL 5
REMARK VINA RESULT:      -8.7      4.290     13.465
REMARK  5 active torsions:
REMARK  status: ('A' for Active; 'I' for Inactive)
REMARK    1  A    between atoms: C_4  and  O_5 
REMARK    2  A    between atoms: O_5  and  C_6 
REMARK    3  A    between atoms: C_6  and  C_7 
REMARK       I    between atoms: C_7  and  N_8 
REMARK    4  A    between atoms: N_8  and  C_9 
REMARK    5  A    between atoms: C_12  and  C_13 
ROOT
HETATM    1  C   UNL     1      42.839  -8.680  12.344  1.00  0.00     0.034 A 
HETATM    2  C   UNL     1      41.846  -9.312  13.098  1.00  0.00     0.030 A 
HETATM    3  C   UNL     1      41.517  -8.855  14.378  1.00  0.00     0.017 A 
HETATM    4  C   UNL     1      42.180  -7.753  14.924  1.00  0.00     0.010 A 
HETATM    5  C   UNL     1      43.211  -7.147  14.201  1.00  0.00     0.017 A 
HETATM    6  C   UNL     1      43.532  -7.604  12.916  1.00  0.00     0.030 A 
ENDROOT
BRANCH   1   7
HETATM    7  N   UNL     1      43.165  -9.047  11.023  1.00  0.00    -0.325 N 
HETATM    8  C   UNL     1      43.770 -10.219  10.605  1.00  0.00     0.246 C 
HETATM    9  O   UNL     1      44.215 -11.109  11.329  1.00  0.00    -0.271 OA
HETATM   10  H   UNL     1      42.893  -8.412  10.279  1.00  0.00     0.169 HD
BRANCH   8  11
HETATM   11  C   UNL     1      43.891 -10.348   9.085  1.00  0.00     0.278 C 
BRANCH  11  12
HETATM   12  O   UNL     1      44.242 -11.658   8.655  1.00  0.00    -0.342 OA
BRANCH  12  13
HETATM   13  C   UNL     1      43.869 -11.981   7.375  1.00  0.00     0.069 A 
HETATM   14  C   UNL     1      43.669 -13.276   6.884  1.00  0.00     0.043 A 
HETATM   15  C   UNL     1      43.271 -13.487   5.554  1.00  0.00    -0.059 A 
HETATM   16  C   UNL     1      43.009 -14.874   5.045  1.00  0.00     0.048 C 
HETATM   17  C   UNL     1      43.066 -12.383   4.719  1.00  0.00     0.007 A 
HETATM   18  C   UNL     1      43.278 -11.091   5.198  1.00  0.00     0.003 A 
HETATM   19  C   UNL     1      43.682 -10.893   6.520  1.00  0.00     0.037 A 
ENDBRANCH  12  13
ENDBRANCH  11  12
ENDBRANCH   8  11
ENDBRANCH   1   7
BRANCH   4  20
HETATM   20  C   UNL     1      41.787  -7.206  16.247  1.00  0.00     0.141 A 
HETATM   21  N   UNL     1      41.269  -7.959  17.164  1.00  0.00    -0.230 NA
HETATM   22  C   UNL     1      40.926  -7.366  18.394  1.00  0.00     0.074 A 
HETATM   23  C   UNL     1      41.158  -6.016  18.672  1.00  0.00     0.061 A 
HETATM   24  C   UNL     1      40.326  -8.150  19.383  1.00  0.00     0.032 A 
HETATM   25  C   UNL     1      41.782  -5.207  17.616  1.00  0.00     0.259 A 
HETATM   26  C   UNL     1      40.815  -5.450  19.904  1.00  0.00     0.019 A 
HETATM   27  O   UNL     1      42.063  -4.024  17.774  1.00  0.00    -0.267 OA
HETATM   28  N   UNL     1      42.040  -5.865  16.443  1.00  0.00    -0.307 N 
HETATM   29  H   UNL     1      42.510  -5.311  15.742  1.00  0.00     0.170 HD
HETATM   30  C   UNL     1      40.221  -6.247  20.881  1.00  0.00     0.001 A 
HETATM   31  C   UNL     1      39.975  -7.595  20.619  1.00  0.00     0.002 A 
ENDBRANCH   4  20
TORSDOF 5
ENDMDL
MODEL 6
REMARK VINA RESULT:      -8.7      6.761      9.750
REMARK  5 active torsions:
REMARK  status: ('A' for Active; 'I' for Inactive)
REMARK    1  A    between atoms: C_4  and  O_5 
REMARK    2  A    between atoms: O_5  and  C_6 
REMARK    3  A    between atoms: C_6  and  C_7 
REMARK       I    between atoms: C_7  and  N_8 
REMARK    4  A    between atoms: N_8  and  C_9 
REMARK    5  A    between atoms: C_12  and  C_13 
ROOT
HETATM    1  C   UNL     1      40.656 -12.930   0.042  1.00  0.00     0.034 A 
HETATM    2  C   UNL     1      41.668 -12.643   0.962  1.00  0.00     0.030 A 
HETATM    3  C   UNL     1      42.208 -13.649   1.771  1.00  0.00     0.017 A 
HETATM    4  C   UNL     1      41.740 -14.962   1.667  1.00  0.00     0.010 A 
HETATM    5  C   UNL     1      40.692 -15.249   0.789  1.00  0.00     0.017 A 
HETATM    6  C   UNL     1      40.159 -14.239  -0.023  1.00  0.00     0.030 A 
ENDROOT
BRANCH   1   7
HETATM    7  N   UNL     1      40.122 -11.977  -0.850  1.00  0.00    -0.325 N 
HETATM    8  C   UNL     1      40.434 -11.814  -2.188  1.00  0.00     0.246 C 
HETATM    9  O   UNL     1      41.306 -12.417  -2.811  1.00  0.00    -0.271 OA
HETATM   10  H   UNL     1      39.394 -11.362  -0.498  1.00  0.00     0.169 HD
BRANCH   8  11
HETATM   11  C   UNL     1      39.597 -10.748  -2.896  1.00  0.00     0.278 C 
BRANCH  11  12
HETATM   12  O   UNL     1      39.606  -9.489  -2.234  1.00  0.00    -0.342 OA
BRANCH  12  13
HETATM   13  C   UNL     1      40.773  -8.774  -2.336  1.00  0.00     0.069 A 
HETATM   14  C   UNL     1      41.300  -8.236  -3.516  1.00  0.00     0.043 A 
HETATM   15  C   UNL     1      42.499  -7.506  -3.499  1.00  0.00    -0.059 A 
HETATM   16  C   UNL     1      43.035  -6.887  -4.757  1.00  0.00     0.048 C 
HETATM   17  C   UNL     1      43.164  -7.312  -2.283  1.00  0.00     0.007 A 
HETATM   18  C   UNL     1      42.651  -7.858  -1.107  1.00  0.00     0.003 A 
HETATM   19  C   UNL     1      41.463  -8.590  -1.136  1.00  0.00     0.037 A 
ENDBRANCH  12  13
ENDBRANCH  11  12
ENDBRANCH   8  11
ENDBRANCH   1   7
BRANCH   4  20
HETATM   20  C   UNL     1      42.359 -16.055   2.460  1.00  0.00     0.141 A 
HETATM   21  N   UNL     1      42.491 -17.249   1.978  1.00  0.00    -0.230 NA
HETATM   22  C   UNL     1      43.091 -18.230   2.791  1.00  0.00     0.074 A 
HETATM   23  C   UNL     1      43.579 -17.954   4.071  1.00  0.00     0.061 A 
HETATM   24  C   UNL     1      43.205 -19.536   2.308  1.00  0.00     0.032 A 
HETATM   25  C   UNL     1      43.442 -16.576   4.564  1.00  0.00     0.259 A 
HETATM   26  C   UNL     1      44.178 -18.942   4.858  1.00  0.00     0.019 A 
HETATM   27  O   UNL     1      43.873 -16.222   5.655  1.00  0.00    -0.267 OA
HETATM   28  N   UNL     1      42.808 -15.706   3.716  1.00  0.00    -0.307 N 
HETATM   29  H   UNL     1      42.761 -14.753   4.046  1.00  0.00     0.170 HD
HETATM   30  C   UNL     1      44.287 -20.239   4.360  1.00  0.00     0.001 A 
HETATM   31  C   UNL     1      43.799 -20.535   3.087  1.00  0.00     0.002 A 
ENDBRANCH   4  20
TORSDOF 5
ENDMDL
MODEL 7
REMARK VINA RESULT:      -8.5      2.450      3.048
REMARK  5 active torsions:
REMARK  status: ('A' for Active; 'I' for Inactive)
REMARK    1  A    between atoms: C_4  and  O_5 
REMARK    2  A    between atoms: O_5  and  C_6 
REMARK    3  A    between atoms: C_6  and  C_7 
REMARK       I    between atoms: C_7  and  N_8 
REMARK    4  A    between atoms: N_8  and  C_9 
REMARK    5  A    between atoms: C_12  and  C_13 
ROOT
HETATM    1  C   UNL     1      40.781 -11.199   6.529  1.00  0.00     0.034 A 
HETATM    2  C   UNL     1      39.793 -12.007   5.960  1.00  0.00     0.030 A 
HETATM    3  C   UNL     1      40.134 -13.155   5.236  1.00  0.00     0.017 A 
HETATM    4  C   UNL     1      41.475 -13.511   5.072  1.00  0.00     0.010 A 
HETATM    5  C   UNL     1      42.473 -12.681   5.591  1.00  0.00     0.017 A 
HETATM    6  C   UNL     1      42.126 -11.536   6.321  1.00  0.00     0.030 A 
ENDROOT
BRANCH   1   7
HETATM    7  N   UNL     1      40.500 -10.072   7.328  1.00  0.00    -0.325 N 
HETATM    8  C   UNL     1      39.539  -9.967   8.318  1.00  0.00     0.246 C 
HETATM    9  O   UNL     1      38.696 -10.814   8.610  1.00  0.00    -0.271 OA
HETATM   10  H   UNL     1      41.087  -9.253   7.207  1.00  0.00     0.169 HD
BRANCH   8  11
HETATM   11  C   UNL     1      39.563  -8.633   9.067  1.00  0.00     0.278 C 
BRANCH  11  12
HETATM   12  O   UNL     1      40.791  -7.928   8.927  1.00  0.00    -0.342 OA
BRANCH  12  13
HETATM   13  C   UNL     1      41.743  -8.202   9.876  1.00  0.00     0.069 A 
HETATM   14  C   UNL     1      42.865  -9.020   9.695  1.00  0.00     0.043 A 
HETATM   15  C   UNL     1      43.785  -9.218  10.736  1.00  0.00    -0.059 A 
HETATM   16  C   UNL     1      45.013 -10.054  10.523  1.00  0.00     0.048 C 
HETATM   17  C   UNL     1      43.575  -8.580  11.963  1.00  0.00     0.007 A 
HETATM   18  C   UNL     1      42.452  -7.776  12.155  1.00  0.00     0.003 A 
HETATM   19  C   UNL     1      41.539  -7.593  11.115  1.00  0.00     0.037 A 
ENDBRANCH  12  13
ENDBRANCH  11  12
ENDBRANCH   8  11
ENDBRANCH   1   7
BRANCH   4  20
HETATM   20  C   UNL     1      41.849 -14.768   4.377  1.00  0.00     0.141 A 
HETATM   21  N   UNL     1      42.757 -15.560   4.851  1.00  0.00    -0.230 NA
HETATM   22  C   UNL     1      43.053 -16.736   4.134  1.00  0.00     0.074 A 
HETATM   23  C   UNL     1      42.382 -17.094   2.963  1.00  0.00     0.061 A 
HETATM   24  C   UNL     1      44.059 -17.583   4.605  1.00  0.00     0.032 A 
HETATM   25  C   UNL     1      41.333 -16.185   2.480  1.00  0.00     0.259 A 
HETATM   26  C   UNL     1      42.688 -18.270   2.271  1.00  0.00     0.019 A 
HETATM   27  O   UNL     1      40.660 -16.427   1.485  1.00  0.00    -0.267 OA
HETATM   28  N   UNL     1      41.149 -15.049   3.223  1.00  0.00    -0.307 N 
HETATM   29  H   UNL     1      40.395 -14.455   2.908  1.00  0.00     0.170 HD
HETATM   30  C   UNL     1      43.692 -19.106   2.756  1.00  0.00     0.001 A 
HETATM   31  C   UNL     1      44.377 -18.762   3.921  1.00  0.00     0.002 A 
ENDBRANCH   4  20
TORSDOF 5
ENDMDL
MODEL 8
REMARK VINA RESULT:      -8.3      5.348     13.803
REMARK  5 active torsions:
REMARK  status: ('A' for Active; 'I' for Inactive)
REMARK    1  A    between atoms: C_4  and  O_5 
REMARK    2  A    between atoms: O_5  and  C_6 
REMARK    3  A    between atoms: C_6  and  C_7 
REMARK       I    between atoms: C_7  and  N_8 
REMARK    4  A    between atoms: N_8  and  C_9 
REMARK    5  A    between atoms: C_12  and  C_13 
ROOT
HETATM    1  C   UNL     1      42.709  -8.203  13.175  1.00  0.00     0.034 A 
HETATM    2  C   UNL     1      41.747  -8.960  13.848  1.00  0.00     0.030 A 
HETATM    3  C   UNL     1      41.378  -8.647  15.161  1.00  0.00     0.017 A 
HETATM    4  C   UNL     1      41.970  -7.566  15.820  1.00  0.00     0.010 A 
HETATM    5  C   UNL     1      42.972  -6.836  15.175  1.00  0.00     0.017 A 
HETATM    6  C   UNL     1      43.333  -7.149  13.857  1.00  0.00     0.030 A 
ENDROOT
BRANCH   1   7
HETATM    7  N   UNL     1      43.071  -8.423  11.830  1.00  0.00    -0.325 N 
HETATM    8  C   UNL     1      42.471  -7.889  10.703  1.00  0.00     0.246 C 
HETATM    9  O   UNL     1      41.453  -7.199  10.677  1.00  0.00    -0.271 OA
HETATM   10  H   UNL     1      43.888  -8.999  11.652  1.00  0.00     0.169 HD
BRANCH   8  11
HETATM   11  C   UNL     1      43.175  -8.251   9.394  1.00  0.00     0.278 C 
BRANCH  11  12
HETATM   12  O   UNL     1      44.433  -8.887   9.585  1.00  0.00    -0.342 OA
BRANCH  12  13
HETATM   13  C   UNL     1      44.767  -9.833   8.650  1.00  0.00     0.069 A 
HETATM   14  C   UNL     1      43.962 -10.906   8.249  1.00  0.00     0.043 A 
HETATM   15  C   UNL     1      44.403 -11.807   7.268  1.00  0.00    -0.059 A 
HETATM   16  C   UNL     1      43.517 -12.927   6.805  1.00  0.00     0.048 C 
HETATM   17  C   UNL     1      45.659 -11.618   6.681  1.00  0.00     0.007 A 
HETATM   18  C   UNL     1      46.472 -10.560   7.086  1.00  0.00     0.003 A 
HETATM   19  C   UNL     1      46.027  -9.674   8.069  1.00  0.00     0.037 A 
ENDBRANCH  12  13
ENDBRANCH  11  12
ENDBRANCH   8  11
ENDBRANCH   1   7
BRANCH   4  20
HETATM   20  C   UNL     1      41.532  -7.172  17.183  1.00  0.00     0.141 A 
HETATM   21  N   UNL     1      40.814  -7.960  17.917  1.00  0.00    -0.230 NA
HETATM   22  C   UNL     1      40.441  -7.515  19.200  1.00  0.00     0.074 A 
HETATM   23  C   UNL     1      40.846  -6.282  19.718  1.00  0.00     0.061 A 
HETATM   24  C   UNL     1      39.632  -8.331  19.994  1.00  0.00     0.032 A 
HETATM   25  C   UNL     1      41.691  -5.435  18.864  1.00  0.00     0.259 A 
HETATM   26  C   UNL     1      40.470  -5.863  20.998  1.00  0.00     0.019 A 
HETATM   27  O   UNL     1      42.131  -4.355  19.240  1.00  0.00    -0.267 OA
HETATM   28  N   UNL     1      41.964  -5.938  17.620  1.00  0.00    -0.307 N 
HETATM   29  H   UNL     1      42.582  -5.369  17.060  1.00  0.00     0.170 HD
HETATM   30  C   UNL     1      39.665  -6.691  21.778  1.00  0.00     0.001 A 
HETATM   31  C   UNL     1      39.245  -7.922  21.275  1.00  0.00     0.002 A 
ENDBRANCH   4  20
TORSDOF 5
ENDMDL
MODEL 9
REMARK VINA RESULT:      -8.2      2.458     11.723
REMARK  5 active torsions:
REMARK  status: ('A' for Active; 'I' for Inactive)
REMARK    1  A    between atoms: C_4  and  O_5 
REMARK    2  A    between atoms: O_5  and  C_6 
REMARK    3  A    between atoms: C_6  and  C_7 
REMARK       I    between atoms: C_7  and  N_8 
REMARK    4  A    between atoms: N_8  and  C_9 
REMARK    5  A    between atoms: C_12  and  C_13 
ROOT
HETATM    1  C   UNL     1      43.583 -11.658   6.957  1.00  0.00     0.034 A 
HETATM    2  C   UNL     1      44.554 -11.403   7.930  1.00  0.00     0.030 A 
HETATM    3  C   UNL     1      44.393 -10.359   8.847  1.00  0.00     0.017 A 
HETATM    4  C   UNL     1      43.253  -9.553   8.803  1.00  0.00     0.010 A 
HETATM    5  C   UNL     1      42.302  -9.764   7.800  1.00  0.00     0.017 A 
HETATM    6  C   UNL     1      42.465 -10.816   6.888  1.00  0.00     0.030 A 
ENDROOT
BRANCH   1   7
HETATM    7  N   UNL     1      43.653 -12.738   6.053  1.00  0.00    -0.325 N 
HETATM    8  C   UNL     1      43.368 -14.067   6.312  1.00  0.00     0.246 C 
HETATM    9  O   UNL     1      43.094 -14.553   7.407  1.00  0.00    -0.271 OA
HETATM   10  H   UNL     1      43.894 -12.527   5.089  1.00  0.00     0.169 HD
BRANCH   8  11
HETATM   11  C   UNL     1      43.447 -14.970   5.080  1.00  0.00     0.278 C 
BRANCH  11  12
HETATM   12  O   UNL     1      43.907 -16.285   5.370  1.00  0.00    -0.342 OA
BRANCH  12  13
HETATM   13  C   UNL     1      43.705 -17.215   4.382  1.00  0.00     0.069 A 
HETATM   14  C   UNL     1      43.978 -18.584   4.481  1.00  0.00     0.043 A 
HETATM   15  C   UNL     1      43.716 -19.448   3.406  1.00  0.00    -0.059 A 
HETATM   16  C   UNL     1      43.963 -20.923   3.533  1.00  0.00     0.048 C 
HETATM   17  C   UNL     1      43.167 -18.927   2.230  1.00  0.00     0.007 A 
HETATM   18  C   UNL     1      42.906 -17.562   2.120  1.00  0.00     0.003 A 
HETATM   19  C   UNL     1      43.179 -16.710   3.191  1.00  0.00     0.037 A 
ENDBRANCH  12  13
ENDBRANCH  11  12
ENDBRANCH   8  11
ENDBRANCH   1   7
BRANCH   4  20
HETATM   20  C   UNL     1      43.029  -8.493   9.818  1.00  0.00     0.141 A 
HETATM   21  N   UNL     1      42.915  -7.248   9.484  1.00  0.00    -0.230 NA
HETATM   22  C   UNL     1      42.701  -6.303  10.506  1.00  0.00     0.074 A 
HETATM   23  C   UNL     1      42.570  -6.662  11.850  1.00  0.00     0.061 A 
HETATM   24  C   UNL     1      42.617  -4.949  10.173  1.00  0.00     0.032 A 
HETATM   25  C   UNL     1      42.669  -8.091  12.181  1.00  0.00     0.259 A 
HETATM   26  C   UNL     1      42.350  -5.707  12.848  1.00  0.00     0.019 A 
HETATM   27  O   UNL     1      42.528  -8.513  13.323  1.00  0.00    -0.267 OA
HETATM   28  N   UNL     1      42.919  -8.925  11.123  1.00  0.00    -0.307 N 
HETATM   29  H   UNL     1      42.939  -9.907  11.355  1.00  0.00     0.170 HD
HETATM   30  C   UNL     1      42.266  -4.361  12.498  1.00  0.00     0.001 A 
HETATM   31  C   UNL     1      42.401  -3.983  11.162  1.00  0.00     0.002 A 
ENDBRANCH   4  20
TORSDOF 5
ENDMDL
MODEL 10
REMARK VINA RESULT:      -8.2      6.220      8.280
REMARK  5 active torsions:
REMARK  status: ('A' for Active; 'I' for Inactive)
REMARK    1  A    between atoms: C_4  and  O_5 
REMARK    2  A    between atoms: O_5  and  C_6 
REMARK    3  A    between atoms: C_6  and  C_7 
REMARK       I    between atoms: C_7  and  N_8 
REMARK    4  A    between atoms: N_8  and  C_9 
REMARK    5  A    between atoms: C_12  and  C_13 
ROOT
HETATM    1  C   UNL     1      42.012 -11.920   1.871  1.00  0.00     0.034 A 
HETATM    2  C   UNL     1      42.852 -12.098   2.973  1.00  0.00     0.030 A 
HETATM    3  C   UNL     1      43.157 -13.379   3.444  1.00  0.00     0.017 A 
HETATM    4  C   UNL     1      42.621 -14.506   2.814  1.00  0.00     0.010 A 
HETATM    5  C   UNL     1      41.737 -14.337   1.745  1.00  0.00     0.017 A 
HETATM    6  C   UNL     1      41.441 -13.051   1.273  1.00  0.00     0.030 A 
ENDROOT
BRANCH   1   7
HETATM    7  N   UNL     1      41.726 -10.660   1.307  1.00  0.00    -0.325 N 
HETATM    8  C   UNL     1      40.599  -9.885   1.516  1.00  0.00     0.246 C 
HETATM    9  O   UNL     1      39.603 -10.206   2.162  1.00  0.00    -0.271 OA
HETATM   10  H   UNL     1      42.435 -10.240   0.713  1.00  0.00     0.169 HD
BRANCH   8  11
HETATM   11  C   UNL     1      40.647  -8.520   0.828  1.00  0.00     0.278 C 
BRANCH  11  12
HETATM   12  O   UNL     1      41.391  -8.523  -0.385  1.00  0.00    -0.342 OA
BRANCH  12  13
HETATM   13  C   UNL     1      42.080  -7.369  -0.661  1.00  0.00     0.069 A 
HETATM   14  C   UNL     1      41.807  -6.106  -0.123  1.00  0.00     0.043 A 
HETATM   15  C   UNL     1      42.591  -4.994  -0.467  1.00  0.00    -0.059 A 
HETATM   16  C   UNL     1      42.326  -3.651   0.150  1.00  0.00     0.048 C 
HETATM   17  C   UNL     1      43.662  -5.161  -1.352  1.00  0.00     0.007 A 
HETATM   18  C   UNL     1      43.930  -6.413  -1.902  1.00  0.00     0.003 A 
HETATM   19  C   UNL     1      43.139  -7.511  -1.560  1.00  0.00     0.037 A 
ENDBRANCH  12  13
ENDBRANCH  11  12
ENDBRANCH   8  11
ENDBRANCH   1   7
BRANCH   4  20
HETATM   20  C   UNL     1      42.998 -15.874   3.250  1.00  0.00     0.141 A 
HETATM   21  N   UNL     1      42.942 -16.882   2.440  1.00  0.00    -0.230 NA
HETATM   22  C   UNL     1      43.320 -18.148   2.929  1.00  0.00     0.074 A 
HETATM   23  C   UNL     1      43.785 -18.345   4.232  1.00  0.00     0.061 A 
HETATM   24  C   UNL     1      43.226 -19.257   2.086  1.00  0.00     0.032 A 
HETATM   25  C   UNL     1      43.869 -17.167   5.105  1.00  0.00     0.259 A 
HETATM   26  C   UNL     1      44.162 -19.610   4.693  1.00  0.00     0.019 A 
HETATM   27  O   UNL     1      44.301 -17.227   6.251  1.00  0.00    -0.267 OA
HETATM   28  N   UNL     1      43.440 -15.990   4.551  1.00  0.00    -0.307 N 
HETATM   29  H   UNL     1      43.545 -15.180   5.145  1.00  0.00     0.170 HD
HETATM   30  C   UNL     1      44.066 -20.707   3.838  1.00  0.00     0.001 A 
HETATM   31  C   UNL     1      43.597 -20.530   2.536  1.00  0.00     0.002 A 
ENDBRANCH   4  20
TORSDOF 5
ENDMDL
