MODEL 1
REMARK VINA RESULT:      -8.5      0.000      0.000
REMARK  5 active torsions:
REMARK  status: ('A' for Active; 'I' for Inactive)
REMARK    1  A    between atoms: C_6  and  O_7 
REMARK    2  A    between atoms: O_7  and  C_8 
REMARK    3  A    between atoms: C_8  and  C_9 
REMARK       I    between atoms: C_9  and  N_10 
REMARK    4  A    between atoms: N_10  and  N_11 
REMARK    5  A    between atoms: C_12  and  C_13 
ROOT
HETATM    1  C   UNL     1      40.839 -14.930   3.881  1.00  0.00     0.261 C 
HETATM    2  N   UNL     1      40.722 -13.608   3.483  1.00  0.00    -0.246 N 
HETATM    3  O   UNL     1      40.154 -15.860   3.455  1.00  0.00    -0.269 OA
HETATM    4  H   UNL     1      41.305 -12.893   3.909  1.00  0.00     0.192 HD
ENDROOT
BRANCH   2   5
HETATM    5  N   UNL     1      39.820 -13.303   2.512  1.00  0.00    -0.184 NA
HETATM    6  C   UNL     1      40.271 -12.886   1.377  1.00  0.00     0.152 C 
BRANCH   6   7
HETATM    7  C   UNL     1      39.320 -12.585   0.322  1.00  0.00     0.011 A 
HETATM    8  C   UNL     1      39.000 -13.349  -0.853  1.00  0.00     0.004 A 
HETATM    9  C   UNL     1      38.040 -12.633  -1.570  1.00  0.00     0.043 A 
HETATM   10  C   UNL     1      39.439 -14.584  -1.379  1.00  0.00     0.014 A 
HETATM   11  C   UNL     1      37.502 -13.088  -2.781  1.00  0.00     0.030 A 
HETATM   12  N   UNL     1      37.779 -11.485  -0.861  1.00  0.00    -0.364 N 
HETATM   13  C   UNL     1      37.956 -14.314  -3.277  1.00  0.00     0.002 A 
HETATM   14  C   UNL     1      38.912 -15.054  -2.587  1.00  0.00     0.001 A 
HETATM   15  H   UNL     1      37.120 -10.775  -1.152  1.00  0.00     0.165 HD
HETATM   16  C   UNL     1      38.541 -11.443   0.278  1.00  0.00     0.102 A 
ENDBRANCH   6   7
ENDBRANCH   2   5
BRANCH   1  17
HETATM   17  C   UNL     1      41.970 -15.191   4.868  1.00  0.00     0.280 C 
BRANCH  17  18
HETATM   18  O   UNL     1      43.253 -15.358   4.259  1.00  0.00    -0.340 OA
BRANCH  18  19
HETATM   19  C   UNL     1      43.495 -16.697   4.047  1.00  0.00     0.092 A 
HETATM   20  C   UNL     1      43.828 -17.511   5.138  1.00  0.00     0.045 A 
HETATM   21  C   UNL     1      44.002 -18.886   4.964  1.00  0.00     0.028 A 
HETATM   22 BR   UNL     1      44.020 -16.793   6.884  1.00  0.00    -0.048 Br
HETATM   23  C   UNL     1      43.864 -19.458   3.696  1.00  0.00    -0.060 A 
HETATM   24  C   UNL     1      43.967 -20.945   3.509  1.00  0.00     0.048 C 
HETATM   25  C   UNL     1      43.566 -18.633   2.602  1.00  0.00     0.016 A 
HETATM   26  C   UNL     1      43.410 -17.245   2.757  1.00  0.00    -0.027 A 
HETATM   27  C   UNL     1      43.104 -16.411   1.546  1.00  0.00     0.051 C 
ENDBRANCH  18  19
ENDBRANCH  17  18
ENDBRANCH   1  17
TORSDOF 5
ENDMDL
MODEL 2
REMARK VINA RESULT:      -8.1      6.533      9.697
REMARK  5 active torsions:
REMARK  status: ('A' for Active; 'I' for Inactive)
REMARK    1  A    between atoms: C_6  and  O_7 
REMARK    2  A    between atoms: O_7  and  C_8 
REMARK    3  A    between atoms: C_8  and  C_9 
REMARK       I    between atoms: C_9  and  N_10 
REMARK    4  A    between atoms: N_10  and  N_11 
REMARK    5  A    between atoms: C_12  and  C_13 
ROOT
HETATM    1  C   UNL     1      43.943 -11.269   7.185  1.00  0.00     0.261 C 
HETATM    2  N   UNL     1      43.201 -12.435   7.271  1.00  0.00    -0.246 N 
HETATM    3  O   UNL     1      45.067 -11.181   6.690  1.00  0.00    -0.269 OA
HETATM    4  H   UNL     1      42.292 -12.429   7.726  1.00  0.00     0.192 HD
ENDROOT
BRANCH   2   5
HETATM    5  N   UNL     1      43.716 -13.571   6.729  1.00  0.00    -0.184 NA
HETATM    6  C   UNL     1      42.891 -14.465   6.300  1.00  0.00     0.152 C 
BRANCH   6   7
HETATM    7  C   UNL     1      43.428 -15.669   5.693  1.00  0.00     0.011 A 
HETATM    8  C   UNL     1      43.031 -16.324   4.476  1.00  0.00     0.004 A 
HETATM    9  C   UNL     1      43.833 -17.457   4.327  1.00  0.00     0.043 A 
HETATM   10  C   UNL     1      42.061 -16.062   3.484  1.00  0.00     0.014 A 
HETATM   11  C   UNL     1      43.711 -18.337   3.244  1.00  0.00     0.030 A 
HETATM   12  N   UNL     1      44.687 -17.490   5.404  1.00  0.00    -0.364 N 
HETATM   13  C   UNL     1      42.741 -18.052   2.278  1.00  0.00     0.002 A 
HETATM   14  C   UNL     1      41.926 -16.930   2.394  1.00  0.00     0.001 A 
HETATM   15  H   UNL     1      45.382 -18.210   5.556  1.00  0.00     0.165 HD
HETATM   16  C   UNL     1      44.456 -16.422   6.231  1.00  0.00     0.102 A 
ENDBRANCH   6   7
ENDBRANCH   2   5
BRANCH   1  17
HETATM   17  C   UNL     1      43.223 -10.026   7.692  1.00  0.00     0.280 C 
BRANCH  17  18
HETATM   18  O   UNL     1      44.094  -8.969   8.102  1.00  0.00    -0.340 OA
BRANCH  18  19
HETATM   19  C   UNL     1      43.734  -8.532   9.357  1.00  0.00     0.092 A 
HETATM   20  C   UNL     1      42.808  -7.487   9.475  1.00  0.00     0.045 A 
HETATM   21  C   UNL     1      42.366  -7.076  10.736  1.00  0.00     0.028 A 
HETATM   22 BR   UNL     1      42.095  -6.620   7.945  1.00  0.00    -0.048 Br
HETATM   23  C   UNL     1      42.860  -7.692  11.890  1.00  0.00    -0.060 A 
HETATM   24  C   UNL     1      42.334  -7.316  13.245  1.00  0.00     0.048 C 
HETATM   25  C   UNL     1      43.814  -8.712  11.766  1.00  0.00     0.016 A 
HETATM   26  C   UNL     1      44.285  -9.121  10.507  1.00  0.00    -0.027 A 
HETATM   27  C   UNL     1      45.317 -10.211  10.438  1.00  0.00     0.051 C 
ENDBRANCH  18  19
ENDBRANCH  17  18
ENDBRANCH   1  17
TORSDOF 5
ENDMDL
MODEL 3
REMARK VINA RESULT:      -8.1      5.083      8.008
REMARK  5 active torsions:
REMARK  status: ('A' for Active; 'I' for Inactive)
REMARK    1  A    between atoms: C_6  and  O_7 
REMARK    2  A    between atoms: O_7  and  C_8 
REMARK    3  A    between atoms: C_8  and  C_9 
REMARK       I    between atoms: C_9  and  N_10 
REMARK    4  A    between atoms: N_10  and  N_11 
REMARK    5  A    between atoms: C_12  and  C_13 
ROOT
HETATM    1  C   UNL     1      41.452 -13.697   5.632  1.00  0.00     0.261 C 
HETATM    2  N   UNL     1      42.367 -12.658   5.596  1.00  0.00    -0.246 N 
HETATM    3  O   UNL     1      40.473 -13.752   6.376  1.00  0.00    -0.269 OA
HETATM    4  H   UNL     1      43.169 -12.705   4.974  1.00  0.00     0.192 HD
ENDROOT
BRANCH   2   5
HETATM    5  N   UNL     1      42.157 -11.585   6.405  1.00  0.00    -0.184 NA
HETATM    6  C   UNL     1      43.189 -10.945   6.841  1.00  0.00     0.152 C 
BRANCH   6   7
HETATM    7  C   UNL     1      42.979  -9.780   7.681  1.00  0.00     0.011 A 
HETATM    8  C   UNL     1      43.290  -9.601   9.073  1.00  0.00     0.004 A 
HETATM    9  C   UNL     1      42.880  -8.315   9.433  1.00  0.00     0.043 A 
HETATM   10  C   UNL     1      43.879 -10.412  10.067  1.00  0.00     0.014 A 
HETATM   11  C   UNL     1      43.028  -7.806  10.729  1.00  0.00     0.030 A 
HETATM   12  N   UNL     1      42.348  -7.732   8.307  1.00  0.00    -0.364 N 
HETATM   13  C   UNL     1      43.615  -8.633  11.692  1.00  0.00     0.002 A 
HETATM   14  C   UNL     1      44.036  -9.919  11.368  1.00  0.00     0.001 A 
HETATM   15  H   UNL     1      41.968  -6.795   8.278  1.00  0.00     0.165 HD
HETATM   16  C   UNL     1      42.402  -8.600   7.248  1.00  0.00     0.102 A 
ENDBRANCH   6   7
ENDBRANCH   2   5
BRANCH   1  17
HETATM   17  C   UNL     1      41.695 -14.784   4.593  1.00  0.00     0.280 C 
BRANCH  17  18
HETATM   18  O   UNL     1      43.064 -14.927   4.203  1.00  0.00    -0.340 OA
BRANCH  18  19
HETATM   19  C   UNL     1      43.296 -16.221   3.794  1.00  0.00     0.092 A 
HETATM   20  C   UNL     1      43.822 -17.142   4.710  1.00  0.00     0.045 A 
HETATM   21  C   UNL     1      43.995 -18.480   4.345  1.00  0.00     0.028 A 
HETATM   22 BR   UNL     1      44.283 -16.625   6.477  1.00  0.00    -0.048 Br
HETATM   23  C   UNL     1      43.663 -18.905   3.055  1.00  0.00    -0.060 A 
HETATM   24  C   UNL     1      43.766 -20.354   2.675  1.00  0.00     0.048 C 
HETATM   25  C   UNL     1      43.171 -17.971   2.132  1.00  0.00     0.016 A 
HETATM   26  C   UNL     1      43.013 -16.619   2.477  1.00  0.00    -0.027 A 
HETATM   27  C   UNL     1      42.493 -15.663   1.441  1.00  0.00     0.051 C 
ENDBRANCH  18  19
ENDBRANCH  17  18
ENDBRANCH   1  17
TORSDOF 5
ENDMDL
MODEL 4
REMARK VINA RESULT:      -8.0      3.380      8.792
REMARK  5 active torsions:
REMARK  status: ('A' for Active; 'I' for Inactive)
REMARK    1  A    between atoms: C_6  and  O_7 
REMARK    2  A    between atoms: O_7  and  C_8 
REMARK    3  A    between atoms: C_8  and  C_9 
REMARK       I    between atoms: C_9  and  N_10 
REMARK    4  A    between atoms: N_10  and  N_11 
REMARK    5  A    between atoms: C_12  and  C_13 
ROOT
HETATM    1  C   UNL     1      40.609 -14.125   0.727  1.00  0.00     0.261 C 
HETATM    2  N   UNL     1      41.709 -14.967   0.689  1.00  0.00    -0.246 N 
HETATM    3  O   UNL     1      39.806 -14.053   1.657  1.00  0.00    -0.269 OA
HETATM    4  H   UNL     1      42.306 -14.990  -0.133  1.00  0.00     0.192 HD
ENDROOT
BRANCH   2   5
HETATM    5  N   UNL     1      41.965 -15.744   1.775  1.00  0.00    -0.184 NA
HETATM    6  C   UNL     1      43.194 -16.048   2.025  1.00  0.00     0.152 C 
BRANCH   6   7
HETATM    7  C   UNL     1      43.484 -16.853   3.198  1.00  0.00     0.011 A 
HETATM    8  C   UNL     1      43.615 -18.281   3.305  1.00  0.00     0.004 A 
HETATM    9  C   UNL     1      43.877 -18.579   4.643  1.00  0.00     0.043 A 
HETATM   10  C   UNL     1      43.532 -19.353   2.389  1.00  0.00     0.014 A 
HETATM   11  C   UNL     1      44.056 -19.889   5.108  1.00  0.00     0.030 A 
HETATM   12  N   UNL     1      43.911 -17.385   5.324  1.00  0.00    -0.364 N 
HETATM   13  C   UNL     1      43.968 -20.929   4.179  1.00  0.00     0.002 A 
HETATM   14  C   UNL     1      43.709 -20.667   2.836  1.00  0.00     0.001 A 
HETATM   15  H   UNL     1      44.081 -17.302   6.317  1.00  0.00     0.165 HD
HETATM   16  C   UNL     1      43.678 -16.340   4.468  1.00  0.00     0.102 A 
ENDBRANCH   6   7
ENDBRANCH   2   5
BRANCH   1  17
HETATM   17  C   UNL     1      40.488 -13.196  -0.474  1.00  0.00     0.280 C 
BRANCH  17  18
HETATM   18  O   UNL     1      39.735 -12.007  -0.221  1.00  0.00    -0.340 OA
BRANCH  18  19
HETATM   19  C   UNL     1      40.368 -10.927  -0.796  1.00  0.00     0.092 A 
HETATM   20  C   UNL     1      41.282 -10.187  -0.035  1.00  0.00     0.045 A 
HETATM   21  C   UNL     1      41.996  -9.136  -0.617  1.00  0.00     0.028 A 
HETATM   22 BR   UNL     1      41.613 -10.600   1.788  1.00  0.00    -0.048 Br
HETATM   23  C   UNL     1      41.788  -8.802  -1.959  1.00  0.00    -0.060 A 
HETATM   24  C   UNL     1      42.606  -7.729  -2.618  1.00  0.00     0.048 C 
HETATM   25  C   UNL     1      40.845  -9.523  -2.705  1.00  0.00     0.016 A 
HETATM   26  C   UNL     1      40.103 -10.568  -2.128  1.00  0.00    -0.027 A 
HETATM   27  C   UNL     1      39.098 -11.296  -2.975  1.00  0.00     0.051 C 
ENDBRANCH  18  19
ENDBRANCH  17  18
ENDBRANCH   1  17
TORSDOF 5
ENDMDL
MODEL 5
REMARK VINA RESULT:      -7.7      5.840      8.982
REMARK  5 active torsions:
REMARK  status: ('A' for Active; 'I' for Inactive)
REMARK    1  A    between atoms: C_6  and  O_7 
REMARK    2  A    between atoms: O_7  and  C_8 
REMARK    3  A    between atoms: C_8  and  C_9 
REMARK       I    between atoms: C_9  and  N_10 
REMARK    4  A    between atoms: N_10  and  N_11 
REMARK    5  A    between atoms: C_12  and  C_13 
ROOT
HETATM    1  C   UNL     1      42.410 -12.760   5.556  1.00  0.00     0.261 C 
HETATM    2  N   UNL     1      43.403 -12.388   6.447  1.00  0.00    -0.246 N 
HETATM    3  O   UNL     1      41.365 -12.139   5.362  1.00  0.00    -0.269 OA
HETATM    4  H   UNL     1      44.222 -12.976   6.574  1.00  0.00     0.192 HD
ENDROOT
BRANCH   2   5
HETATM    5  N   UNL     1      43.251 -11.223   7.134  1.00  0.00    -0.184 NA
HETATM    6  C   UNL     1      43.941 -11.063   8.212  1.00  0.00     0.152 C 
BRANCH   6   7
HETATM    7  C   UNL     1      43.811  -9.813   8.939  1.00  0.00     0.011 A 
HETATM    8  C   UNL     1      43.451  -9.599  10.314  1.00  0.00     0.004 A 
HETATM    9  C   UNL     1      43.442  -8.220  10.536  1.00  0.00     0.043 A 
HETATM   10  C   UNL     1      43.128 -10.448  11.395  1.00  0.00     0.014 A 
HETATM   11  C   UNL     1      43.125  -7.653  11.777  1.00  0.00     0.030 A 
HETATM   12  N   UNL     1      43.788  -7.618   9.349  1.00  0.00    -0.364 N 
HETATM   13  C   UNL     1      42.809  -8.519  12.828  1.00  0.00     0.002 A 
HETATM   14  C   UNL     1      42.810  -9.899  12.642  1.00  0.00     0.001 A 
HETATM   15  H   UNL     1      43.858  -6.618   9.219  1.00  0.00     0.165 HD
HETATM   16  C   UNL     1      44.013  -8.563   8.382  1.00  0.00     0.102 A 
ENDBRANCH   6   7
ENDBRANCH   2   5
BRANCH   1  17
HETATM   17  C   UNL     1      42.735 -14.002   4.736  1.00  0.00     0.280 C 
BRANCH  17  18
HETATM   18  O   UNL     1      41.893 -15.124   5.010  1.00  0.00    -0.340 OA
BRANCH  18  19
HETATM   19  C   UNL     1      42.376 -16.237   4.359  1.00  0.00     0.092 A 
HETATM   20  C   UNL     1      41.805 -16.613   3.136  1.00  0.00     0.045 A 
HETATM   21  C   UNL     1      42.328 -17.691   2.416  1.00  0.00     0.028 A 
HETATM   22 BR   UNL     1      40.338 -15.662   2.396  1.00  0.00    -0.048 Br
HETATM   23  C   UNL     1      43.412 -18.415   2.921  1.00  0.00    -0.060 A 
HETATM   24  C   UNL     1      44.034 -19.523   2.121  1.00  0.00     0.048 C 
HETATM   25  C   UNL     1      43.955 -18.056   4.163  1.00  0.00     0.016 A 
HETATM   26  C   UNL     1      43.427 -16.989   4.909  1.00  0.00    -0.027 A 
HETATM   27  C   UNL     1      44.043 -16.659   6.239  1.00  0.00     0.051 C 
ENDBRANCH  18  19
ENDBRANCH  17  18
ENDBRANCH   1  17
TORSDOF 5
ENDMDL
MODEL 6
REMARK VINA RESULT:      -7.5      2.869      8.860
REMARK  5 active torsions:
REMARK  status: ('A' for Active; 'I' for Inactive)
REMARK    1  A    between atoms: C_6  and  O_7 
REMARK    2  A    between atoms: O_7  and  C_8 
REMARK    3  A    between atoms: C_8  and  C_9 
REMARK       I    between atoms: C_9  and  N_10 
REMARK    4  A    between atoms: N_10  and  N_11 
REMARK    5  A    between atoms: C_12  and  C_13 
ROOT
HETATM    1  C   UNL     1      40.649 -14.088   0.607  1.00  0.00     0.261 C 
HETATM    2  N   UNL     1      42.010 -14.174   0.853  1.00  0.00    -0.246 N 
HETATM    3  O   UNL     1      39.773 -14.630   1.282  1.00  0.00    -0.269 OA
HETATM    4  H   UNL     1      42.671 -13.724   0.226  1.00  0.00     0.192 HD
ENDROOT
BRANCH   2   5
HETATM    5  N   UNL     1      42.426 -14.864   1.948  1.00  0.00    -0.184 NA
HETATM    6  C   UNL     1      42.726 -16.110   1.800  1.00  0.00     0.152 C 
BRANCH   6   7
HETATM    7  C   UNL     1      43.200 -16.851   2.955  1.00  0.00     0.011 A 
HETATM    8  C   UNL     1      43.434 -18.263   3.091  1.00  0.00     0.004 A 
HETATM    9  C   UNL     1      43.866 -18.493   4.398  1.00  0.00     0.043 A 
HETATM   10  C   UNL     1      43.315 -19.372   2.225  1.00  0.00     0.014 A 
HETATM   11  C   UNL     1      44.181 -19.771   4.880  1.00  0.00     0.030 A 
HETATM   12  N   UNL     1      43.901 -17.274   5.032  1.00  0.00    -0.364 N 
HETATM   13  C   UNL     1      44.054 -20.849   3.999  1.00  0.00     0.002 A 
HETATM   14  C   UNL     1      43.627 -20.655   2.689  1.00  0.00     0.001 A 
HETATM   15  H   UNL     1      44.177 -17.142   5.996  1.00  0.00     0.165 HD
HETATM   16  C   UNL     1      43.504 -16.279   4.177  1.00  0.00     0.102 A 
ENDBRANCH   6   7
ENDBRANCH   2   5
BRANCH   1  17
HETATM   17  C   UNL     1      40.277 -13.180  -0.558  1.00  0.00     0.280 C 
BRANCH  17  18
HETATM   18  O   UNL     1      40.258 -11.788  -0.234  1.00  0.00    -0.340 OA
BRANCH  18  19
HETATM   19  C   UNL     1      38.995 -11.281  -0.443  1.00  0.00     0.092 A 
HETATM   20  C   UNL     1      38.180 -11.003   0.663  1.00  0.00     0.045 A 
HETATM   21  C   UNL     1      36.925 -10.415   0.483  1.00  0.00     0.028 A 
HETATM   22 BR   UNL     1      38.755 -11.377   2.432  1.00  0.00    -0.048 Br
HETATM   23  C   UNL     1      36.465 -10.118  -0.803  1.00  0.00    -0.060 A 
HETATM   24  C   UNL     1      35.155  -9.412  -1.005  1.00  0.00     0.048 C 
HETATM   25  C   UNL     1      37.270 -10.432  -1.907  1.00  0.00     0.016 A 
HETATM   26  C   UNL     1      38.524 -11.043  -1.745  1.00  0.00    -0.027 A 
HETATM   27  C   UNL     1      39.337 -11.366  -2.967  1.00  0.00     0.051 C 
ENDBRANCH  18  19
ENDBRANCH  17  18
ENDBRANCH   1  17
TORSDOF 5
ENDMDL
MODEL 7
REMARK VINA RESULT:      -7.5      2.009      2.479
REMARK  5 active torsions:
REMARK  status: ('A' for Active; 'I' for Inactive)
REMARK    1  A    between atoms: C_6  and  O_7 
REMARK    2  A    between atoms: O_7  and  C_8 
REMARK    3  A    between atoms: C_8  and  C_9 
REMARK       I    between atoms: C_9  and  N_10 
REMARK    4  A    between atoms: N_10  and  N_11 
REMARK    5  A    between atoms: C_12  and  C_13 
ROOT
HETATM    1  C   UNL     1      40.632 -13.745   2.950  1.00  0.00     0.261 C 
HETATM    2  N   UNL     1      40.936 -13.958   1.615  1.00  0.00    -0.246 N 
HETATM    3  O   UNL     1      39.891 -12.857   3.372  1.00  0.00    -0.269 OA
HETATM    4  H   UNL     1      41.585 -14.694   1.351  1.00  0.00     0.192 HD
ENDROOT
BRANCH   2   5
HETATM    5  N   UNL     1      40.341 -13.167   0.682  1.00  0.00    -0.184 NA
HETATM    6  C   UNL     1      39.967 -13.714  -0.425  1.00  0.00     0.152 C 
BRANCH   6   7
HETATM    7  C   UNL     1      39.305 -12.887  -1.417  1.00  0.00     0.011 A 
HETATM    8  C   UNL     1      39.756 -11.663  -2.022  1.00  0.00     0.004 A 
HETATM    9  C   UNL     1      38.759 -11.237  -2.901  1.00  0.00     0.043 A 
HETATM   10  C   UNL     1      40.920 -10.872  -1.903  1.00  0.00     0.014 A 
HETATM   11  C   UNL     1      38.868 -10.064  -3.660  1.00  0.00     0.030 A 
HETATM   12  N   UNL     1      37.745 -12.163  -2.841  1.00  0.00    -0.364 N 
HETATM   13  C   UNL     1      40.031  -9.302  -3.521  1.00  0.00     0.002 A 
HETATM   14  C   UNL     1      41.046  -9.699  -2.654  1.00  0.00     0.001 A 
HETATM   15  H   UNL     1      36.889 -12.104  -3.377  1.00  0.00     0.165 HD
HETATM   16  C   UNL     1      38.060 -13.160  -1.955  1.00  0.00     0.102 A 
ENDBRANCH   6   7
ENDBRANCH   2   5
BRANCH   1  17
HETATM   17  C   UNL     1      41.235 -14.768   3.903  1.00  0.00     0.280 C 
BRANCH  17  18
HETATM   18  O   UNL     1      42.664 -14.762   3.943  1.00  0.00    -0.340 OA
BRANCH  18  19
HETATM   19  C   UNL     1      43.127 -16.037   4.176  1.00  0.00     0.092 A 
HETATM   20  C   UNL     1      43.359 -16.448   5.495  1.00  0.00     0.045 A 
HETATM   21  C   UNL     1      43.754 -17.761   5.766  1.00  0.00     0.028 A 
HETATM   22 BR   UNL     1      43.116 -15.261   6.957  1.00  0.00    -0.048 Br
HETATM   23  C   UNL     1      43.939 -18.670   4.720  1.00  0.00    -0.060 A 
HETATM   24  C   UNL     1      44.283 -20.104   5.001  1.00  0.00     0.048 C 
HETATM   25  C   UNL     1      43.740 -18.242   3.399  1.00  0.00     0.016 A 
HETATM   26  C   UNL     1      43.365 -16.920   3.109  1.00  0.00    -0.027 A 
HETATM   27  C   UNL     1      43.178 -16.518   1.674  1.00  0.00     0.051 C 
ENDBRANCH  18  19
ENDBRANCH  17  18
ENDBRANCH   1  17
TORSDOF 5
ENDMDL
MODEL 8
REMARK VINA RESULT:      -7.5      5.501      8.920
REMARK  5 active torsions:
REMARK  status: ('A' for Active; 'I' for Inactive)
REMARK    1  A    between atoms: C_6  and  O_7 
REMARK    2  A    between atoms: O_7  and  C_8 
REMARK    3  A    between atoms: C_8  and  C_9 
REMARK       I    between atoms: C_9  and  N_10 
REMARK    4  A    between atoms: N_10  and  N_11 
REMARK    5  A    between atoms: C_12  and  C_13 
ROOT
HETATM    1  C   UNL     1      42.805 -11.528   6.274  1.00  0.00     0.261 C 
HETATM    2  N   UNL     1      42.239 -12.735   6.650  1.00  0.00    -0.246 N 
HETATM    3  O   UNL     1      43.815 -11.407   5.580  1.00  0.00    -0.269 OA
HETATM    4  H   UNL     1      41.422 -12.749   7.255  1.00  0.00     0.192 HD
ENDROOT
BRANCH   2   5
HETATM    5  N   UNL     1      42.800 -13.884   6.187  1.00  0.00    -0.184 NA
HETATM    6  C   UNL     1      42.252 -15.003   6.524  1.00  0.00     0.152 C 
BRANCH   6   7
HETATM    7  C   UNL     1      42.823 -16.236   6.012  1.00  0.00     0.011 A 
HETATM    8  C   UNL     1      42.961 -16.671   4.649  1.00  0.00     0.004 A 
HETATM    9  C   UNL     1      43.552 -17.936   4.670  1.00  0.00     0.043 A 
HETATM   10  C   UNL     1      42.636 -16.111   3.394  1.00  0.00     0.014 A 
HETATM   11  C   UNL     1      43.830 -18.664   3.506  1.00  0.00     0.030 A 
HETATM   12  N   UNL     1      43.772 -18.256   5.989  1.00  0.00    -0.364 N 
HETATM   13  C   UNL     1      43.497 -18.083   2.279  1.00  0.00     0.002 A 
HETATM   14  C   UNL     1      42.907 -16.824   2.221  1.00  0.00     0.001 A 
HETATM   15  H   UNL     1      44.190 -19.123   6.301  1.00  0.00     0.165 HD
HETATM   16  C   UNL     1      43.340 -17.244   6.806  1.00  0.00     0.102 A 
ENDBRANCH   6   7
ENDBRANCH   2   5
BRANCH   1  17
HETATM   17  C   UNL     1      42.026 -10.300   6.726  1.00  0.00     0.280 C 
BRANCH  17  18
HETATM   18  O   UNL     1      42.820  -9.310   7.385  1.00  0.00    -0.340 OA
BRANCH  18  19
HETATM   19  C   UNL     1      42.714  -9.463   8.749  1.00  0.00     0.092 A 
HETATM   20  C   UNL     1      43.819  -9.935   9.470  1.00  0.00     0.045 A 
HETATM   21  C   UNL     1      43.765 -10.025  10.864  1.00  0.00     0.028 A 
HETATM   22 BR   UNL     1      45.430 -10.430   8.598  1.00  0.00    -0.048 Br
HETATM   23  C   UNL     1      42.600  -9.664  11.548  1.00  0.00    -0.060 A 
HETATM   24  C   UNL     1      42.555  -9.679  13.048  1.00  0.00     0.048 C 
HETATM   25  C   UNL     1      41.485  -9.228  10.817  1.00  0.00     0.016 A 
HETATM   26  C   UNL     1      41.517  -9.153   9.414  1.00  0.00    -0.027 A 
HETATM   27  C   UNL     1      40.287  -8.690   8.686  1.00  0.00     0.051 C 
ENDBRANCH  18  19
ENDBRANCH  17  18
ENDBRANCH   1  17
TORSDOF 5
ENDMDL
MODEL 9
REMARK VINA RESULT:      -7.4      5.797      9.103
REMARK  5 active torsions:
REMARK  status: ('A' for Active; 'I' for Inactive)
REMARK    1  A    between atoms: C_6  and  O_7 
REMARK    2  A    between atoms: O_7  and  C_8 
REMARK    3  A    between atoms: C_8  and  C_9 
REMARK       I    between atoms: C_9  and  N_10 
REMARK    4  A    between atoms: N_10  and  N_11 
REMARK    5  A    between atoms: C_12  and  C_13 
ROOT
HETATM    1  C   UNL     1      43.872 -11.418   6.071  1.00  0.00     0.261 C 
HETATM    2  N   UNL     1      43.197 -12.608   6.285  1.00  0.00    -0.246 N 
HETATM    3  O   UNL     1      44.325 -11.047   4.987  1.00  0.00    -0.269 OA
HETATM    4  H   UNL     1      42.884 -12.856   7.220  1.00  0.00     0.192 HD
ENDROOT
BRANCH   2   5
HETATM    5  N   UNL     1      42.963 -13.419   5.219  1.00  0.00    -0.184 NA
HETATM    6  C   UNL     1      43.217 -14.678   5.350  1.00  0.00     0.152 C 
BRANCH   6   7
HETATM    7  C   UNL     1      42.944 -15.560   4.229  1.00  0.00     0.011 A 
HETATM    8  C   UNL     1      43.353 -16.924   4.031  1.00  0.00     0.004 A 
HETATM    9  C   UNL     1      42.862 -17.333   2.790  1.00  0.00     0.043 A 
HETATM   10  C   UNL     1      44.101 -17.852   4.789  1.00  0.00     0.014 A 
HETATM   11  C   UNL     1      43.081 -18.616   2.272  1.00  0.00     0.030 A 
HETATM   12  N   UNL     1      42.176 -16.268   2.256  1.00  0.00    -0.364 N 
HETATM   13  C   UNL     1      43.825 -19.513   3.045  1.00  0.00     0.002 A 
HETATM   14  C   UNL     1      44.329 -19.138   4.287  1.00  0.00     0.001 A 
HETATM   15  H   UNL     1      41.714 -16.283   1.356  1.00  0.00     0.165 HD
HETATM   16  C   UNL     1      42.216 -15.197   3.110  1.00  0.00     0.102 A 
ENDBRANCH   6   7
ENDBRANCH   2   5
BRANCH   1  17
HETATM   17  C   UNL     1      43.961 -10.516   7.295  1.00  0.00     0.280 C 
BRANCH  17  18
HETATM   18  O   UNL     1      42.726 -10.359   7.999  1.00  0.00    -0.340 OA
BRANCH  18  19
HETATM   19  C   UNL     1      42.671  -9.104   8.563  1.00  0.00     0.092 A 
HETATM   20  C   UNL     1      43.083  -8.935   9.892  1.00  0.00     0.045 A 
HETATM   21  C   UNL     1      43.112  -7.661  10.464  1.00  0.00     0.028 A 
HETATM   22 BR   UNL     1      43.649 -10.409  10.946  1.00  0.00    -0.048 Br
HETATM   23  C   UNL     1      42.709  -6.547   9.722  1.00  0.00    -0.060 A 
HETATM   24  C   UNL     1      42.812  -5.164  10.297  1.00  0.00     0.048 C 
HETATM   25  C   UNL     1      42.263  -6.728   8.405  1.00  0.00     0.016 A 
HETATM   26  C   UNL     1      42.207  -8.005   7.822  1.00  0.00    -0.027 A 
HETATM   27  C   UNL     1      41.708  -8.137   6.411  1.00  0.00     0.051 C 
ENDBRANCH  18  19
ENDBRANCH  17  18
ENDBRANCH   1  17
TORSDOF 5
ENDMDL
MODEL 10
REMARK VINA RESULT:      -7.3      3.497      8.832
REMARK  5 active torsions:
REMARK  status: ('A' for Active; 'I' for Inactive)
REMARK    1  A    between atoms: C_6  and  O_7 
REMARK    2  A    between atoms: O_7  and  C_8 
REMARK    3  A    between atoms: C_8  and  C_9 
REMARK       I    between atoms: C_9  and  N_10 
REMARK    4  A    between atoms: N_10  and  N_11 
REMARK    5  A    between atoms: C_12  and  C_13 
ROOT
HETATM    1  C   UNL     1      40.582 -14.394  -0.012  1.00  0.00     0.261 C 
HETATM    2  N   UNL     1      41.785 -14.350   0.674  1.00  0.00    -0.246 N 
HETATM    3  O   UNL     1      39.692 -15.225   0.174  1.00  0.00    -0.269 OA
HETATM    4  H   UNL     1      42.482 -13.651   0.436  1.00  0.00     0.192 HD
ENDROOT
BRANCH   2   5
HETATM    5  N   UNL     1      41.997 -15.257   1.665  1.00  0.00    -0.184 NA
HETATM    6  C   UNL     1      43.042 -16.010   1.583  1.00  0.00     0.152 C 
BRANCH   6   7
HETATM    7  C   UNL     1      43.296 -16.962   2.649  1.00  0.00     0.011 A 
HETATM    8  C   UNL     1      43.362 -16.736   4.067  1.00  0.00     0.004 A 
HETATM    9  C   UNL     1      43.652 -17.959   4.674  1.00  0.00     0.043 A 
HETATM   10  C   UNL     1      43.206 -15.603   4.896  1.00  0.00     0.014 A 
HETATM   11  C   UNL     1      43.794 -18.104   6.061  1.00  0.00     0.030 A 
HETATM   12  N   UNL     1      43.752 -18.894   3.671  1.00  0.00    -0.364 N 
HETATM   13  C   UNL     1      43.635 -16.965   6.855  1.00  0.00     0.002 A 
HETATM   14  C   UNL     1      43.344 -15.730   6.283  1.00  0.00     0.001 A 
HETATM   15  H   UNL     1      43.959 -19.872   3.824  1.00  0.00     0.165 HD
HETATM   16  C   UNL     1      43.539 -18.309   2.450  1.00  0.00     0.102 A 
ENDBRANCH   6   7
ENDBRANCH   2   5
BRANCH   1  17
HETATM   17  C   UNL     1      40.382 -13.254  -1.003  1.00  0.00     0.280 C 
BRANCH  17  18
HETATM   18  O   UNL     1      39.774 -12.088  -0.441  1.00  0.00    -0.340 OA
BRANCH  18  19
HETATM   19  C   UNL     1      40.407 -10.961  -0.915  1.00  0.00     0.092 A 
HETATM   20  C   UNL     1      41.328 -10.299  -0.093  1.00  0.00     0.045 A 
HETATM   21  C   UNL     1      42.042  -9.200  -0.578  1.00  0.00     0.028 A 
HETATM   22 BR   UNL     1      41.669 -10.883   1.680  1.00  0.00    -0.048 Br
HETATM   23  C   UNL     1      41.827  -8.739  -1.881  1.00  0.00    -0.060 A 
HETATM   24  C   UNL     1      42.645  -7.612  -2.440  1.00  0.00     0.048 C 
HETATM   25  C   UNL     1      40.877  -9.384  -2.685  1.00  0.00     0.016 A 
HETATM   26  C   UNL     1      40.135 -10.477  -2.206  1.00  0.00    -0.027 A 
HETATM   27  C   UNL     1      39.123 -11.119  -3.111  1.00  0.00     0.051 C 
ENDBRANCH  18  19
ENDBRANCH  17  18
ENDBRANCH   1  17
TORSDOF 5
ENDMDL
