MODEL 1
REMARK VINA RESULT:      -7.2      0.000      0.000
REMARK  4 active torsions:
REMARK  status: ('A' for Active; 'I' for Inactive)
REMARK    1  A    between atoms: C_2  and  N_3 
REMARK       I    between atoms: N_3  and  C_4 
REMARK    2  A    between atoms: C_4  and  C_5 
REMARK    3  A    between atoms: C_5  and  N_6 
REMARK    4  A    between atoms: N_6  and  C_7 
ROOT
HETATM    1  C   UNL     1      42.343 -15.154   2.467  1.00  0.00     0.022 A 
HETATM    2  C   UNL     1      42.915 -16.342   3.011  1.00  0.00     0.013 A 
HETATM    3  C   UNL     1      43.416 -16.315   4.340  1.00  0.00     0.044 A 
HETATM    4  C   UNL     1      43.967 -17.463   4.935  1.00  0.00     0.032 A 
HETATM    5  C   UNL     1      44.043 -18.657   4.220  1.00  0.00     0.021 A 
HETATM    6  C   UNL     1      43.577 -18.704   2.912  1.00  0.00     0.012 A 
HETATM    7 BR   UNL     1      43.691 -20.318   1.936  1.00  0.00    -0.051 Br
HETATM    8  C   UNL     1      43.025 -17.568   2.311  1.00  0.00     0.034 A 
HETATM    9  N   UNL     1      43.372 -15.167   5.037  1.00  0.00    -0.365 N 
HETATM   10  H   UNL     1      43.739 -15.160   5.988  1.00  0.00     0.165 HD
HETATM   11  C   UNL     1      42.891 -14.026   4.535  1.00  0.00     0.090 A 
HETATM   12  C   UNL     1      42.381 -13.991   3.246  1.00  0.00     0.041 A 
ENDROOT
BRANCH   1  13
HETATM   13  N   UNL     1      41.895 -15.129   1.136  1.00  0.00    -0.283 NA
HETATM   14  H   UNL     1      42.393 -15.796   0.544  1.00  0.00     0.128 HD
BRANCH  13  15
HETATM   15  C   UNL     1      40.446 -15.205   0.832  1.00  0.00     0.195 C 
BRANCH  15  16
HETATM   16  C   UNL     1      40.071 -14.225  -0.285  1.00  0.00     0.230 C 
HETATM   17  N   UNL     1      39.051 -14.675  -1.098  1.00  0.00    -0.360 N 
HETATM   18  H   UNL     1      38.599 -15.549  -0.850  1.00  0.00     0.162 HD
HETATM   19  O   UNL     1      40.664 -13.165  -0.450  1.00  0.00    -0.272 OA
BRANCH  17  20
HETATM   20  C   UNL     1      38.559 -13.910  -2.223  1.00  0.00     0.118 C 
HETATM   21  C   UNL     1      38.284 -14.795  -3.424  1.00  0.00     0.026 C 
ENDBRANCH  17  20
ENDBRANCH  15  16
ENDBRANCH  13  15
ENDBRANCH   1  13
TORSDOF 4
ENDMDL
MODEL 2
REMARK VINA RESULT:      -6.5      2.002      2.936
REMARK  4 active torsions:
REMARK  status: ('A' for Active; 'I' for Inactive)
REMARK    1  A    between atoms: C_2  and  N_3 
REMARK       I    between atoms: N_3  and  C_4 
REMARK    2  A    between atoms: C_4  and  C_5 
REMARK    3  A    between atoms: C_5  and  N_6 
REMARK    4  A    between atoms: N_6  and  C_7 
ROOT
HETATM    1  C   UNL     1      42.909 -15.318   5.416  1.00  0.00     0.022 A 
HETATM    2  C   UNL     1      43.208 -16.710   5.330  1.00  0.00     0.013 A 
HETATM    3  C   UNL     1      43.357 -17.454   6.531  1.00  0.00     0.044 A 
HETATM    4  C   UNL     1      43.626 -18.833   6.506  1.00  0.00     0.032 A 
HETATM    5  C   UNL     1      43.765 -19.499   5.290  1.00  0.00     0.021 A 
HETATM    6  C   UNL     1      43.642 -18.790   4.102  1.00  0.00     0.012 A 
HETATM    7 BR   UNL     1      43.843 -19.688   2.452  1.00  0.00    -0.051 Br
HETATM    8  C   UNL     1      43.372 -17.418   4.115  1.00  0.00     0.034 A 
HETATM    9  N   UNL     1      43.248 -16.824   7.714  1.00  0.00    -0.365 N 
HETATM   10  H   UNL     1      43.363 -17.369   8.568  1.00  0.00     0.165 HD
HETATM   11  C   UNL     1      43.022 -15.512   7.824  1.00  0.00     0.090 A 
HETATM   12  C   UNL     1      42.861 -14.734   6.688  1.00  0.00     0.041 A 
ENDROOT
BRANCH   1  13
HETATM   13  N   UNL     1      42.817 -14.540   4.251  1.00  0.00    -0.283 NA
HETATM   14  H   UNL     1      43.241 -14.998   3.441  1.00  0.00     0.128 HD
BRANCH  13  15
HETATM   15  C   UNL     1      41.518 -13.953   3.843  1.00  0.00     0.195 C 
BRANCH  15  16
HETATM   16  C   UNL     1      40.771 -14.890   2.887  1.00  0.00     0.230 C 
HETATM   17  N   UNL     1      40.729 -14.434   1.585  1.00  0.00    -0.360 N 
HETATM   18  H   UNL     1      41.243 -13.588   1.363  1.00  0.00     0.162 HD
HETATM   19  O   UNL     1      40.233 -15.922   3.272  1.00  0.00    -0.272 OA
BRANCH  17  20
HETATM   20  C   UNL     1      40.057 -15.160   0.529  1.00  0.00     0.118 C 
HETATM   21  C   UNL     1      39.819 -14.285  -0.687  1.00  0.00     0.026 C 
ENDBRANCH  17  20
ENDBRANCH  15  16
ENDBRANCH  13  15
ENDBRANCH   1  13
TORSDOF 4
ENDMDL
MODEL 3
REMARK VINA RESULT:      -6.4      3.485      6.567
REMARK  4 active torsions:
REMARK  status: ('A' for Active; 'I' for Inactive)
REMARK    1  A    between atoms: C_2  and  N_3 
REMARK       I    between atoms: N_3  and  C_4 
REMARK    2  A    between atoms: C_4  and  C_5 
REMARK    3  A    between atoms: C_5  and  N_6 
REMARK    4  A    between atoms: N_6  and  C_7 
ROOT
HETATM    1  C   UNL     1      42.858 -13.885   3.930  1.00  0.00     0.022 A 
HETATM    2  C   UNL     1      43.020 -15.257   3.573  1.00  0.00     0.013 A 
HETATM    3  C   UNL     1      42.872 -15.633   2.211  1.00  0.00     0.044 A 
HETATM    4  C   UNL     1      43.046 -16.965   1.800  1.00  0.00     0.032 A 
HETATM    5  C   UNL     1      43.359 -17.953   2.732  1.00  0.00     0.021 A 
HETATM    6  C   UNL     1      43.491 -17.614   4.072  1.00  0.00     0.012 A 
HETATM    7 BR   UNL     1      43.901 -18.954   5.339  1.00  0.00    -0.051 Br
HETATM    8  C   UNL     1      43.322 -16.291   4.493  1.00  0.00     0.034 A 
HETATM    9  N   UNL     1      42.549 -14.698   1.301  1.00  0.00    -0.365 N 
HETATM   10  H   UNL     1      42.440 -14.982   0.328  1.00  0.00     0.165 HD
HETATM   11  C   UNL     1      42.338 -13.416   1.615  1.00  0.00     0.090 A 
HETATM   12  C   UNL     1      42.475 -12.988   2.926  1.00  0.00     0.041 A 
ENDROOT
BRANCH   1  13
HETATM   13  N   UNL     1      42.936 -13.489   5.275  1.00  0.00    -0.283 NA
HETATM   14  H   UNL     1      43.603 -14.051   5.809  1.00  0.00     0.128 HD
BRANCH  13  15
HETATM   15  C   UNL     1      43.124 -12.061   5.625  1.00  0.00     0.195 C 
BRANCH  15  16
HETATM   16  C   UNL     1      44.135 -11.908   6.767  1.00  0.00     0.230 C 
HETATM   17  N   UNL     1      45.171 -11.045   6.478  1.00  0.00    -0.360 N 
HETATM   18  H   UNL     1      45.137 -10.543   5.597  1.00  0.00     0.162 HD
HETATM   19  O   UNL     1      44.035 -12.536   7.815  1.00  0.00    -0.272 OA
BRANCH  17  20
HETATM   20  C   UNL     1      46.241 -10.774   7.414  1.00  0.00     0.118 C 
HETATM   21  C   UNL     1      46.158  -9.364   7.966  1.00  0.00     0.026 C 
ENDBRANCH  17  20
ENDBRANCH  15  16
ENDBRANCH  13  15
ENDBRANCH   1  13
TORSDOF 4
ENDMDL
MODEL 4
REMARK VINA RESULT:      -6.4      3.165      4.311
REMARK  4 active torsions:
REMARK  status: ('A' for Active; 'I' for Inactive)
REMARK    1  A    between atoms: C_2  and  N_3 
REMARK       I    between atoms: N_3  and  C_4 
REMARK    2  A    between atoms: C_4  and  C_5 
REMARK    3  A    between atoms: C_5  and  N_6 
REMARK    4  A    between atoms: N_6  and  C_7 
ROOT
HETATM    1  C   UNL     1      42.811 -16.902   2.613  1.00  0.00     0.022 A 
HETATM    2  C   UNL     1      43.227 -16.506   3.919  1.00  0.00     0.013 A 
HETATM    3  C   UNL     1      43.923 -17.443   4.730  1.00  0.00     0.044 A 
HETATM    4  C   UNL     1      44.379 -17.098   6.013  1.00  0.00     0.032 A 
HETATM    5  C   UNL     1      44.144 -15.823   6.524  1.00  0.00     0.021 A 
HETATM    6  C   UNL     1      43.450 -14.895   5.757  1.00  0.00     0.012 A 
HETATM    7 BR   UNL     1      43.119 -13.169   6.452  1.00  0.00    -0.051 Br
HETATM    8  C   UNL     1      42.993 -15.226   4.477  1.00  0.00     0.034 A 
HETATM    9  N   UNL     1      44.139 -18.685   4.263  1.00  0.00    -0.365 N 
HETATM   10  H   UNL     1      44.635 -19.349   4.857  1.00  0.00     0.165 HD
HETATM   11  C   UNL     1      43.713 -19.099   3.066  1.00  0.00     0.090 A 
HETATM   12  C   UNL     1      43.035 -18.229   2.227  1.00  0.00     0.041 A 
ENDROOT
BRANCH   1  13
HETATM   13  N   UNL     1      42.068 -16.022   1.810  1.00  0.00    -0.283 NA
HETATM   14  H   UNL     1      42.342 -16.066   0.826  1.00  0.00     0.128 HD
BRANCH  13  15
HETATM   15  C   UNL     1      40.588 -15.998   1.895  1.00  0.00     0.195 C 
BRANCH  15  16
HETATM   16  C   UNL     1      40.071 -14.559   2.004  1.00  0.00     0.230 C 
HETATM   17  N   UNL     1      39.885 -14.134   3.303  1.00  0.00    -0.360 N 
HETATM   18  H   UNL     1      40.169 -14.759   4.050  1.00  0.00     0.162 HD
HETATM   19  O   UNL     1      39.812 -13.882   1.015  1.00  0.00    -0.272 OA
BRANCH  17  20
HETATM   20  C   UNL     1      39.385 -12.815   3.625  1.00  0.00     0.118 C 
HETATM   21  C   UNL     1      39.489 -12.525   5.111  1.00  0.00     0.026 C 
ENDBRANCH  17  20
ENDBRANCH  15  16
ENDBRANCH  13  15
ENDBRANCH   1  13
TORSDOF 4
ENDMDL
MODEL 5
REMARK VINA RESULT:      -6.3      2.157      2.337
REMARK  4 active torsions:
REMARK  status: ('A' for Active; 'I' for Inactive)
REMARK    1  A    between atoms: C_2  and  N_3 
REMARK       I    between atoms: N_3  and  C_4 
REMARK    2  A    between atoms: C_4  and  C_5 
REMARK    3  A    between atoms: C_5  and  N_6 
REMARK    4  A    between atoms: N_6  and  C_7 
ROOT
HETATM    1  C   UNL     1      42.879 -15.084   2.919  1.00  0.00     0.022 A 
HETATM    2  C   UNL     1      43.244 -16.385   3.376  1.00  0.00     0.013 A 
HETATM    3  C   UNL     1      43.539 -16.570   4.753  1.00  0.00     0.044 A 
HETATM    4  C   UNL     1      43.879 -17.835   5.262  1.00  0.00     0.032 A 
HETATM    5  C   UNL     1      43.943 -18.940   4.414  1.00  0.00     0.021 A 
HETATM    6  C   UNL     1      43.676 -18.781   3.061  1.00  0.00     0.012 A 
HETATM    7 BR   UNL     1      43.776 -20.273   1.907  1.00  0.00    -0.051 Br
HETATM    8  C   UNL     1      43.336 -17.527   2.543  1.00  0.00     0.034 A 
HETATM    9  N   UNL     1      43.504 -15.513   5.582  1.00  0.00    -0.365 N 
HETATM   10  H   UNL     1      43.723 -15.658   6.567  1.00  0.00     0.165 HD
HETATM   11  C   UNL     1      43.218 -14.273   5.172  1.00  0.00     0.090 A 
HETATM   12  C   UNL     1      42.915 -14.031   3.842  1.00  0.00     0.041 A 
ENDROOT
BRANCH   1  13
HETATM   13  N   UNL     1      42.641 -14.853   1.555  1.00  0.00    -0.283 NA
HETATM   14  H   UNL     1      43.390 -15.214   0.961  1.00  0.00     0.128 HD
BRANCH  13  15
HETATM   15  C   UNL     1      41.335 -15.212   0.951  1.00  0.00     0.195 C 
BRANCH  15  16
HETATM   16  C   UNL     1      40.176 -14.716   1.823  1.00  0.00     0.230 C 
HETATM   17  N   UNL     1      40.057 -13.342   1.857  1.00  0.00    -0.360 N 
HETATM   18  H   UNL     1      40.673 -12.799   1.263  1.00  0.00     0.162 HD
HETATM   19  O   UNL     1      39.462 -15.485   2.457  1.00  0.00    -0.272 OA
BRANCH  17  20
HETATM   20  C   UNL     1      39.039 -12.670   2.636  1.00  0.00     0.118 C 
HETATM   21  C   UNL     1      38.224 -11.714   1.785  1.00  0.00     0.026 C 
ENDBRANCH  17  20
ENDBRANCH  15  16
ENDBRANCH  13  15
ENDBRANCH   1  13
TORSDOF 4
ENDMDL
MODEL 6
REMARK VINA RESULT:      -6.3      2.548      3.441
REMARK  4 active torsions:
REMARK  status: ('A' for Active; 'I' for Inactive)
REMARK    1  A    between atoms: C_2  and  N_3 
REMARK       I    between atoms: N_3  and  C_4 
REMARK    2  A    between atoms: C_4  and  C_5 
REMARK    3  A    between atoms: C_5  and  N_6 
REMARK    4  A    between atoms: N_6  and  C_7 
ROOT
HETATM    1  C   UNL     1      42.982 -16.777   2.593  1.00  0.00     0.022 A 
HETATM    2  C   UNL     1      43.290 -16.316   3.907  1.00  0.00     0.013 A 
HETATM    3  C   UNL     1      43.927 -17.205   4.814  1.00  0.00     0.044 A 
HETATM    4  C   UNL     1      44.277 -16.796   6.112  1.00  0.00     0.032 A 
HETATM    5  C   UNL     1      43.993 -15.501   6.541  1.00  0.00     0.021 A 
HETATM    6  C   UNL     1      43.354 -14.618   5.679  1.00  0.00     0.012 A 
HETATM    7 BR   UNL     1      42.956 -12.866   6.262  1.00  0.00    -0.051 Br
HETATM    8  C   UNL     1      43.003 -15.014   4.384  1.00  0.00     0.034 A 
HETATM    9  N   UNL     1      44.189 -18.465   4.426  1.00  0.00    -0.365 N 
HETATM   10  H   UNL     1      44.641 -19.095   5.088  1.00  0.00     0.165 HD
HETATM   11  C   UNL     1      43.863 -18.941   3.220  1.00  0.00     0.090 A 
HETATM   12  C   UNL     1      43.246 -18.118   2.290  1.00  0.00     0.041 A 
ENDROOT
BRANCH   1  13
HETATM   13  N   UNL     1      42.298 -15.945   1.693  1.00  0.00    -0.283 NA
HETATM   14  H   UNL     1      42.621 -16.062   0.730  1.00  0.00     0.128 HD
BRANCH  13  15
HETATM   15  C   UNL     1      40.816 -15.893   1.698  1.00  0.00     0.195 C 
BRANCH  15  16
HETATM   16  C   UNL     1      40.313 -14.600   1.046  1.00  0.00     0.230 C 
HETATM   17  N   UNL     1      40.537 -14.541  -0.314  1.00  0.00    -0.360 N 
HETATM   18  H   UNL     1      40.930 -15.360  -0.764  1.00  0.00     0.162 HD
HETATM   19  O   UNL     1      39.801 -13.697   1.699  1.00  0.00    -0.272 OA
BRANCH  17  20
HETATM   20  C   UNL     1      40.155 -13.399  -1.115  1.00  0.00     0.118 C 
HETATM   21  C   UNL     1      40.338 -13.669  -2.597  1.00  0.00     0.026 C 
ENDBRANCH  17  20
ENDBRANCH  15  16
ENDBRANCH  13  15
ENDBRANCH   1  13
TORSDOF 4
ENDMDL
MODEL 7
REMARK VINA RESULT:      -6.3      2.651      5.596
REMARK  4 active torsions:
REMARK  status: ('A' for Active; 'I' for Inactive)
REMARK    1  A    between atoms: C_2  and  N_3 
REMARK       I    between atoms: N_3  and  C_4 
REMARK    2  A    between atoms: C_4  and  C_5 
REMARK    3  A    between atoms: C_5  and  N_6 
REMARK    4  A    between atoms: N_6  and  C_7 
ROOT
HETATM    1  C   UNL     1      40.570 -14.419   3.466  1.00  0.00     0.022 A 
HETATM    2  C   UNL     1      41.563 -15.412   3.215  1.00  0.00     0.013 A 
HETATM    3  C   UNL     1      42.023 -15.600   1.884  1.00  0.00     0.044 A 
HETATM    4  C   UNL     1      43.017 -16.545   1.583  1.00  0.00     0.032 A 
HETATM    5  C   UNL     1      43.568 -17.332   2.594  1.00  0.00     0.021 A 
HETATM    6  C   UNL     1      43.122 -17.179   3.900  1.00  0.00     0.012 A 
HETATM    7 BR   UNL     1      43.857 -18.253   5.270  1.00  0.00    -0.051 Br
HETATM    8  C   UNL     1      42.134 -16.240   4.212  1.00  0.00     0.034 A 
HETATM    9  N   UNL     1      41.488 -14.866   0.893  1.00  0.00    -0.365 N 
HETATM   10  H   UNL     1      41.823 -15.014  -0.059  1.00  0.00     0.165 HD
HETATM   11  C   UNL     1      40.519 -13.967   1.091  1.00  0.00     0.090 A 
HETATM   12  C   UNL     1      40.034 -13.734   2.368  1.00  0.00     0.041 A 
ENDROOT
BRANCH   1  13
HETATM   13  N   UNL     1      40.049 -14.249   4.759  1.00  0.00    -0.283 NA
HETATM   14  H   UNL     1      40.296 -15.019   5.384  1.00  0.00     0.128 HD
BRANCH  13  15
HETATM   15  C   UNL     1      40.237 -12.968   5.480  1.00  0.00     0.195 C 
BRANCH  15  16
HETATM   16  C   UNL     1      41.719 -12.579   5.526  1.00  0.00     0.230 C 
HETATM   17  N   UNL     1      42.424 -13.203   6.535  1.00  0.00    -0.360 N 
HETATM   18  H   UNL     1      41.939 -13.899   7.091  1.00  0.00     0.162 HD
HETATM   19  O   UNL     1      42.202 -11.757   4.756  1.00  0.00    -0.272 OA
BRANCH  17  20
HETATM   20  C   UNL     1      43.832 -12.961   6.763  1.00  0.00     0.118 C 
HETATM   21  C   UNL     1      44.057 -11.724   7.612  1.00  0.00     0.026 C 
ENDBRANCH  17  20
ENDBRANCH  15  16
ENDBRANCH  13  15
ENDBRANCH   1  13
TORSDOF 4
ENDMDL
MODEL 8
REMARK VINA RESULT:      -6.1      4.041      6.551
REMARK  4 active torsions:
REMARK  status: ('A' for Active; 'I' for Inactive)
REMARK    1  A    between atoms: C_2  and  N_3 
REMARK       I    between atoms: N_3  and  C_4 
REMARK    2  A    between atoms: C_4  and  C_5 
REMARK    3  A    between atoms: C_5  and  N_6 
REMARK    4  A    between atoms: N_6  and  C_7 
ROOT
HETATM    1  C   UNL     1      41.799 -15.323   3.384  1.00  0.00     0.022 A 
HETATM    2  C   UNL     1      41.285 -14.051   3.775  1.00  0.00     0.013 A 
HETATM    3  C   UNL     1      39.993 -13.666   3.326  1.00  0.00     0.044 A 
HETATM    4  C   UNL     1      39.428 -12.436   3.701  1.00  0.00     0.032 A 
HETATM    5  C   UNL     1      40.136 -11.558   4.520  1.00  0.00     0.021 A 
HETATM    6  C   UNL     1      41.408 -11.903   4.956  1.00  0.00     0.012 A 
HETATM    7 BR   UNL     1      42.376 -10.708   6.055  1.00  0.00    -0.051 Br
HETATM    8  C   UNL     1      41.981 -13.126   4.591  1.00  0.00     0.034 A 
HETATM    9  N   UNL     1      39.305 -14.491   2.518  1.00  0.00    -0.365 N 
HETATM   10  H   UNL     1      38.381 -14.201   2.199  1.00  0.00     0.165 HD
HETATM   11  C   UNL     1      39.783 -15.664   2.093  1.00  0.00     0.090 A 
HETATM   12  C   UNL     1      41.035 -16.097   2.503  1.00  0.00     0.041 A 
ENDROOT
BRANCH   1  13
HETATM   13  N   UNL     1      43.096 -15.709   3.759  1.00  0.00    -0.283 NA
HETATM   14  H   UNL     1      43.759 -14.931   3.727  1.00  0.00     0.128 HD
BRANCH  13  15
HETATM   15  C   UNL     1      43.318 -16.477   5.008  1.00  0.00     0.195 C 
BRANCH  15  16
HETATM   16  C   UNL     1      43.696 -17.929   4.695  1.00  0.00     0.230 C 
HETATM   17  N   UNL     1      43.851 -18.184   3.348  1.00  0.00    -0.360 N 
HETATM   18  H   UNL     1      43.781 -17.400   2.707  1.00  0.00     0.162 HD
HETATM   19  O   UNL     1      43.802 -18.779   5.572  1.00  0.00    -0.272 OA
BRANCH  17  20
HETATM   20  C   UNL     1      44.188 -19.495   2.839  1.00  0.00     0.118 C 
HETATM   21  C   UNL     1      43.056 -20.086   2.020  1.00  0.00     0.026 C 
ENDBRANCH  17  20
ENDBRANCH  15  16
ENDBRANCH  13  15
ENDBRANCH   1  13
TORSDOF 4
ENDMDL
MODEL 9
REMARK VINA RESULT:      -6.1      4.061      6.495
REMARK  4 active torsions:
REMARK  status: ('A' for Active; 'I' for Inactive)
REMARK    1  A    between atoms: C_2  and  N_3 
REMARK       I    between atoms: N_3  and  C_4 
REMARK    2  A    between atoms: C_4  and  C_5 
REMARK    3  A    between atoms: C_5  and  N_6 
REMARK    4  A    between atoms: N_6  and  C_7 
ROOT
HETATM    1  C   UNL     1      43.053 -14.730   5.767  1.00  0.00     0.022 A 
HETATM    2  C   UNL     1      42.739 -15.536   4.633  1.00  0.00     0.013 A 
HETATM    3  C   UNL     1      43.442 -16.756   4.444  1.00  0.00     0.044 A 
HETATM    4  C   UNL     1      43.156 -17.601   3.359  1.00  0.00     0.032 A 
HETATM    5  C   UNL     1      42.176 -17.249   2.433  1.00  0.00     0.021 A 
HETATM    6  C   UNL     1      41.488 -16.052   2.586  1.00  0.00     0.012 A 
HETATM    7 BR   UNL     1      40.168 -15.565   1.324  1.00  0.00    -0.051 Br
HETATM    8  C   UNL     1      41.763 -15.204   3.663  1.00  0.00     0.034 A 
HETATM    9  N   UNL     1      44.407 -17.102   5.314  1.00  0.00    -0.365 N 
HETATM   10  H   UNL     1      44.907 -17.978   5.164  1.00  0.00     0.165 HD
HETATM   11  C   UNL     1      44.758 -16.341   6.355  1.00  0.00     0.090 A 
HETATM   12  C   UNL     1      44.104 -15.143   6.595  1.00  0.00     0.041 A 
ENDROOT
BRANCH   1  13
HETATM   13  N   UNL     1      42.422 -13.489   5.951  1.00  0.00    -0.283 NA
HETATM   14  H   UNL     1      42.376 -13.216   6.935  1.00  0.00     0.128 HD
BRANCH  13  15
HETATM   15  C   UNL     1      42.831 -12.314   5.146  1.00  0.00     0.195 C 
BRANCH  15  16
HETATM   16  C   UNL     1      44.110 -11.684   5.710  1.00  0.00     0.230 C 
HETATM   17  N   UNL     1      44.100 -11.547   7.083  1.00  0.00    -0.360 N 
HETATM   18  H   UNL     1      43.311 -11.931   7.591  1.00  0.00     0.162 HD
HETATM   19  O   UNL     1      45.025 -11.306   4.988  1.00  0.00    -0.272 OA
BRANCH  17  20
HETATM   20  C   UNL     1      45.202 -10.959   7.813  1.00  0.00     0.118 C 
HETATM   21  C   UNL     1      44.738 -10.319   9.108  1.00  0.00     0.026 C 
ENDBRANCH  17  20
ENDBRANCH  15  16
ENDBRANCH  13  15
ENDBRANCH   1  13
TORSDOF 4
ENDMDL
MODEL 10
REMARK VINA RESULT:      -6.0     13.866     14.892
REMARK  4 active torsions:
REMARK  status: ('A' for Active; 'I' for Inactive)
REMARK    1  A    between atoms: C_2  and  N_3 
REMARK       I    between atoms: N_3  and  C_4 
REMARK    2  A    between atoms: C_4  and  C_5 
REMARK    3  A    between atoms: C_5  and  N_6 
REMARK    4  A    between atoms: N_6  and  C_7 
ROOT
HETATM    1  C   UNL     1      46.705 -28.794   1.911  1.00  0.00     0.022 A 
HETATM    2  C   UNL     1      47.034 -28.825   0.523  1.00  0.00     0.013 A 
HETATM    3  C   UNL     1      48.331 -29.257   0.136  1.00  0.00     0.044 A 
HETATM    4  C   UNL     1      48.700 -29.332  -1.217  1.00  0.00     0.032 A 
HETATM    5  C   UNL     1      47.794 -28.970  -2.214  1.00  0.00     0.021 A 
HETATM    6  C   UNL     1      46.527 -28.527  -1.859  1.00  0.00     0.012 A 
HETATM    7 BR   UNL     1      45.302 -28.023  -3.207  1.00  0.00    -0.051 Br
HETATM    8  C   UNL     1      46.147 -28.450  -0.515  1.00  0.00     0.034 A 
HETATM    9  N   UNL     1      49.225 -29.589   1.084  1.00  0.00    -0.365 N 
HETATM   10  H   UNL     1      50.153 -29.892   0.792  1.00  0.00     0.165 HD
HETATM   11  C   UNL     1      48.962 -29.517   2.392  1.00  0.00     0.090 A 
HETATM   12  C   UNL     1      47.712 -29.111   2.831  1.00  0.00     0.041 A 
ENDROOT
BRANCH   1  13
HETATM   13  N   UNL     1      45.454 -28.315   2.332  1.00  0.00    -0.283 NA
HETATM   14  H   UNL     1      45.041 -27.661   1.664  1.00  0.00     0.128 HD
BRANCH  13  15
HETATM   15  C   UNL     1      44.406 -29.258   2.790  1.00  0.00     0.195 C 
BRANCH  15  16
HETATM   16  C   UNL     1      43.600 -29.796   1.602  1.00  0.00     0.230 C 
HETATM   17  N   UNL     1      44.001 -31.048   1.182  1.00  0.00    -0.360 N 
HETATM   18  H   UNL     1      44.717 -31.521   1.723  1.00  0.00     0.162 HD
HETATM   19  O   UNL     1      42.715 -29.141   1.064  1.00  0.00    -0.272 OA
BRANCH  17  20
HETATM   20  C   UNL     1      43.383 -31.727   0.064  1.00  0.00     0.118 C 
HETATM   21  C   UNL     1      44.135 -31.474  -1.229  1.00  0.00     0.026 C 
ENDBRANCH  17  20
ENDBRANCH  15  16
ENDBRANCH  13  15
ENDBRANCH   1  13
TORSDOF 4
ENDMDL
