MODEL 1
REMARK VINA RESULT:      -7.6      0.000      0.000
REMARK  3 active torsions:
REMARK  status: ('A' for Active; 'I' for Inactive)
REMARK    1  A    between atoms: C_2  and  C_3 
REMARK    2  A    between atoms: C_4  and  N_5 
REMARK    3  A    between atoms: C_18  and  C_19 
ROOT
HETATM    1  N   UNL     1      41.617 -15.055   4.489  1.00  0.00    -0.320 N 
HETATM    2  C   UNL     1      40.638 -15.011   5.513  1.00  0.00     0.141 C 
HETATM    3  N   UNL     1      40.098 -16.083   6.019  1.00  0.00    -0.380 N 
HETATM    4  H   UNL     1      39.389 -15.996   6.733  1.00  0.00     0.158 HD
HETATM    5  H   UNL     1      40.380 -16.988   5.669  1.00  0.00     0.158 HD
HETATM    6  S   UNL     1      40.203 -13.416   5.963  1.00  0.00    -0.086 SA
HETATM    7  C   UNL     1      41.028 -12.707   4.471  1.00  0.00     0.093 C 
HETATM    8  C   UNL     1      42.129 -13.728   4.083  1.00  0.00     0.121 C 
HETATM    9  C   UNL     1      41.640 -11.332   4.682  1.00  0.00     0.158 C 
HETATM   10  S   UNL     1      43.401 -11.572   4.746  1.00  0.00     0.147 S 
HETATM   11  O   UNL     1      43.910 -11.041   5.991  1.00  0.00    -0.228 OA
HETATM   12  O   UNL     1      43.949 -11.205   3.457  1.00  0.00    -0.228 OA
HETATM   13  C   UNL     1      43.388 -13.338   4.843  1.00  0.00     0.167 C 
ENDROOT
BRANCH   1  14
HETATM   14  C   UNL     1      42.240 -16.186   3.927  1.00  0.00     0.049 A 
HETATM   15  C   UNL     1      41.784 -16.693   2.676  1.00  0.00    -0.031 A 
HETATM   16  C   UNL     1      42.449 -17.789   2.100  1.00  0.00     0.009 A 
HETATM   17  C   UNL     1      43.486 -18.428   2.766  1.00  0.00     0.001 A 
HETATM   18  C   UNL     1      43.892 -17.975   4.016  1.00  0.00     0.009 A 
HETATM   19  C   UNL     1      43.303 -16.844   4.608  1.00  0.00    -0.031 A 
BRANCH  15  20
HETATM   20  C   UNL     1      40.605 -16.080   1.938  1.00  0.00     0.036 C 
HETATM   21  C   UNL     1      40.961 -15.027   0.891  1.00  0.00     0.010 C 
ENDBRANCH  15  20
BRANCH  19  22
HETATM   22  C   UNL     1      43.795 -16.400   5.977  1.00  0.00     0.036 C 
HETATM   23  C   UNL     1      43.414 -17.303   7.146  1.00  0.00     0.010 C 
ENDBRANCH  19  22
ENDBRANCH   1  14
TORSDOF 3
ENDMDL
MODEL 2
REMARK VINA RESULT:      -7.5      0.517      2.868
REMARK  3 active torsions:
REMARK  status: ('A' for Active; 'I' for Inactive)
REMARK    1  A    between atoms: C_2  and  C_3 
REMARK    2  A    between atoms: C_4  and  N_5 
REMARK    3  A    between atoms: C_18  and  C_19 
ROOT
HETATM    1  N   UNL     1      41.680 -15.021   4.522  1.00  0.00    -0.320 N 
HETATM    2  C   UNL     1      40.582 -15.009   5.418  1.00  0.00     0.141 C 
HETATM    3  N   UNL     1      39.960 -16.092   5.787  1.00  0.00    -0.380 N 
HETATM    4  H   UNL     1      39.170 -16.026   6.412  1.00  0.00     0.158 HD
HETATM    5  H   UNL     1      40.264 -16.983   5.420  1.00  0.00     0.158 HD
HETATM    6  S   UNL     1      40.128 -13.430   5.908  1.00  0.00    -0.086 SA
HETATM    7  C   UNL     1      41.148 -12.660   4.575  1.00  0.00     0.093 C 
HETATM    8  C   UNL     1      42.267 -13.688   4.264  1.00  0.00     0.121 C 
HETATM    9  C   UNL     1      41.758 -11.319   4.944  1.00  0.00     0.158 C 
HETATM   10  S   UNL     1      43.492 -11.612   5.210  1.00  0.00     0.147 S 
HETATM   11  O   UNL     1      43.853 -11.169   6.538  1.00  0.00    -0.228 OA
HETATM   12  O   UNL     1      44.204 -11.187   4.023  1.00  0.00    -0.228 OA
HETATM   13  C   UNL     1      43.430 -13.380   5.196  1.00  0.00     0.167 C 
ENDROOT
BRANCH   1  14
HETATM   14  C   UNL     1      42.344 -16.135   3.973  1.00  0.00     0.049 A 
HETATM   15  C   UNL     1      43.169 -16.946   4.805  1.00  0.00    -0.031 A 
HETATM   16  C   UNL     1      43.783 -18.085   4.257  1.00  0.00     0.009 A 
HETATM   17  C   UNL     1      43.661 -18.384   2.907  1.00  0.00     0.001 A 
HETATM   18  C   UNL     1      42.909 -17.560   2.078  1.00  0.00     0.009 A 
HETATM   19  C   UNL     1      42.222 -16.444   2.588  1.00  0.00    -0.031 A 
BRANCH  15  20
HETATM   20  C   UNL     1      43.399 -16.623   6.272  1.00  0.00     0.036 C 
HETATM   21  C   UNL     1      44.853 -16.384   6.673  1.00  0.00     0.010 C 
ENDBRANCH  15  20
BRANCH  19  22
HETATM   22  C   UNL     1      41.416 -15.584   1.628  1.00  0.00     0.036 C 
HETATM   23  C   UNL     1      39.922 -15.887   1.557  1.00  0.00     0.010 C 
ENDBRANCH  19  22
ENDBRANCH   1  14
TORSDOF 3
ENDMDL
MODEL 3
REMARK VINA RESULT:      -7.3      1.600      1.834
REMARK  3 active torsions:
REMARK  status: ('A' for Active; 'I' for Inactive)
REMARK    1  A    between atoms: C_2  and  C_3 
REMARK    2  A    between atoms: C_4  and  N_5 
REMARK    3  A    between atoms: C_18  and  C_19 
ROOT
HETATM    1  N   UNL     1      42.266 -13.974   4.770  1.00  0.00    -0.320 N 
HETATM    2  C   UNL     1      40.957 -13.605   5.167  1.00  0.00     0.141 C 
HETATM    3  N   UNL     1      39.919 -14.367   4.970  1.00  0.00    -0.380 N 
HETATM    4  H   UNL     1      39.004 -14.048   5.255  1.00  0.00     0.158 HD
HETATM    5  H   UNL     1      40.043 -15.259   4.512  1.00  0.00     0.158 HD
HETATM    6  S   UNL     1      40.879 -12.043   5.868  1.00  0.00    -0.086 SA
HETATM    7  C   UNL     1      42.575 -11.625   5.267  1.00  0.00     0.093 C 
HETATM    8  C   UNL     1      43.308 -12.984   5.121  1.00  0.00     0.121 C 
HETATM    9  C   UNL     1      43.359 -10.704   6.186  1.00  0.00     0.158 C 
HETATM   10  S   UNL     1      44.589 -11.715   6.979  1.00  0.00     0.147 S 
HETATM   11  O   UNL     1      44.445 -11.606   8.413  1.00  0.00    -0.228 OA
HETATM   12  O   UNL     1      45.850 -11.498   6.302  1.00  0.00    -0.228 OA
HETATM   13  C   UNL     1      43.963 -13.286   6.460  1.00  0.00     0.167 C 
ENDROOT
BRANCH   1  14
HETATM   14  C   UNL     1      42.699 -15.197   4.221  1.00  0.00     0.049 A 
HETATM   15  C   UNL     1      42.905 -15.306   2.816  1.00  0.00    -0.031 A 
HETATM   16  C   UNL     1      43.388 -16.515   2.287  1.00  0.00     0.009 A 
HETATM   17  C   UNL     1      43.590 -17.622   3.100  1.00  0.00     0.001 A 
HETATM   18  C   UNL     1      43.328 -17.539   4.462  1.00  0.00     0.009 A 
HETATM   19  C   UNL     1      42.905 -16.335   5.052  1.00  0.00    -0.031 A 
BRANCH  15  20
HETATM   20  C   UNL     1      42.629 -14.149   1.868  1.00  0.00     0.036 C 
HETATM   21  C   UNL     1      41.285 -14.197   1.146  1.00  0.00     0.010 C 
ENDBRANCH  15  20
BRANCH  19  22
HETATM   22  C   UNL     1      42.638 -16.312   6.549  1.00  0.00     0.036 C 
HETATM   23  C   UNL     1      43.756 -16.858   7.433  1.00  0.00     0.010 C 
ENDBRANCH  19  22
ENDBRANCH   1  14
TORSDOF 3
ENDMDL
MODEL 4
REMARK VINA RESULT:      -7.2      1.628      2.600
REMARK  3 active torsions:
REMARK  status: ('A' for Active; 'I' for Inactive)
REMARK    1  A    between atoms: C_2  and  C_3 
REMARK    2  A    between atoms: C_4  and  N_5 
REMARK    3  A    between atoms: C_18  and  C_19 
ROOT
HETATM    1  N   UNL     1      41.918 -15.224   3.760  1.00  0.00    -0.320 N 
HETATM    2  C   UNL     1      40.584 -15.162   3.288  1.00  0.00     0.141 C 
HETATM    3  N   UNL     1      39.711 -16.102   3.513  1.00  0.00    -0.380 N 
HETATM    4  H   UNL     1      38.778 -16.019   3.136  1.00  0.00     0.158 HD
HETATM    5  H   UNL     1      39.991 -16.917   4.041  1.00  0.00     0.158 HD
HETATM    6  S   UNL     1      40.263 -13.764   2.350  1.00  0.00    -0.086 SA
HETATM    7  C   UNL     1      42.064 -13.388   2.189  1.00  0.00     0.093 C 
HETATM    8  C   UNL     1      42.734 -14.035   3.429  1.00  0.00     0.121 C 
HETATM    9  C   UNL     1      42.396 -11.907   2.128  1.00  0.00     0.158 C 
HETATM   10  S   UNL     1      43.109 -11.488   3.703  1.00  0.00     0.147 S 
HETATM   11  O   UNL     1      42.350 -10.413   4.300  1.00  0.00    -0.228 OA
HETATM   12  O   UNL     1      44.547 -11.434   3.542  1.00  0.00    -0.228 OA
HETATM   13  C   UNL     1      42.717 -12.996   4.540  1.00  0.00     0.167 C 
ENDROOT
BRANCH   1  14
HETATM   14  C   UNL     1      42.502 -16.192   4.600  1.00  0.00     0.049 A 
HETATM   15  C   UNL     1      43.230 -17.275   4.028  1.00  0.00    -0.031 A 
HETATM   16  C   UNL     1      43.853 -18.205   4.878  1.00  0.00     0.009 A 
HETATM   17  C   UNL     1      43.702 -18.127   6.256  1.00  0.00     0.001 A 
HETATM   18  C   UNL     1      42.939 -17.109   6.816  1.00  0.00     0.009 A 
HETATM   19  C   UNL     1      42.348 -16.116   6.013  1.00  0.00    -0.031 A 
BRANCH  15  20
HETATM   20  C   UNL     1      43.364 -17.452   2.524  1.00  0.00     0.036 C 
HETATM   21  C   UNL     1      43.202 -18.881   2.013  1.00  0.00     0.010 C 
ENDBRANCH  15  20
BRANCH  19  22
HETATM   22  C   UNL     1      41.527 -15.029   6.689  1.00  0.00     0.036 C 
HETATM   23  C   UNL     1      40.045 -15.338   6.884  1.00  0.00     0.010 C 
ENDBRANCH  19  22
ENDBRANCH   1  14
TORSDOF 3
ENDMDL
MODEL 5
REMARK VINA RESULT:      -6.3     15.320     17.044
REMARK  3 active torsions:
REMARK  status: ('A' for Active; 'I' for Inactive)
REMARK    1  A    between atoms: C_2  and  C_3 
REMARK    2  A    between atoms: C_4  and  N_5 
REMARK    3  A    between atoms: C_18  and  C_19 
ROOT
HETATM    1  N   UNL     1      44.974 -30.883  -0.706  1.00  0.00    -0.320 N 
HETATM    2  C   UNL     1      46.088 -31.439  -0.029  1.00  0.00     0.141 C 
HETATM    3  N   UNL     1      47.304 -31.363  -0.490  1.00  0.00    -0.380 N 
HETATM    4  H   UNL     1      48.060 -31.794   0.022  1.00  0.00     0.158 HD
HETATM    5  H   UNL     1      47.468 -30.893  -1.369  1.00  0.00     0.158 HD
HETATM    6  S   UNL     1      45.660 -32.264   1.411  1.00  0.00    -0.086 SA
HETATM    7  C   UNL     1      43.872 -32.265   0.948  1.00  0.00     0.093 C 
HETATM    8  C   UNL     1      43.689 -31.046   0.007  1.00  0.00     0.121 C 
HETATM    9  C   UNL     1      42.917 -32.166   2.125  1.00  0.00     0.158 C 
HETATM   10  S   UNL     1      42.259 -30.513   2.100  1.00  0.00     0.147 S 
HETATM   11  O   UNL     1      42.524 -29.874   3.369  1.00  0.00    -0.228 OA
HETATM   12  O   UNL     1      40.936 -30.568   1.513  1.00  0.00    -0.228 OA
HETATM   13  C   UNL     1      43.360 -29.847   0.885  1.00  0.00     0.167 C 
ENDROOT
BRANCH   1  14
HETATM   14  C   UNL     1      44.968 -30.098  -1.875  1.00  0.00     0.049 A 
HETATM   15  C   UNL     1      44.517 -30.663  -3.103  1.00  0.00    -0.031 A 
HETATM   16  C   UNL     1      44.465 -29.854  -4.250  1.00  0.00     0.009 A 
HETATM   17  C   UNL     1      44.917 -28.542  -4.222  1.00  0.00     0.001 A 
HETATM   18  C   UNL     1      45.417 -28.005  -3.041  1.00  0.00     0.009 A 
HETATM   19  C   UNL     1      45.432 -28.752  -1.849  1.00  0.00    -0.031 A 
BRANCH  15  20
HETATM   20  C   UNL     1      44.081 -32.115  -3.209  1.00  0.00     0.036 C 
HETATM   21  C   UNL     1      44.245 -32.752  -4.587  1.00  0.00     0.010 C 
ENDBRANCH  15  20
BRANCH  19  22
HETATM   22  C   UNL     1      45.991 -28.105  -0.592  1.00  0.00     0.036 C 
HETATM   23  C   UNL     1      47.488 -27.809  -0.605  1.00  0.00     0.010 C 
ENDBRANCH  19  22
ENDBRANCH   1  14
TORSDOF 3
ENDMDL
MODEL 6
REMARK VINA RESULT:      -6.0     15.282     17.172
REMARK  3 active torsions:
REMARK  status: ('A' for Active; 'I' for Inactive)
REMARK    1  A    between atoms: C_2  and  C_3 
REMARK    2  A    between atoms: C_4  and  N_5 
REMARK    3  A    between atoms: C_18  and  C_19 
ROOT
HETATM    1  N   UNL     1      45.008 -30.899  -0.667  1.00  0.00    -0.320 N 
HETATM    2  C   UNL     1      46.130 -31.405   0.035  1.00  0.00     0.141 C 
HETATM    3  N   UNL     1      47.348 -31.304  -0.414  1.00  0.00    -0.380 N 
HETATM    4  H   UNL     1      48.112 -31.699   0.116  1.00  0.00     0.158 HD
HETATM    5  H   UNL     1      47.509 -30.851  -1.303  1.00  0.00     0.158 HD
HETATM    6  S   UNL     1      45.711 -32.208   1.490  1.00  0.00    -0.086 SA
HETATM    7  C   UNL     1      43.929 -32.273   1.009  1.00  0.00     0.093 C 
HETATM    8  C   UNL     1      43.720 -31.084   0.036  1.00  0.00     0.121 C 
HETATM    9  C   UNL     1      42.958 -32.174   2.173  1.00  0.00     0.158 C 
HETATM   10  S   UNL     1      42.251 -30.543   2.099  1.00  0.00     0.147 S 
HETATM   11  O   UNL     1      42.482 -29.865   3.355  1.00  0.00    -0.228 OA
HETATM   12  O   UNL     1      40.938 -30.652   1.499  1.00  0.00    -0.228 OA
HETATM   13  C   UNL     1      43.346 -29.874   0.880  1.00  0.00     0.167 C 
ENDROOT
BRANCH   1  14
HETATM   14  C   UNL     1      44.992 -30.143  -1.855  1.00  0.00     0.049 A 
HETATM   15  C   UNL     1      45.415 -28.784  -1.833  1.00  0.00    -0.031 A 
HETATM   16  C   UNL     1      45.445 -28.056  -3.035  1.00  0.00     0.009 A 
HETATM   17  C   UNL     1      44.995 -28.618  -4.222  1.00  0.00     0.001 A 
HETATM   18  C   UNL     1      44.521 -29.924  -4.237  1.00  0.00     0.009 A 
HETATM   19  C   UNL     1      44.530 -30.716  -3.074  1.00  0.00    -0.031 A 
BRANCH  15  20
HETATM   20  C   UNL     1      45.847 -28.095  -0.548  1.00  0.00     0.036 C 
HETATM   21  C   UNL     1      47.336 -27.774  -0.443  1.00  0.00     0.010 C 
ENDBRANCH  15  20
BRANCH  19  22
HETATM   22  C   UNL     1      43.998 -32.138  -3.159  1.00  0.00     0.036 C 
HETATM   23  C   UNL     1      44.231 -32.858  -4.484  1.00  0.00     0.010 C 
ENDBRANCH  19  22
ENDBRANCH   1  14
TORSDOF 3
ENDMDL
MODEL 7
REMARK VINA RESULT:      -6.0      2.811      4.776
REMARK  3 active torsions:
REMARK  status: ('A' for Active; 'I' for Inactive)
REMARK    1  A    between atoms: C_2  and  C_3 
REMARK    2  A    between atoms: C_4  and  N_5 
REMARK    3  A    between atoms: C_18  and  C_19 
ROOT
HETATM    1  N   UNL     1      41.579 -12.493   4.582  1.00  0.00    -0.320 N 
HETATM    2  C   UNL     1      42.227 -11.490   3.819  1.00  0.00     0.141 C 
HETATM    3  N   UNL     1      42.953 -11.759   2.772  1.00  0.00    -0.380 N 
HETATM    4  H   UNL     1      43.410 -11.008   2.274  1.00  0.00     0.158 HD
HETATM    5  H   UNL     1      43.067 -12.721   2.486  1.00  0.00     0.158 HD
HETATM    6  S   UNL     1      42.007  -9.912   4.452  1.00  0.00    -0.086 SA
HETATM    7  C   UNL     1      41.364 -10.580   6.050  1.00  0.00     0.093 C 
HETATM    8  C   UNL     1      40.773 -11.973   5.708  1.00  0.00     0.121 C 
HETATM    9  C   UNL     1      40.309  -9.714   6.716  1.00  0.00     0.158 C 
HETATM   10  S   UNL     1      38.756 -10.548   6.486  1.00  0.00     0.147 S 
HETATM   11  O   UNL     1      37.829  -9.659   5.821  1.00  0.00    -0.228 OA
HETATM   12  O   UNL     1      38.431 -11.236   7.718  1.00  0.00    -0.228 OA
HETATM   13  C   UNL     1      39.316 -11.759   5.325  1.00  0.00     0.167 C 
ENDROOT
BRANCH   1  14
HETATM   14  C   UNL     1      41.502 -13.875   4.319  1.00  0.00     0.049 A 
HETATM   15  C   UNL     1      42.306 -14.781   5.069  1.00  0.00    -0.031 A 
HETATM   16  C   UNL     1      42.181 -16.161   4.835  1.00  0.00     0.009 A 
HETATM   17  C   UNL     1      41.349 -16.644   3.834  1.00  0.00     0.001 A 
HETATM   18  C   UNL     1      40.611 -15.760   3.057  1.00  0.00     0.009 A 
HETATM   19  C   UNL     1      40.651 -14.374   3.293  1.00  0.00    -0.031 A 
BRANCH  15  20
HETATM   20  C   UNL     1      43.289 -14.303   6.125  1.00  0.00     0.036 C 
HETATM   21  C   UNL     1      43.110 -14.911   7.514  1.00  0.00     0.010 C 
ENDBRANCH  15  20
BRANCH  19  22
HETATM   22  C   UNL     1      39.818 -13.460   2.407  1.00  0.00     0.036 C 
HETATM   23  C   UNL     1      40.015 -13.632   0.903  1.00  0.00     0.010 C 
ENDBRANCH  19  22
ENDBRANCH   1  14
TORSDOF 3
ENDMDL
MODEL 8
REMARK VINA RESULT:      -6.0      4.113      6.551
REMARK  3 active torsions:
REMARK  status: ('A' for Active; 'I' for Inactive)
REMARK    1  A    between atoms: C_2  and  C_3 
REMARK    2  A    between atoms: C_4  and  N_5 
REMARK    3  A    between atoms: C_18  and  C_19 
ROOT
HETATM    1  N   UNL     1      40.254 -12.682   0.733  1.00  0.00    -0.320 N 
HETATM    2  C   UNL     1      39.066 -12.517   1.487  1.00  0.00     0.141 C 
HETATM    3  N   UNL     1      37.999 -11.944   1.007  1.00  0.00    -0.380 N 
HETATM    4  H   UNL     1      37.184 -11.833   1.594  1.00  0.00     0.158 HD
HETATM    5  H   UNL     1      38.013 -11.596   0.059  1.00  0.00     0.158 HD
HETATM    6  S   UNL     1      39.203 -13.089   3.098  1.00  0.00    -0.086 SA
HETATM    7  C   UNL     1      41.041 -13.200   2.963  1.00  0.00     0.093 C 
HETATM    8  C   UNL     1      41.334 -13.392   1.453  1.00  0.00     0.121 C 
HETATM    9  C   UNL     1      41.664 -14.331   3.764  1.00  0.00     0.158 C 
HETATM   10  S   UNL     1      42.149 -15.572   2.587  1.00  0.00     0.147 S 
HETATM   11  O   UNL     1      41.521 -16.828   2.931  1.00  0.00    -0.228 OA
HETATM   12  O   UNL     1      43.574 -15.446   2.365  1.00  0.00    -0.228 OA
HETATM   13  C   UNL     1      41.322 -14.889   1.180  1.00  0.00     0.167 C 
ENDROOT
BRANCH   1  14
HETATM   14  C   UNL     1      40.474 -12.381  -0.625  1.00  0.00     0.049 A 
HETATM   15  C   UNL     1      41.090 -11.148  -0.984  1.00  0.00    -0.031 A 
HETATM   16  C   UNL     1      41.352 -10.883  -2.339  1.00  0.00     0.009 A 
HETATM   17  C   UNL     1      40.950 -11.766  -3.331  1.00  0.00     0.001 A 
HETATM   18  C   UNL     1      40.290 -12.941  -2.990  1.00  0.00     0.009 A 
HETATM   19  C   UNL     1      40.061 -13.284  -1.645  1.00  0.00    -0.031 A 
BRANCH  15  20
HETATM   20  C   UNL     1      41.484 -10.111   0.056  1.00  0.00     0.036 C 
HETATM   21  C   UNL     1      41.677  -8.691  -0.472  1.00  0.00     0.010 C 
ENDBRANCH  15  20
BRANCH  19  22
HETATM   22  C   UNL     1      39.335 -14.585  -1.340  1.00  0.00     0.036 C 
HETATM   23  C   UNL     1      38.699 -15.289  -2.535  1.00  0.00     0.010 C 
ENDBRANCH  19  22
ENDBRANCH   1  14
TORSDOF 3
ENDMDL
MODEL 9
REMARK VINA RESULT:      -6.0      2.760      3.676
REMARK  3 active torsions:
REMARK  status: ('A' for Active; 'I' for Inactive)
REMARK    1  A    between atoms: C_2  and  C_3 
REMARK    2  A    between atoms: C_4  and  N_5 
REMARK    3  A    between atoms: C_18  and  C_19 
ROOT
HETATM    1  N   UNL     1      41.698 -12.647   4.754  1.00  0.00    -0.320 N 
HETATM    2  C   UNL     1      42.369 -11.676   3.969  1.00  0.00     0.141 C 
HETATM    3  N   UNL     1      43.111 -11.987   2.945  1.00  0.00    -0.380 N 
HETATM    4  H   UNL     1      43.584 -11.258   2.431  1.00  0.00     0.158 HD
HETATM    5  H   UNL     1      43.223 -12.960   2.696  1.00  0.00     0.158 HD
HETATM    6  S   UNL     1      42.152 -10.076   4.542  1.00  0.00    -0.086 SA
HETATM    7  C   UNL     1      41.475 -10.681   6.150  1.00  0.00     0.093 C 
HETATM    8  C   UNL     1      40.878 -12.080   5.847  1.00  0.00     0.121 C 
HETATM    9  C   UNL     1      40.416  -9.783   6.766  1.00  0.00     0.158 C 
HETATM   10  S   UNL     1      38.859 -10.612   6.537  1.00  0.00     0.147 S 
HETATM   11  O   UNL     1      37.953  -9.740   5.825  1.00  0.00    -0.228 OA
HETATM   12  O   UNL     1      38.506 -11.254   7.787  1.00  0.00    -0.228 OA
HETATM   13  C   UNL     1      39.430 -11.868   5.429  1.00  0.00     0.167 C 
ENDROOT
BRANCH   1  14
HETATM   14  C   UNL     1      41.615 -14.036   4.539  1.00  0.00     0.049 A 
HETATM   15  C   UNL     1      40.794 -14.539   3.490  1.00  0.00    -0.031 A 
HETATM   16  C   UNL     1      40.761 -15.924   3.251  1.00  0.00     0.009 A 
HETATM   17  C   UNL     1      41.452 -16.808   4.069  1.00  0.00     0.001 A 
HETATM   18  C   UNL     1      42.203 -16.325   5.134  1.00  0.00     0.009 A 
HETATM   19  C   UNL     1      42.321 -14.945   5.377  1.00  0.00    -0.031 A 
BRANCH  15  20
HETATM   20  C   UNL     1      39.957 -13.624   2.610  1.00  0.00     0.036 C 
HETATM   21  C   UNL     1      40.191 -13.761   1.108  1.00  0.00     0.010 C 
ENDBRANCH  15  20
BRANCH  19  22
HETATM   22  C   UNL     1      43.160 -14.483   6.559  1.00  0.00     0.036 C 
HETATM   23  C   UNL     1      43.035 -15.318   7.830  1.00  0.00     0.010 C 
ENDBRANCH  19  22
ENDBRANCH   1  14
TORSDOF 3
ENDMDL
MODEL 10
REMARK VINA RESULT:      -5.9      3.324      6.139
REMARK  3 active torsions:
REMARK  status: ('A' for Active; 'I' for Inactive)
REMARK    1  A    between atoms: C_2  and  C_3 
REMARK    2  A    between atoms: C_4  and  N_5 
REMARK    3  A    between atoms: C_18  and  C_19 
ROOT
HETATM    1  N   UNL     1      42.163 -12.300   5.196  1.00  0.00    -0.320 N 
HETATM    2  C   UNL     1      42.896 -12.436   3.991  1.00  0.00     0.141 C 
HETATM    3  N   UNL     1      43.690 -11.507   3.539  1.00  0.00    -0.380 N 
HETATM    4  H   UNL     1      44.174 -11.646   2.664  1.00  0.00     0.158 HD
HETATM    5  H   UNL     1      43.789 -10.649   4.062  1.00  0.00     0.158 HD
HETATM    6  S   UNL     1      42.582 -13.908   3.171  1.00  0.00    -0.086 SA
HETATM    7  C   UNL     1      41.097 -14.242   4.218  1.00  0.00     0.093 C 
HETATM    8  C   UNL     1      41.351 -13.486   5.548  1.00  0.00     0.121 C 
HETATM    9  C   UNL     1      40.839 -15.713   4.494  1.00  0.00     0.158 C 
HETATM   10  S   UNL     1      41.297 -15.994   6.189  1.00  0.00     0.147 S 
HETATM   11  O   UNL     1      42.289 -17.044   6.249  1.00  0.00    -0.228 OA
HETATM   12  O   UNL     1      40.085 -16.017   6.982  1.00  0.00    -0.228 OA
HETATM   13  C   UNL     1      42.094 -14.440   6.471  1.00  0.00     0.167 C 
ENDROOT
BRANCH   1  14
HETATM   14  C   UNL     1      42.221 -11.256   6.139  1.00  0.00     0.049 A 
HETATM   15  C   UNL     1      41.155 -10.314   6.216  1.00  0.00    -0.031 A 
HETATM   16  C   UNL     1      41.199  -9.309   7.196  1.00  0.00     0.009 A 
HETATM   17  C   UNL     1      42.299  -9.174   8.033  1.00  0.00     0.001 A 
HETATM   18  C   UNL     1      43.371 -10.052   7.919  1.00  0.00     0.009 A 
HETATM   19  C   UNL     1      43.348 -11.114   6.998  1.00  0.00    -0.031 A 
BRANCH  15  20
HETATM   20  C   UNL     1      39.961 -10.369   5.275  1.00  0.00     0.036 C 
HETATM   21  C   UNL     1      38.624 -10.708   5.929  1.00  0.00     0.010 C 
ENDBRANCH  15  20
BRANCH  19  22
HETATM   22  C   UNL     1      44.553 -12.039   6.924  1.00  0.00     0.036 C 
HETATM   23  C   UNL     1      45.863 -11.391   6.486  1.00  0.00     0.010 C 
ENDBRANCH  19  22
ENDBRANCH   1  14
TORSDOF 3
ENDMDL
