MODEL 1
REMARK VINA RESULT:      -8.0      0.000      0.000
REMARK  10 active torsions:
REMARK  status: ('A' for Active; 'I' for Inactive)
REMARK    1  A    between atoms: C_3  and  C_4 
REMARK    2  A    between atoms: C_4  and  C_5 
REMARK       I    between atoms: C_5  and  N_6 
REMARK    3  A    between atoms: N_6  and  C_7 
REMARK    4  A    between atoms: C_7  and  C_8 
REMARK    5  A    between atoms: C_8  and  O_9 
REMARK    6  A    between atoms: C_15  and  N_16 
REMARK       I    between atoms: N_16  and  C_17 
REMARK    7  A    between atoms: C_17  and  C_18 
REMARK    8  A    between atoms: C_28  and  C_29 
REMARK    9  A    between atoms: C_29  and  O_30 
REMARK   10  A    between atoms: C_32  and  O_33 
ROOT
HETATM    1  C   UNL     1      43.904 -14.873   1.764  1.00  0.00     0.016 C 
HETATM    2  C   UNL     1      42.549 -15.022   2.528  1.00  0.00    -0.030 C 
HETATM    3  C   UNL     1      42.828 -15.225   4.087  1.00  0.00     0.056 C 
HETATM    4  C   UNL     1      43.090 -13.892   4.757  1.00  0.00     0.056 C 
HETATM    5  C   UNL     1      42.931 -12.670   4.135  1.00  0.00     0.012 C 
HETATM    6  S   UNL     1      43.337 -11.407   5.194  1.00  0.00    -0.055 SA
HETATM    7  C   UNL     1      43.472 -12.546   6.463  1.00  0.00     0.173 C 
HETATM    8  N   UNL     1      43.350 -13.809   6.117  1.00  0.00    -0.227 NA
HETATM    9  C   UNL     1      42.428 -12.446   2.755  1.00  0.00     0.055 C 
HETATM   10  C   UNL     1      41.690 -13.715   2.248  1.00  0.00     0.012 C 
HETATM   11  C   UNL     1      40.142 -13.804   2.630  1.00  0.00     0.008 C 
HETATM   12  C   UNL     1      39.384 -12.900   1.612  1.00  0.00     0.020 C 
HETATM   13  C   UNL     1      39.603 -15.257   2.444  1.00  0.00     0.128 C 
HETATM   14  C   UNL     1      40.423 -16.052   1.437  1.00  0.00     0.033 C 
HETATM   15  C   UNL     1      41.847 -16.286   1.941  1.00  0.00     0.013 C 
ENDROOT
BRANCH   7  16
HETATM   16  N   UNL     1      43.492 -12.140   7.772  1.00  0.00    -0.305 N 
HETATM   17  C   UNL     1      44.448 -11.305   8.308  1.00  0.00     0.227 C 
HETATM   18  O   UNL     1      45.618 -11.254   7.938  1.00  0.00    -0.273 OA
HETATM   19  H   UNL     1      42.718 -12.479   8.331  1.00  0.00     0.171 HD
BRANCH  17  20
HETATM   20  C   UNL     1      43.903 -10.405   9.423  1.00  0.00     0.078 C 
HETATM   21  C   UNL     1      44.923  -9.350   9.878  1.00  0.00     0.014 C 
HETATM   22  C   UNL     1      45.126  -8.211   8.874  1.00  0.00     0.001 C 
HETATM   23  C   UNL     1      43.808  -7.590   8.426  1.00  0.00     0.000 C 
HETATM   24  C   UNL     1      42.826  -8.643   7.929  1.00  0.00     0.001 C 
HETATM   25  C   UNL     1      42.593  -9.732   8.977  1.00  0.00     0.014 C 
ENDBRANCH  17  20
ENDBRANCH   7  16
BRANCH   3  26
HETATM   26  C   UNL     1      43.968 -16.230   4.357  1.00  0.00     0.114 C 
BRANCH  26  27
HETATM   27  C   UNL     1      43.536 -17.513   5.041  1.00  0.00     0.218 C 
HETATM   28  N   UNL     1      44.334 -18.600   4.810  1.00  0.00    -0.359 N 
HETATM   29  H   UNL     1      45.287 -18.429   4.482  1.00  0.00     0.162 HD
HETATM   30  O   UNL     1      42.497 -17.574   5.697  1.00  0.00    -0.274 OA
BRANCH  28  31
HETATM   31  C   UNL     1      44.004 -19.907   5.335  1.00  0.00     0.148 C 
BRANCH  31  32
HETATM   32  C   UNL     1      43.641 -20.904   4.231  1.00  0.00     0.186 C 
BRANCH  32  33
HETATM   33  O   UNL     1      44.181 -20.560   2.946  1.00  0.00    -0.394 OA
HETATM   34  C   UNL     1      43.166 -20.311   1.977  1.00  0.00     0.201 C 
ENDBRANCH  32  33
ENDBRANCH  31  32
ENDBRANCH  28  31
ENDBRANCH  26  27
ENDBRANCH   3  26
BRANCH  11  35
HETATM   35  C   UNL     1      39.754 -13.314   4.053  1.00  0.00     0.176 C 
BRANCH  35  36
HETATM   36  O   UNL     1      39.113 -12.045   4.035  1.00  0.00    -0.400 OA
HETATM   37  H   UNL     1      39.212 -11.668   4.926  1.00  0.00     0.209 HD
ENDBRANCH  35  36
ENDBRANCH  11  35
BRANCH  13  38
HETATM   38  O   UNL     1      39.600 -15.968   3.683  1.00  0.00    -0.395 OA
HETATM   39  H   UNL     1      38.777 -15.742   4.154  1.00  0.00     0.210 HD
ENDBRANCH  13  38
TORSDOF 10
ENDMDL
MODEL 2
REMARK VINA RESULT:      -7.8      3.067      7.272
REMARK  10 active torsions:
REMARK  status: ('A' for Active; 'I' for Inactive)
REMARK    1  A    between atoms: C_3  and  C_4 
REMARK    2  A    between atoms: C_4  and  C_5 
REMARK       I    between atoms: C_5  and  N_6 
REMARK    3  A    between atoms: N_6  and  C_7 
REMARK    4  A    between atoms: C_7  and  C_8 
REMARK    5  A    between atoms: C_8  and  O_9 
REMARK    6  A    between atoms: C_15  and  N_16 
REMARK       I    between atoms: N_16  and  C_17 
REMARK    7  A    between atoms: C_17  and  C_18 
REMARK    8  A    between atoms: C_28  and  C_29 
REMARK    9  A    between atoms: C_29  and  O_30 
REMARK   10  A    between atoms: C_32  and  O_33 
ROOT
HETATM    1  C   UNL     1      40.178 -14.570   6.261  1.00  0.00     0.016 C 
HETATM    2  C   UNL     1      41.507 -13.938   5.735  1.00  0.00    -0.030 C 
HETATM    3  C   UNL     1      41.935 -14.643   4.368  1.00  0.00     0.056 C 
HETATM    4  C   UNL     1      41.164 -14.057   3.204  1.00  0.00     0.056 C 
HETATM    5  C   UNL     1      40.344 -12.951   3.299  1.00  0.00     0.012 C 
HETATM    6  S   UNL     1      39.636 -12.605   1.795  1.00  0.00    -0.055 SA
HETATM    7  C   UNL     1      40.637 -13.793   1.078  1.00  0.00     0.173 C 
HETATM    8  N   UNL     1      41.369 -14.504   1.907  1.00  0.00    -0.227 NA
HETATM    9  C   UNL     1      40.124 -12.122   4.512  1.00  0.00     0.055 C 
HETATM   10  C   UNL     1      41.259 -12.380   5.542  1.00  0.00     0.012 C 
HETATM   11  C   UNL     1      42.566 -11.484   5.356  1.00  0.00     0.008 C 
HETATM   12  C   UNL     1      42.245 -10.097   5.989  1.00  0.00     0.020 C 
HETATM   13  C   UNL     1      43.770 -12.082   6.149  1.00  0.00     0.128 C 
HETATM   14  C   UNL     1      43.319 -12.948   7.317  1.00  0.00     0.033 C 
HETATM   15  C   UNL     1      42.585 -14.197   6.833  1.00  0.00     0.013 C 
ENDROOT
BRANCH   7  16
HETATM   16  N   UNL     1      40.807 -13.840  -0.282  1.00  0.00    -0.305 N 
HETATM   17  C   UNL     1      39.930 -14.451  -1.150  1.00  0.00     0.227 C 
HETATM   18  O   UNL     1      39.249 -15.437  -0.877  1.00  0.00    -0.273 OA
HETATM   19  H   UNL     1      41.629 -13.355  -0.621  1.00  0.00     0.171 HD
BRANCH  17  20
HETATM   20  C   UNL     1      39.859 -13.761  -2.517  1.00  0.00     0.078 C 
HETATM   21  C   UNL     1      38.574 -14.109  -3.285  1.00  0.00     0.014 C 
HETATM   22  C   UNL     1      37.317 -13.433  -2.729  1.00  0.00     0.001 C 
HETATM   23  C   UNL     1      37.498 -11.930  -2.550  1.00  0.00     0.000 C 
HETATM   24  C   UNL     1      38.747 -11.602  -1.742  1.00  0.00     0.001 C 
HETATM   25  C   UNL     1      39.995 -12.237  -2.357  1.00  0.00     0.014 C 
ENDBRANCH  17  20
ENDBRANCH   7  16
BRANCH   3  26
HETATM   26  C   UNL     1      41.794 -16.179   4.426  1.00  0.00     0.114 C 
BRANCH  26  27
HETATM   27  C   UNL     1      43.051 -16.947   4.063  1.00  0.00     0.218 C 
HETATM   28  N   UNL     1      42.913 -17.853   3.047  1.00  0.00    -0.359 N 
HETATM   29  H   UNL     1      42.118 -17.740   2.414  1.00  0.00     0.162 HD
HETATM   30  O   UNL     1      44.096 -16.807   4.695  1.00  0.00    -0.274 OA
BRANCH  28  31
HETATM   31  C   UNL     1      44.006 -18.711   2.643  1.00  0.00     0.148 C 
BRANCH  31  32
HETATM   32  C   UNL     1      43.520 -20.061   2.109  1.00  0.00     0.186 C 
BRANCH  32  33
HETATM   33  O   UNL     1      43.976 -21.182   2.882  1.00  0.00    -0.394 OA
HETATM   34  C   UNL     1      43.908 -20.942   4.285  1.00  0.00     0.201 C 
ENDBRANCH  32  33
ENDBRANCH  31  32
ENDBRANCH  28  31
ENDBRANCH  26  27
ENDBRANCH   3  26
BRANCH  11  35
HETATM   35  C   UNL     1      43.022 -11.224   3.894  1.00  0.00     0.176 C 
BRANCH  35  36
HETATM   36  O   UNL     1      42.445 -10.044   3.347  1.00  0.00    -0.400 OA
HETATM   37  H   UNL     1      41.549  -9.971   3.719  1.00  0.00     0.209 HD
ENDBRANCH  35  36
ENDBRANCH  11  35
BRANCH  13  38
HETATM   38  O   UNL     1      44.605 -12.872   5.301  1.00  0.00    -0.395 OA
HETATM   39  H   UNL     1      45.526 -12.582   5.435  1.00  0.00     0.210 HD
ENDBRANCH  13  38
TORSDOF 10
ENDMDL
MODEL 3
REMARK VINA RESULT:      -7.5      3.099      7.206
REMARK  10 active torsions:
REMARK  status: ('A' for Active; 'I' for Inactive)
REMARK    1  A    between atoms: C_3  and  C_4 
REMARK    2  A    between atoms: C_4  and  C_5 
REMARK       I    between atoms: C_5  and  N_6 
REMARK    3  A    between atoms: N_6  and  C_7 
REMARK    4  A    between atoms: C_7  and  C_8 
REMARK    5  A    between atoms: C_8  and  O_9 
REMARK    6  A    between atoms: C_15  and  N_16 
REMARK       I    between atoms: N_16  and  C_17 
REMARK    7  A    between atoms: C_17  and  C_18 
REMARK    8  A    between atoms: C_28  and  C_29 
REMARK    9  A    between atoms: C_29  and  O_30 
REMARK   10  A    between atoms: C_32  and  O_33 
ROOT
HETATM    1  C   UNL     1      40.351 -14.727   6.627  1.00  0.00     0.016 C 
HETATM    2  C   UNL     1      41.496 -13.984   5.863  1.00  0.00    -0.030 C 
HETATM    3  C   UNL     1      41.578 -14.520   4.362  1.00  0.00     0.056 C 
HETATM    4  C   UNL     1      40.530 -13.848   3.500  1.00  0.00     0.056 C 
HETATM    5  C   UNL     1      39.742 -12.797   3.921  1.00  0.00     0.012 C 
HETATM    6  S   UNL     1      38.674 -12.324   2.689  1.00  0.00    -0.055 SA
HETATM    7  C   UNL     1      39.481 -13.383   1.615  1.00  0.00     0.173 C 
HETATM    8  N   UNL     1      40.410 -14.145   2.150  1.00  0.00    -0.227 NA
HETATM    9  C   UNL     1      39.820 -12.112   5.237  1.00  0.00     0.055 C 
HETATM   10  C   UNL     1      41.181 -12.428   5.918  1.00  0.00     0.012 C 
HETATM   11  C   UNL     1      42.385 -11.459   5.517  1.00  0.00     0.008 C 
HETATM   12  C   UNL     1      42.210 -10.164   6.364  1.00  0.00     0.020 C 
HETATM   13  C   UNL     1      43.760 -12.084   5.914  1.00  0.00     0.128 C 
HETATM   14  C   UNL     1      43.630 -13.089   7.051  1.00  0.00     0.033 C 
HETATM   15  C   UNL     1      42.819 -14.311   6.623  1.00  0.00     0.013 C 
ENDROOT
BRANCH   7  16
HETATM   16  N   UNL     1      39.306 -13.277   0.260  1.00  0.00    -0.305 N 
HETATM   17  C   UNL     1      39.668 -12.175  -0.483  1.00  0.00     0.227 C 
HETATM   18  O   UNL     1      39.662 -11.019  -0.067  1.00  0.00    -0.273 OA
HETATM   19  H   UNL     1      38.908 -14.099  -0.180  1.00  0.00     0.171 HD
BRANCH  17  20
HETATM   20  C   UNL     1      40.112 -12.530  -1.906  1.00  0.00     0.078 C 
HETATM   21  C   UNL     1      40.259 -14.045  -2.117  1.00  0.00     0.014 C 
HETATM   22  C   UNL     1      38.924 -14.791  -2.204  1.00  0.00     0.001 C 
HETATM   23  C   UNL     1      37.968 -14.155  -3.207  1.00  0.00     0.000 C 
HETATM   24  C   UNL     1      37.792 -12.663  -2.954  1.00  0.00     0.001 C 
HETATM   25  C   UNL     1      39.136 -11.934  -2.937  1.00  0.00     0.014 C 
ENDBRANCH  17  20
ENDBRANCH   7  16
BRANCH   3  26
HETATM   26  C   UNL     1      41.482 -16.058   4.278  1.00  0.00     0.114 C 
BRANCH  26  27
HETATM   27  C   UNL     1      42.736 -16.748   3.776  1.00  0.00     0.218 C 
HETATM   28  N   UNL     1      42.528 -17.808   2.937  1.00  0.00    -0.359 N 
HETATM   29  H   UNL     1      41.622 -17.872   2.466  1.00  0.00     0.162 HD
HETATM   30  O   UNL     1      43.854 -16.411   4.162  1.00  0.00    -0.274 OA
BRANCH  28  31
HETATM   31  C   UNL     1      43.627 -18.609   2.440  1.00  0.00     0.148 C 
BRANCH  31  32
HETATM   32  C   UNL     1      43.188 -20.022   2.048  1.00  0.00     0.186 C 
BRANCH  32  33
HETATM   33  O   UNL     1      43.925 -21.058   2.714  1.00  0.00    -0.394 OA
HETATM   34  C   UNL     1      43.894 -20.923   4.134  1.00  0.00     0.201 C 
ENDBRANCH  32  33
ENDBRANCH  31  32
ENDBRANCH  28  31
ENDBRANCH  26  27
ENDBRANCH   3  26
BRANCH  11  35
HETATM   35  C   UNL     1      42.455 -11.025   4.027  1.00  0.00     0.176 C 
BRANCH  35  36
HETATM   36  O   UNL     1      42.091  -9.663   3.841  1.00  0.00    -0.400 OA
HETATM   37  H   UNL     1      42.780  -9.127   4.271  1.00  0.00     0.209 HD
ENDBRANCH  35  36
ENDBRANCH  11  35
BRANCH  13  38
HETATM   38  O   UNL     1      44.368 -12.741   4.800  1.00  0.00    -0.395 OA
HETATM   39  H   UNL     1      43.724 -12.744   4.068  1.00  0.00     0.210 HD
ENDBRANCH  13  38
TORSDOF 10
ENDMDL
MODEL 4
REMARK VINA RESULT:      -7.4      2.996      8.290
REMARK  10 active torsions:
REMARK  status: ('A' for Active; 'I' for Inactive)
REMARK    1  A    between atoms: C_3  and  C_4 
REMARK    2  A    between atoms: C_4  and  C_5 
REMARK       I    between atoms: C_5  and  N_6 
REMARK    3  A    between atoms: N_6  and  C_7 
REMARK    4  A    between atoms: C_7  and  C_8 
REMARK    5  A    between atoms: C_8  and  O_9 
REMARK    6  A    between atoms: C_15  and  N_16 
REMARK       I    between atoms: N_16  and  C_17 
REMARK    7  A    between atoms: C_17  and  C_18 
REMARK    8  A    between atoms: C_28  and  C_29 
REMARK    9  A    between atoms: C_29  and  O_30 
REMARK   10  A    between atoms: C_32  and  O_33 
ROOT
HETATM    1  C   UNL     1      42.202  -6.700   7.925  1.00  0.00     0.016 C 
HETATM    2  C   UNL     1      41.841  -7.881   8.883  1.00  0.00    -0.030 C 
HETATM    3  C   UNL     1      41.587  -9.208   8.032  1.00  0.00     0.056 C 
HETATM    4  C   UNL     1      42.902  -9.867   7.671  1.00  0.00     0.056 C 
HETATM    5  C   UNL     1      44.127  -9.468   8.164  1.00  0.00     0.012 C 
HETATM    6  S   UNL     1      45.369 -10.429   7.520  1.00  0.00    -0.055 SA
HETATM    7  C   UNL     1      44.186 -11.446   6.819  1.00  0.00     0.173 C 
HETATM    8  N   UNL     1      42.939 -11.043   6.938  1.00  0.00    -0.227 NA
HETATM    9  C   UNL     1      44.365  -8.390   9.158  1.00  0.00     0.055 C 
HETATM   10  C   UNL     1      43.044  -8.058   9.906  1.00  0.00     0.012 C 
HETATM   11  C   UNL     1      42.740  -8.960  11.188  1.00  0.00     0.008 C 
HETATM   12  C   UNL     1      43.598  -8.377  12.351  1.00  0.00     0.020 C 
HETATM   13  C   UNL     1      41.244  -8.837  11.616  1.00  0.00     0.128 C 
HETATM   14  C   UNL     1      40.617  -7.530  11.151  1.00  0.00     0.033 C 
HETATM   15  C   UNL     1      40.535  -7.463   9.627  1.00  0.00     0.013 C 
ENDROOT
BRANCH   7  16
HETATM   16  N   UNL     1      44.517 -12.694   6.358  1.00  0.00    -0.305 N 
HETATM   17  C   UNL     1      43.906 -13.857   6.771  1.00  0.00     0.227 C 
HETATM   18  O   UNL     1      43.441 -14.042   7.893  1.00  0.00    -0.273 OA
HETATM   19  H   UNL     1      45.240 -12.704   5.649  1.00  0.00     0.171 HD
BRANCH  17  20
HETATM   20  C   UNL     1      43.837 -14.923   5.671  1.00  0.00     0.078 C 
HETATM   21  C   UNL     1      43.738 -16.348   6.238  1.00  0.00     0.014 C 
HETATM   22  C   UNL     1      42.369 -16.684   6.836  1.00  0.00     0.001 C 
HETATM   23  C   UNL     1      41.224 -16.357   5.884  1.00  0.00     0.000 C 
HETATM   24  C   UNL     1      41.305 -14.925   5.371  1.00  0.00     0.001 C 
HETATM   25  C   UNL     1      42.659 -14.638   4.721  1.00  0.00     0.014 C 
ENDBRANCH  17  20
ENDBRANCH   7  16
BRANCH   3  26
HETATM   26  C   UNL     1      40.720  -8.950   6.781  1.00  0.00     0.114 C 
BRANCH  26  27
HETATM   27  C   UNL     1      39.773 -10.079   6.420  1.00  0.00     0.218 C 
HETATM   28  N   UNL     1      40.187 -10.890   5.400  1.00  0.00    -0.359 N 
HETATM   29  H   UNL     1      41.184 -10.894   5.170  1.00  0.00     0.162 HD
HETATM   30  O   UNL     1      38.679 -10.201   6.968  1.00  0.00    -0.274 OA
BRANCH  28  31
HETATM   31  C   UNL     1      39.354 -11.961   4.896  1.00  0.00     0.148 C 
BRANCH  31  32
HETATM   32  C   UNL     1      39.264 -11.960   3.368  1.00  0.00     0.186 C 
BRANCH  32  33
HETATM   33  O   UNL     1      40.330 -12.680   2.730  1.00  0.00    -0.394 OA
HETATM   34  C   UNL     1      39.880 -13.880   2.104  1.00  0.00     0.201 C 
ENDBRANCH  32  33
ENDBRANCH  31  32
ENDBRANCH  28  31
ENDBRANCH  26  27
ENDBRANCH   3  26
BRANCH  11  35
HETATM   35  C   UNL     1      43.095 -10.468  11.070  1.00  0.00     0.176 C 
BRANCH  35  36
HETATM   36  O   UNL     1      43.001 -11.147  12.316  1.00  0.00    -0.400 OA
HETATM   37  H   UNL     1      43.123 -10.477  13.011  1.00  0.00     0.209 HD
ENDBRANCH  35  36
ENDBRANCH  11  35
BRANCH  13  38
HETATM   38  O   UNL     1      40.469  -9.918  11.095  1.00  0.00    -0.395 OA
HETATM   39  H   UNL     1      39.548  -9.611  11.011  1.00  0.00     0.210 HD
ENDBRANCH  13  38
TORSDOF 10
ENDMDL
MODEL 5
REMARK VINA RESULT:      -7.3      4.206     10.060
REMARK  10 active torsions:
REMARK  status: ('A' for Active; 'I' for Inactive)
REMARK    1  A    between atoms: C_3  and  C_4 
REMARK    2  A    between atoms: C_4  and  C_5 
REMARK       I    between atoms: C_5  and  N_6 
REMARK    3  A    between atoms: N_6  and  C_7 
REMARK    4  A    between atoms: C_7  and  C_8 
REMARK    5  A    between atoms: C_8  and  O_9 
REMARK    6  A    between atoms: C_15  and  N_16 
REMARK       I    between atoms: N_16  and  C_17 
REMARK    7  A    between atoms: C_17  and  C_18 
REMARK    8  A    between atoms: C_28  and  C_29 
REMARK    9  A    between atoms: C_29  and  O_30 
REMARK   10  A    between atoms: C_32  and  O_33 
ROOT
HETATM    1  C   UNL     1      42.407  -5.464  11.185  1.00  0.00     0.016 C 
HETATM    2  C   UNL     1      41.392  -6.616  11.478  1.00  0.00    -0.030 C 
HETATM    3  C   UNL     1      41.051  -7.391  10.124  1.00  0.00     0.056 C 
HETATM    4  C   UNL     1      42.137  -8.395   9.799  1.00  0.00     0.056 C 
HETATM    5  C   UNL     1      43.176  -8.711  10.651  1.00  0.00     0.012 C 
HETATM    6  S   UNL     1      44.203  -9.859   9.935  1.00  0.00    -0.055 SA
HETATM    7  C   UNL     1      43.082 -10.027   8.654  1.00  0.00     0.173 C 
HETATM    8  N   UNL     1      42.060  -9.199   8.672  1.00  0.00    -0.227 NA
HETATM    9  C   UNL     1      43.377  -8.185  12.025  1.00  0.00     0.055 C 
HETATM   10  C   UNL     1      42.050  -7.577  12.558  1.00  0.00     0.012 C 
HETATM   11  C   UNL     1      41.061  -8.611  13.266  1.00  0.00     0.008 C 
HETATM   12  C   UNL     1      41.600  -8.818  14.712  1.00  0.00     0.020 C 
HETATM   13  C   UNL     1      39.625  -8.012  13.392  1.00  0.00     0.128 C 
HETATM   14  C   UNL     1      39.632  -6.489  13.390  1.00  0.00     0.033 C 
HETATM   15  C   UNL     1      40.106  -5.938  12.046  1.00  0.00     0.013 C 
ENDROOT
BRANCH   7  16
HETATM   16  N   UNL     1      43.149 -11.096   7.798  1.00  0.00    -0.305 N 
HETATM   17  C   UNL     1      43.131 -10.989   6.425  1.00  0.00     0.227 C 
HETATM   18  O   UNL     1      42.539 -10.113   5.799  1.00  0.00    -0.273 OA
HETATM   19  H   UNL     1      43.245 -11.996   8.253  1.00  0.00     0.171 HD
BRANCH  17  20
HETATM   20  C   UNL     1      43.957 -12.076   5.727  1.00  0.00     0.078 C 
HETATM   21  C   UNL     1      43.907 -13.420   6.470  1.00  0.00     0.014 C 
HETATM   22  C   UNL     1      42.571 -14.157   6.331  1.00  0.00     0.001 C 
HETATM   23  C   UNL     1      42.125 -14.279   4.878  1.00  0.00     0.000 C 
HETATM   24  C   UNL     1      42.129 -12.930   4.169  1.00  0.00     0.001 C 
HETATM   25  C   UNL     1      43.494 -12.248   4.269  1.00  0.00     0.014 C 
ENDBRANCH  17  20
ENDBRANCH   7  16
BRANCH   3  26
HETATM   26  C   UNL     1      40.793  -6.432   8.943  1.00  0.00     0.114 C 
BRANCH  26  27
HETATM   27  C   UNL     1      39.539  -6.730   8.144  1.00  0.00     0.218 C 
HETATM   28  N   UNL     1      39.717  -7.522   7.042  1.00  0.00    -0.359 N 
HETATM   29  H   UNL     1      40.562  -8.097   7.002  1.00  0.00     0.162 HD
HETATM   30  O   UNL     1      38.455  -6.229   8.437  1.00  0.00    -0.274 OA
BRANCH  28  31
HETATM   31  C   UNL     1      38.625  -7.827   6.143  1.00  0.00     0.148 C 
BRANCH  31  32
HETATM   32  C   UNL     1      38.746  -9.227   5.534  1.00  0.00     0.186 C 
BRANCH  32  33
HETATM   33  O   UNL     1      38.313 -10.275   6.414  1.00  0.00    -0.394 OA
HETATM   34  C   UNL     1      39.365 -11.180   6.744  1.00  0.00     0.201 C 
ENDBRANCH  32  33
ENDBRANCH  31  32
ENDBRANCH  28  31
ENDBRANCH  26  27
ENDBRANCH   3  26
BRANCH  11  35
HETATM   35  C   UNL     1      40.951 -10.017  12.613  1.00  0.00     0.176 C 
BRANCH  35  36
HETATM   36  O   UNL     1      40.101 -10.891  13.346  1.00  0.00    -0.400 OA
HETATM   37  H   UNL     1      40.646 -11.287  14.049  1.00  0.00     0.209 HD
ENDBRANCH  35  36
ENDBRANCH  11  35
BRANCH  13  38
HETATM   38  O   UNL     1      38.784  -8.459  12.328  1.00  0.00    -0.395 OA
HETATM   39  H   UNL     1      38.177  -9.131  12.690  1.00  0.00     0.210 HD
ENDBRANCH  13  38
TORSDOF 10
ENDMDL
MODEL 6
REMARK VINA RESULT:      -7.2      2.892      3.924
REMARK  10 active torsions:
REMARK  status: ('A' for Active; 'I' for Inactive)
REMARK    1  A    between atoms: C_3  and  C_4 
REMARK    2  A    between atoms: C_4  and  C_5 
REMARK       I    between atoms: C_5  and  N_6 
REMARK    3  A    between atoms: N_6  and  C_7 
REMARK    4  A    between atoms: C_7  and  C_8 
REMARK    5  A    between atoms: C_8  and  O_9 
REMARK    6  A    between atoms: C_15  and  N_16 
REMARK       I    between atoms: N_16  and  C_17 
REMARK    7  A    between atoms: C_17  and  C_18 
REMARK    8  A    between atoms: C_28  and  C_29 
REMARK    9  A    between atoms: C_29  and  O_30 
REMARK   10  A    between atoms: C_32  and  O_33 
ROOT
HETATM    1  C   UNL     1      43.535 -11.570   3.814  1.00  0.00     0.016 C 
HETATM    2  C   UNL     1      42.255 -11.979   4.615  1.00  0.00    -0.030 C 
HETATM    3  C   UNL     1      42.621 -12.165   6.158  1.00  0.00     0.056 C 
HETATM    4  C   UNL     1      42.663 -10.822   6.859  1.00  0.00     0.056 C 
HETATM    5  C   UNL     1      42.266  -9.635   6.278  1.00  0.00     0.012 C 
HETATM    6  S   UNL     1      42.476  -8.345   7.361  1.00  0.00    -0.055 SA
HETATM    7  C   UNL     1      42.857  -9.470   8.591  1.00  0.00     0.173 C 
HETATM    8  N   UNL     1      42.952 -10.726   8.211  1.00  0.00    -0.227 NA
HETATM    9  C   UNL     1      41.683  -9.473   4.922  1.00  0.00     0.055 C 
HETATM   10  C   UNL     1      41.167 -10.842   4.399  1.00  0.00     0.012 C 
HETATM   11  C   UNL     1      39.675 -11.217   4.826  1.00  0.00     0.008 C 
HETATM   12  C   UNL     1      38.731 -10.441   3.859  1.00  0.00     0.020 C 
HETATM   13  C   UNL     1      39.399 -12.738   4.613  1.00  0.00     0.128 C 
HETATM   14  C   UNL     1      40.312 -13.349   3.559  1.00  0.00     0.033 C 
HETATM   15  C   UNL     1      41.771 -13.334   4.012  1.00  0.00     0.013 C 
ENDROOT
BRANCH   7  16
HETATM   16  N   UNL     1      42.850  -9.098   9.911  1.00  0.00    -0.305 N 
HETATM   17  C   UNL     1      41.840  -9.404  10.794  1.00  0.00     0.227 C 
HETATM   18  O   UNL     1      40.656  -9.524  10.488  1.00  0.00    -0.273 OA
HETATM   19  H   UNL     1      43.676  -8.594  10.212  1.00  0.00     0.171 HD
BRANCH  17  20
HETATM   20  C   UNL     1      42.338  -9.608  12.230  1.00  0.00     0.078 C 
HETATM   21  C   UNL     1      43.324  -8.515  12.671  1.00  0.00     0.014 C 
HETATM   22  C   UNL     1      42.664  -7.161  12.950  1.00  0.00     0.001 C 
HETATM   23  C   UNL     1      41.469  -7.280  13.890  1.00  0.00     0.000 C 
HETATM   24  C   UNL     1      40.475  -8.331  13.412  1.00  0.00     0.001 C 
HETATM   25  C   UNL     1      41.149  -9.687  13.204  1.00  0.00     0.014 C 
ENDBRANCH  17  20
ENDBRANCH   7  16
BRANCH   3  26
HETATM   26  C   UNL     1      43.931 -12.953   6.364  1.00  0.00     0.114 C 
BRANCH  26  27
HETATM   27  C   UNL     1      43.753 -14.343   6.946  1.00  0.00     0.218 C 
HETATM   28  N   UNL     1      44.199 -15.371   6.161  1.00  0.00    -0.359 N 
HETATM   29  H   UNL     1      44.875 -15.150   5.426  1.00  0.00     0.162 HD
HETATM   30  O   UNL     1      43.179 -14.522   8.019  1.00  0.00    -0.274 OA
BRANCH  28  31
HETATM   31  C   UNL     1      44.026 -16.753   6.553  1.00  0.00     0.148 C 
BRANCH  31  32
HETATM   32  C   UNL     1      43.816 -17.678   5.350  1.00  0.00     0.186 C 
BRANCH  32  33
HETATM   33  O   UNL     1      42.864 -17.178   4.400  1.00  0.00    -0.394 OA
HETATM   34  C   UNL     1      43.305 -17.330   3.053  1.00  0.00     0.201 C 
ENDBRANCH  32  33
ENDBRANCH  31  32
ENDBRANCH  28  31
ENDBRANCH  26  27
ENDBRANCH   3  26
BRANCH  11  35
HETATM   35  C   UNL     1      39.256 -10.839   6.273  1.00  0.00     0.176 C 
BRANCH  35  36
HETATM   36  O   UNL     1      38.027 -10.124   6.314  1.00  0.00    -0.400 OA
HETATM   37  H   UNL     1      38.182  -9.273   5.867  1.00  0.00     0.209 HD
ENDBRANCH  35  36
ENDBRANCH  11  35
BRANCH  13  38
HETATM   38  O   UNL     1      39.566 -13.468   5.830  1.00  0.00    -0.395 OA
HETATM   39  H   UNL     1      38.734 -13.941   6.011  1.00  0.00     0.210 HD
ENDBRANCH  13  38
TORSDOF 10
ENDMDL
MODEL 7
REMARK VINA RESULT:      -7.0      3.519      8.607
REMARK  10 active torsions:
REMARK  status: ('A' for Active; 'I' for Inactive)
REMARK    1  A    between atoms: C_3  and  C_4 
REMARK    2  A    between atoms: C_4  and  C_5 
REMARK       I    between atoms: C_5  and  N_6 
REMARK    3  A    between atoms: N_6  and  C_7 
REMARK    4  A    between atoms: C_7  and  C_8 
REMARK    5  A    between atoms: C_8  and  O_9 
REMARK    6  A    between atoms: C_15  and  N_16 
REMARK       I    between atoms: N_16  and  C_17 
REMARK    7  A    between atoms: C_17  and  C_18 
REMARK    8  A    between atoms: C_28  and  C_29 
REMARK    9  A    between atoms: C_29  and  O_30 
REMARK   10  A    between atoms: C_32  and  O_33 
ROOT
HETATM    1  C   UNL     1      43.749 -12.229   4.989  1.00  0.00     0.016 C 
HETATM    2  C   UNL     1      42.705 -13.373   5.206  1.00  0.00    -0.030 C 
HETATM    3  C   UNL     1      41.236 -12.827   4.899  1.00  0.00     0.056 C 
HETATM    4  C   UNL     1      40.969 -12.829   3.408  1.00  0.00     0.056 C 
HETATM    5  C   UNL     1      41.814 -13.391   2.473  1.00  0.00     0.012 C 
HETATM    6  S   UNL     1      41.192 -13.180   0.907  1.00  0.00    -0.055 SA
HETATM    7  C   UNL     1      39.748 -12.569   1.590  1.00  0.00     0.173 C 
HETATM    8  N   UNL     1      39.753 -12.405   2.895  1.00  0.00    -0.227 NA
HETATM    9  C   UNL     1      43.072 -14.130   2.757  1.00  0.00     0.055 C 
HETATM   10  C   UNL     1      43.100 -14.576   4.245  1.00  0.00     0.012 C 
HETATM   11  C   UNL     1      42.393 -15.973   4.552  1.00  0.00     0.008 C 
HETATM   12  C   UNL     1      43.413 -17.081   4.154  1.00  0.00     0.020 C 
HETATM   13  C   UNL     1      42.114 -16.134   6.080  1.00  0.00     0.128 C 
HETATM   14  C   UNL     1      43.054 -15.290   6.930  1.00  0.00     0.033 C 
HETATM   15  C   UNL     1      42.818 -13.797   6.703  1.00  0.00     0.013 C 
ENDROOT
BRANCH   7  16
HETATM   16  N   UNL     1      38.605 -12.466   0.839  1.00  0.00    -0.305 N 
HETATM   17  C   UNL     1      38.157 -11.295   0.271  1.00  0.00     0.227 C 
HETATM   18  O   UNL     1      38.330 -10.176   0.747  1.00  0.00    -0.273 OA
HETATM   19  H   UNL     1      38.112 -13.340   0.699  1.00  0.00     0.171 HD
BRANCH  17  20
HETATM   20  C   UNL     1      37.421 -11.513  -1.056  1.00  0.00     0.078 C 
HETATM   21  C   UNL     1      37.127 -10.195  -1.790  1.00  0.00     0.014 C 
HETATM   22  C   UNL     1      38.362  -9.551  -2.426  1.00  0.00     0.001 C 
HETATM   23  C   UNL     1      39.149 -10.533  -3.288  1.00  0.00     0.000 C 
HETATM   24  C   UNL     1      39.478 -11.813  -2.530  1.00  0.00     0.001 C 
HETATM   25  C   UNL     1      38.219 -12.468  -1.961  1.00  0.00     0.014 C 
ENDBRANCH  17  20
ENDBRANCH   7  16
BRANCH   3  26
HETATM   26  C   UNL     1      40.981 -11.437   5.520  1.00  0.00     0.114 C 
BRANCH  26  27
HETATM   27  C   UNL     1      39.811 -11.375   6.482  1.00  0.00     0.218 C 
HETATM   28  N   UNL     1      39.966 -10.527   7.544  1.00  0.00    -0.359 N 
HETATM   29  H   UNL     1      40.671  -9.791   7.465  1.00  0.00     0.162 HD
HETATM   30  O   UNL     1      38.825 -12.097   6.343  1.00  0.00    -0.274 OA
BRANCH  28  31
HETATM   31  C   UNL     1      38.965 -10.422   8.583  1.00  0.00     0.148 C 
BRANCH  31  32
HETATM   32  C   UNL     1      39.267  -9.292   9.571  1.00  0.00     0.186 C 
BRANCH  32  33
HETATM   33  O   UNL     1      38.301  -8.230   9.542  1.00  0.00    -0.394 OA
HETATM   34  C   UNL     1      38.754  -7.102   8.796  1.00  0.00     0.201 C 
ENDBRANCH  32  33
ENDBRANCH  31  32
ENDBRANCH  28  31
ENDBRANCH  26  27
ENDBRANCH   3  26
BRANCH  11  35
HETATM   35  C   UNL     1      41.077 -16.265   3.779  1.00  0.00     0.176 C 
BRANCH  35  36
HETATM   36  O   UNL     1      41.308 -16.929   2.544  1.00  0.00    -0.400 OA
HETATM   37  H   UNL     1      41.488 -16.238   1.882  1.00  0.00     0.209 HD
ENDBRANCH  35  36
ENDBRANCH  11  35
BRANCH  13  38
HETATM   38  O   UNL     1      40.770 -15.771   6.400  1.00  0.00    -0.395 OA
HETATM   39  H   UNL     1      40.198 -16.531   6.187  1.00  0.00     0.210 HD
ENDBRANCH  13  38
TORSDOF 10
ENDMDL
MODEL 8
REMARK VINA RESULT:      -7.0      2.011      2.674
REMARK  10 active torsions:
REMARK  status: ('A' for Active; 'I' for Inactive)
REMARK    1  A    between atoms: C_3  and  C_4 
REMARK    2  A    between atoms: C_4  and  C_5 
REMARK       I    between atoms: C_5  and  N_6 
REMARK    3  A    between atoms: N_6  and  C_7 
REMARK    4  A    between atoms: C_7  and  C_8 
REMARK    5  A    between atoms: C_8  and  O_9 
REMARK    6  A    between atoms: C_15  and  N_16 
REMARK       I    between atoms: N_16  and  C_17 
REMARK    7  A    between atoms: C_17  and  C_18 
REMARK    8  A    between atoms: C_28  and  C_29 
REMARK    9  A    between atoms: C_29  and  O_30 
REMARK   10  A    between atoms: C_32  and  O_33 
ROOT
HETATM    1  C   UNL     1      43.845 -13.616   2.304  1.00  0.00     0.016 C 
HETATM    2  C   UNL     1      42.303 -13.808   2.481  1.00  0.00    -0.030 C 
HETATM    3  C   UNL     1      41.935 -13.810   4.035  1.00  0.00     0.056 C 
HETATM    4  C   UNL     1      41.845 -12.392   4.561  1.00  0.00     0.056 C 
HETATM    5  C   UNL     1      41.900 -11.268   3.763  1.00  0.00     0.012 C 
HETATM    6  S   UNL     1      41.788  -9.862   4.710  1.00  0.00    -0.055 SA
HETATM    7  C   UNL     1      41.445 -10.837   6.073  1.00  0.00     0.173 C 
HETATM    8  N   UNL     1      41.529 -12.136   5.887  1.00  0.00    -0.227 NA
HETATM    9  C   UNL     1      41.991 -11.246   2.281  1.00  0.00     0.055 C 
HETATM   10  C   UNL     1      41.576 -12.628   1.704  1.00  0.00     0.012 C 
HETATM   11  C   UNL     1      40.012 -12.820   1.450  1.00  0.00     0.008 C 
HETATM   12  C   UNL     1      39.693 -12.111   0.101  1.00  0.00     0.020 C 
HETATM   13  C   UNL     1      39.658 -14.330   1.270  1.00  0.00     0.128 C 
HETATM   14  C   UNL     1      40.849 -15.149   0.792  1.00  0.00     0.033 C 
HETATM   15  C   UNL     1      41.954 -15.190   1.846  1.00  0.00     0.013 C 
ENDROOT
BRANCH   7  16
HETATM   16  N   UNL     1      40.916 -10.289   7.213  1.00  0.00    -0.305 N 
HETATM   17  C   UNL     1      41.625  -9.504   8.095  1.00  0.00     0.227 C 
HETATM   18  O   UNL     1      42.827  -9.619   8.322  1.00  0.00    -0.273 OA
HETATM   19  H   UNL     1      39.931 -10.478   7.354  1.00  0.00     0.171 HD
BRANCH  17  20
HETATM   20  C   UNL     1      40.764  -8.431   8.771  1.00  0.00     0.078 C 
HETATM   21  C   UNL     1      39.327  -8.908   9.033  1.00  0.00     0.014 C 
HETATM   22  C   UNL     1      39.209  -9.917  10.180  1.00  0.00     0.001 C 
HETATM   23  C   UNL     1      39.902  -9.435  11.450  1.00  0.00     0.000 C 
HETATM   24  C   UNL     1      41.342  -9.014  11.184  1.00  0.00     0.001 C 
HETATM   25  C   UNL     1      41.423  -7.960  10.080  1.00  0.00     0.014 C 
ENDBRANCH  17  20
ENDBRANCH   7  16
BRANCH   3  26
HETATM   26  C   UNL     1      42.910 -14.665   4.871  1.00  0.00     0.114 C 
BRANCH  26  27
HETATM   27  C   UNL     1      42.696 -16.163   4.762  1.00  0.00     0.218 C 
HETATM   28  N   UNL     1      43.793 -16.888   4.385  1.00  0.00    -0.359 N 
HETATM   29  H   UNL     1      44.712 -16.457   4.506  1.00  0.00     0.162 HD
HETATM   30  O   UNL     1      41.588 -16.669   4.934  1.00  0.00    -0.274 OA
BRANCH  28  31
HETATM   31  C   UNL     1      43.719 -18.317   4.166  1.00  0.00     0.148 C 
BRANCH  31  32
HETATM   32  C   UNL     1      43.550 -18.672   2.687  1.00  0.00     0.186 C 
BRANCH  32  33
HETATM   33  O   UNL     1      43.362 -20.076   2.451  1.00  0.00    -0.394 OA
HETATM   34  C   UNL     1      43.820 -20.878   3.537  1.00  0.00     0.201 C 
ENDBRANCH  32  33
ENDBRANCH  31  32
ENDBRANCH  28  31
ENDBRANCH  26  27
ENDBRANCH   3  26
BRANCH  11  35
HETATM   35  C   UNL     1      39.060 -12.216   2.520  1.00  0.00     0.176 C 
BRANCH  35  36
HETATM   36  O   UNL     1      37.706 -12.187   2.087  1.00  0.00    -0.400 OA
HETATM   37  H   UNL     1      37.706 -11.817   1.187  1.00  0.00     0.209 HD
ENDBRANCH  35  36
ENDBRANCH  11  35
BRANCH  13  38
HETATM   38  O   UNL     1      39.183 -14.897   2.492  1.00  0.00    -0.395 OA
HETATM   39  H   UNL     1      39.651 -14.459   3.226  1.00  0.00     0.210 HD
ENDBRANCH  13  38
TORSDOF 10
ENDMDL
MODEL 9
REMARK VINA RESULT:      -6.8      3.978      7.933
REMARK  10 active torsions:
REMARK  status: ('A' for Active; 'I' for Inactive)
REMARK    1  A    between atoms: C_3  and  C_4 
REMARK    2  A    between atoms: C_4  and  C_5 
REMARK       I    between atoms: C_5  and  N_6 
REMARK    3  A    between atoms: N_6  and  C_7 
REMARK    4  A    between atoms: C_7  and  C_8 
REMARK    5  A    between atoms: C_8  and  O_9 
REMARK    6  A    between atoms: C_15  and  N_16 
REMARK       I    between atoms: N_16  and  C_17 
REMARK    7  A    between atoms: C_17  and  C_18 
REMARK    8  A    between atoms: C_28  and  C_29 
REMARK    9  A    between atoms: C_29  and  O_30 
REMARK   10  A    between atoms: C_32  and  O_33 
ROOT
HETATM    1  C   UNL     1      36.918  -9.792   0.474  1.00  0.00     0.016 C 
HETATM    2  C   UNL     1      38.421  -9.398   0.655  1.00  0.00    -0.030 C 
HETATM    3  C   UNL     1      39.161 -10.493   1.551  1.00  0.00     0.056 C 
HETATM    4  C   UNL     1      39.549 -11.692   0.711  1.00  0.00     0.056 C 
HETATM    5  C   UNL     1      39.434 -11.742  -0.663  1.00  0.00     0.012 C 
HETATM    6  S   UNL     1      39.948 -13.251  -1.248  1.00  0.00    -0.055 SA
HETATM    7  C   UNL     1      40.498 -13.645   0.323  1.00  0.00     0.173 C 
HETATM    8  N   UNL     1      40.215 -12.774   1.267  1.00  0.00    -0.227 NA
HETATM    9  C   UNL     1      38.981 -10.638  -1.547  1.00  0.00     0.055 C 
HETATM   10  C   UNL     1      39.068  -9.284  -0.791  1.00  0.00     0.012 C 
HETATM   11  C   UNL     1      40.485  -8.552  -0.864  1.00  0.00     0.008 C 
HETATM   12  C   UNL     1      40.541  -7.835  -2.246  1.00  0.00     0.020 C 
HETATM   13  C   UNL     1      40.598  -7.445   0.231  1.00  0.00     0.128 C 
HETATM   14  C   UNL     1      39.236  -6.928   0.672  1.00  0.00     0.033 C 
HETATM   15  C   UNL     1      38.431  -8.016   1.380  1.00  0.00     0.013 C 
ENDROOT
BRANCH   7  16
HETATM   16  N   UNL     1      41.357 -14.695   0.523  1.00  0.00    -0.305 N 
HETATM   17  C   UNL     1      42.306 -14.738   1.521  1.00  0.00     0.227 C 
HETATM   18  O   UNL     1      42.887 -13.756   1.976  1.00  0.00    -0.273 OA
HETATM   19  H   UNL     1      41.226 -15.475  -0.110  1.00  0.00     0.171 HD
BRANCH  17  20
HETATM   20  C   UNL     1      42.564 -16.156   2.044  1.00  0.00     0.078 C 
HETATM   21  C   UNL     1      43.555 -16.178   3.219  1.00  0.00     0.014 C 
HETATM   22  C   UNL     1      42.969 -15.654   4.534  1.00  0.00     0.001 C 
HETATM   23  C   UNL     1      41.641 -16.317   4.882  1.00  0.00     0.000 C 
HETATM   24  C   UNL     1      40.650 -16.241   3.726  1.00  0.00     0.001 C 
HETATM   25  C   UNL     1      41.239 -16.830   2.444  1.00  0.00     0.014 C 
ENDBRANCH  17  20
ENDBRANCH   7  16
BRANCH   3  26
HETATM   26  C   UNL     1      38.329 -10.908   2.783  1.00  0.00     0.114 C 
BRANCH  26  27
HETATM   27  C   UNL     1      39.119 -11.030   4.072  1.00  0.00     0.218 C 
HETATM   28  N   UNL     1      39.762 -12.223   4.258  1.00  0.00    -0.359 N 
HETATM   29  H   UNL     1      39.935 -12.803   3.434  1.00  0.00     0.162 HD
HETATM   30  O   UNL     1      39.114 -10.135   4.916  1.00  0.00    -0.274 OA
BRANCH  28  31
HETATM   31  C   UNL     1      40.491 -12.510   5.475  1.00  0.00     0.148 C 
BRANCH  31  32
HETATM   32  C   UNL     1      41.997 -12.282   5.320  1.00  0.00     0.186 C 
BRANCH  32  33
HETATM   33  O   UNL     1      42.658 -11.949   6.551  1.00  0.00    -0.394 OA
HETATM   34  C   UNL     1      43.961 -12.519   6.642  1.00  0.00     0.201 C 
ENDBRANCH  32  33
ENDBRANCH  31  32
ENDBRANCH  28  31
ENDBRANCH  26  27
ENDBRANCH   3  26
BRANCH  11  35
HETATM   35  C   UNL     1      41.739  -9.464  -0.772  1.00  0.00     0.176 C 
BRANCH  35  36
HETATM   36  O   UNL     1      42.947  -8.720  -0.676  1.00  0.00    -0.400 OA
HETATM   37  H   UNL     1      43.634  -9.243  -1.125  1.00  0.00     0.209 HD
ENDBRANCH  35  36
ENDBRANCH  11  35
BRANCH  13  38
HETATM   38  O   UNL     1      41.290  -7.929   1.383  1.00  0.00    -0.395 OA
HETATM   39  H   UNL     1      41.588  -8.836   1.192  1.00  0.00     0.210 HD
ENDBRANCH  13  38
TORSDOF 10
ENDMDL
MODEL 10
REMARK VINA RESULT:      -6.7      8.403     12.684
REMARK  10 active torsions:
REMARK  status: ('A' for Active; 'I' for Inactive)
REMARK    1  A    between atoms: C_3  and  C_4 
REMARK    2  A    between atoms: C_4  and  C_5 
REMARK       I    between atoms: C_5  and  N_6 
REMARK    3  A    between atoms: N_6  and  C_7 
REMARK    4  A    between atoms: C_7  and  C_8 
REMARK    5  A    between atoms: C_8  and  O_9 
REMARK    6  A    between atoms: C_15  and  N_16 
REMARK       I    between atoms: N_16  and  C_17 
REMARK    7  A    between atoms: C_17  and  C_18 
REMARK    8  A    between atoms: C_28  and  C_29 
REMARK    9  A    between atoms: C_29  and  O_30 
REMARK   10  A    between atoms: C_32  and  O_33 
ROOT
HETATM    1  C   UNL     1      42.401  -4.949  11.974  1.00  0.00     0.016 C 
HETATM    2  C   UNL     1      41.217  -5.911  12.318  1.00  0.00    -0.030 C 
HETATM    3  C   UNL     1      41.673  -6.947  13.443  1.00  0.00     0.056 C 
HETATM    4  C   UNL     1      41.589  -6.311  14.816  1.00  0.00     0.056 C 
HETATM    5  C   UNL     1      41.028  -5.074  15.061  1.00  0.00     0.012 C 
HETATM    6  S   UNL     1      41.135  -4.689  16.711  1.00  0.00    -0.055 SA
HETATM    7  C   UNL     1      41.703  -6.273  17.018  1.00  0.00     0.173 C 
HETATM    8  N   UNL     1      41.927  -7.019  15.959  1.00  0.00    -0.227 NA
HETATM    9  C   UNL     1      40.368  -4.195  14.061  1.00  0.00     0.055 C 
HETATM   10  C   UNL     1      39.993  -5.018  12.798  1.00  0.00     0.012 C 
HETATM   11  C   UNL     1      38.577  -5.752  12.858  1.00  0.00     0.008 C 
HETATM   12  C   UNL     1      37.505  -4.671  12.527  1.00  0.00     0.020 C 
HETATM   13  C   UNL     1      38.472  -6.853  11.756  1.00  0.00     0.128 C 
HETATM   14  C   UNL     1      39.402  -6.584  10.580  1.00  0.00     0.033 C 
HETATM   15  C   UNL     1      40.868  -6.670  11.000  1.00  0.00     0.013 C 
ENDROOT
BRANCH   7  16
HETATM   16  N   UNL     1      41.713  -6.781  18.292  1.00  0.00    -0.305 N 
HETATM   17  C   UNL     1      40.779  -7.669  18.778  1.00  0.00     0.227 C 
HETATM   18  O   UNL     1      39.603  -7.709  18.426  1.00  0.00    -0.273 OA
HETATM   19  H   UNL     1      42.493  -6.475  18.862  1.00  0.00     0.171 HD
BRANCH  17  20
HETATM   20  C   UNL     1      41.357  -8.645  19.809  1.00  0.00     0.078 C 
HETATM   21  C   UNL     1      42.399  -7.983  20.725  1.00  0.00     0.014 C 
HETATM   22  C   UNL     1      41.796  -7.033  21.764  1.00  0.00     0.001 C 
HETATM   23  C   UNL     1      40.658  -7.677  22.548  1.00  0.00     0.000 C 
HETATM   24  C   UNL     1      39.607  -8.282  21.626  1.00  0.00     0.001 C 
HETATM   25  C   UNL     1      40.228  -9.275  20.643  1.00  0.00     0.014 C 
ENDBRANCH  17  20
ENDBRANCH   7  16
BRANCH   3  26
HETATM   26  C   UNL     1      43.075  -7.532  13.174  1.00  0.00     0.114 C 
BRANCH  26  27
HETATM   27  C   UNL     1      43.078  -8.918  12.556  1.00  0.00     0.218 C 
HETATM   28  N   UNL     1      43.835  -9.056  11.425  1.00  0.00    -0.359 N 
HETATM   29  H   UNL     1      44.565  -8.360  11.254  1.00  0.00     0.162 HD
HETATM   30  O   UNL     1      42.384  -9.826  13.010  1.00  0.00    -0.274 OA
BRANCH  28  31
HETATM   31  C   UNL     1      43.872 -10.299  10.685  1.00  0.00     0.148 C 
BRANCH  31  32
HETATM   32  C   UNL     1      44.131 -10.080   9.192  1.00  0.00     0.186 C 
BRANCH  32  33
HETATM   33  O   UNL     1      44.913  -8.910   8.909  1.00  0.00    -0.394 OA
HETATM   34  C   UNL     1      46.103  -9.211   8.183  1.00  0.00     0.201 C 
ENDBRANCH  32  33
ENDBRANCH  31  32
ENDBRANCH  28  31
ENDBRANCH  26  27
ENDBRANCH   3  26
BRANCH  11  35
HETATM   35  C   UNL     1      38.184  -6.383  14.222  1.00  0.00     0.176 C 
BRANCH  35  36
HETATM   36  O   UNL     1      37.413  -5.499  15.027  1.00  0.00    -0.400 OA
HETATM   37  H   UNL     1      37.590  -5.737  15.954  1.00  0.00     0.209 HD
ENDBRANCH  35  36
ENDBRANCH  11  35
BRANCH  13  38
HETATM   38  O   UNL     1      38.781  -8.144  12.286  1.00  0.00    -0.395 OA
HETATM   39  H   UNL     1      38.681  -8.793  11.566  1.00  0.00     0.210 HD
ENDBRANCH  13  38
TORSDOF 10
ENDMDL
