MODEL 1
REMARK VINA RESULT:      -8.3      0.000      0.000
REMARK  6 active torsions:
REMARK  status: ('A' for Active; 'I' for Inactive)
REMARK    1  A    between atoms: C_3  and  C_4 
REMARK    2  A    between atoms: C_4  and  N_5 
REMARK       I    between atoms: N_5  and  C_6 
REMARK    3  A    between atoms: C_6  and  C_7 
REMARK    4  A    between atoms: C_7  and  N_8 
REMARK    5  A    between atoms: C_12  and  N_13 
REMARK       I    between atoms: N_13  and  C_14 
REMARK       I    between atoms: C_14  and  N_15 
REMARK    6  A    between atoms: N_15  and  C_16 
ROOT
HETATM    1  N   UNL     1      42.669 -13.059   6.054  1.00  0.00    -0.063 N 
HETATM    2  H   UNL     1      41.974 -12.306   6.126  1.00  0.00     0.280 HD
HETATM    3  C   UNL     1      43.253 -12.950   4.663  1.00  0.00     0.237 C 
HETATM    4  C   UNL     1      42.238 -13.328   3.601  1.00  0.00     0.053 C 
HETATM    5  C   UNL     1      41.517 -14.652   3.853  1.00  0.00     0.089 C 
HETATM    6  C   UNL     1      40.955 -14.716   5.272  1.00  0.00     0.053 C 
HETATM    7  C   UNL     1      41.933 -14.334   6.369  1.00  0.00     0.237 C 
ENDROOT
BRANCH   1   8
HETATM    8  C   UNL     1      43.715 -12.737   7.146  1.00  0.00     0.337 C 
BRANCH   8   9
HETATM    9  C   UNL     1      44.016 -11.253   7.391  1.00  0.00     0.243 C 
HETATM   10  N   UNL     1      42.992 -10.502   7.919  1.00  0.00    -0.355 N 
HETATM   11  H   UNL     1      42.347 -10.961   8.556  1.00  0.00     0.162 HD
HETATM   12  O   UNL     1      45.132 -10.795   7.153  1.00  0.00    -0.272 OA
BRANCH  10  13
HETATM   13  C   UNL     1      43.225  -9.112   8.263  1.00  0.00     0.169 C 
BRANCH  13  14
HETATM   14  C   UNL     1      43.103  -8.864   9.745  1.00  0.00     0.006 A 
HETATM   15  C   UNL     1      44.060  -9.134  10.719  1.00  0.00    -0.047 A 
HETATM   16  C   UNL     1      45.418  -9.707  10.459  1.00  0.00     0.049 C 
HETATM   17  C   UNL     1      43.581  -8.810  12.031  1.00  0.00     0.015 A 
HETATM   18  C   UNL     1      42.301  -8.314  12.022  1.00  0.00     0.051 A 
HETATM   19  S   UNL     1      41.664  -8.236  10.447  1.00  0.00    -0.104 SA
ENDBRANCH  13  14
ENDBRANCH  10  13
ENDBRANCH   8   9
ENDBRANCH   1   8
BRANCH   5  20
HETATM   20  N   UNL     1      42.258 -15.844   3.435  1.00  0.00    -0.338 N 
HETATM   21  C   UNL     1      42.473 -16.266   2.166  1.00  0.00     0.321 C 
HETATM   22  N   UNL     1      43.202 -17.390   1.971  1.00  0.00    -0.309 N 
HETATM   23  O   UNL     1      42.079 -15.632   1.190  1.00  0.00    -0.247 OA
HETATM   24  H   UNL     1      43.487 -17.489   1.001  1.00  0.00     0.170 HD
HETATM   25  H   UNL     1      42.957 -16.182   4.088  1.00  0.00     0.164 HD
BRANCH  22  26
HETATM   26  C   UNL     1      43.563 -18.458   2.812  1.00  0.00     0.036 A 
HETATM   27  C   UNL     1      44.001 -18.316   4.130  1.00  0.00     0.029 A 
HETATM   28  C   UNL     1      44.319 -19.444   4.894  1.00  0.00     0.002 A 
HETATM   29  C   UNL     1      44.184 -20.721   4.353  1.00  0.00     0.000 A 
HETATM   30  C   UNL     1      43.719 -20.874   3.052  1.00  0.00     0.002 A 
HETATM   31  C   UNL     1      43.403 -19.749   2.288  1.00  0.00     0.029 A 
ENDBRANCH  22  26
ENDBRANCH   5  20
TORSDOF 6
ENDMDL
MODEL 2
REMARK VINA RESULT:      -8.2      4.447      7.858
REMARK  6 active torsions:
REMARK  status: ('A' for Active; 'I' for Inactive)
REMARK    1  A    between atoms: C_3  and  C_4 
REMARK    2  A    between atoms: C_4  and  N_5 
REMARK       I    between atoms: N_5  and  C_6 
REMARK    3  A    between atoms: C_6  and  C_7 
REMARK    4  A    between atoms: C_7  and  N_8 
REMARK    5  A    between atoms: C_12  and  N_13 
REMARK       I    between atoms: N_13  and  C_14 
REMARK       I    between atoms: C_14  and  N_15 
REMARK    6  A    between atoms: N_15  and  C_16 
ROOT
HETATM    1  N   UNL     1      41.489 -13.127   4.797  1.00  0.00    -0.063 N 
HETATM    2  H   UNL     1      41.087 -12.409   5.413  1.00  0.00     0.280 HD
HETATM    3  C   UNL     1      40.546 -14.307   4.869  1.00  0.00     0.237 C 
HETATM    4  C   UNL     1      40.589 -14.972   6.232  1.00  0.00     0.053 C 
HETATM    5  C   UNL     1      41.996 -15.289   6.740  1.00  0.00     0.089 C 
HETATM    6  C   UNL     1      42.910 -14.069   6.637  1.00  0.00     0.053 C 
HETATM    7  C   UNL     1      42.890 -13.362   5.293  1.00  0.00     0.237 C 
ENDROOT
BRANCH   1   8
HETATM    8  C   UNL     1      41.498 -12.482   3.393  1.00  0.00     0.337 C 
BRANCH   8   9
HETATM    9  C   UNL     1      41.535 -13.441   2.196  1.00  0.00     0.243 C 
HETATM   10  N   UNL     1      40.391 -13.514   1.437  1.00  0.00    -0.355 N 
HETATM   11  H   UNL     1      39.827 -12.674   1.347  1.00  0.00     0.162 HD
HETATM   12  O   UNL     1      42.558 -14.070   1.933  1.00  0.00    -0.272 OA
BRANCH  10  13
HETATM   13  C   UNL     1      40.376 -14.330   0.238  1.00  0.00     0.169 C 
BRANCH  13  14
HETATM   14  C   UNL     1      40.186 -13.506  -1.009  1.00  0.00     0.006 A 
HETATM   15  C   UNL     1      39.523 -13.890  -2.171  1.00  0.00    -0.047 A 
HETATM   16  C   UNL     1      38.844 -15.207  -2.381  1.00  0.00     0.049 C 
HETATM   17  C   UNL     1      39.578 -12.865  -3.172  1.00  0.00     0.015 A 
HETATM   18  C   UNL     1      40.267 -11.753  -2.756  1.00  0.00     0.051 A 
HETATM   19  S   UNL     1      40.854 -11.929  -1.170  1.00  0.00    -0.104 SA
ENDBRANCH  13  14
ENDBRANCH  10  13
ENDBRANCH   8   9
ENDBRANCH   1   8
BRANCH   5  20
HETATM   20  N   UNL     1      42.573 -16.530   6.221  1.00  0.00    -0.338 N 
HETATM   21  C   UNL     1      43.558 -17.270   6.785  1.00  0.00     0.321 C 
HETATM   22  N   UNL     1      43.953 -18.406   6.165  1.00  0.00    -0.309 N 
HETATM   23  O   UNL     1      44.061 -16.973   7.866  1.00  0.00    -0.247 OA
HETATM   24  H   UNL     1      44.523 -18.986   6.772  1.00  0.00     0.170 HD
HETATM   25  H   UNL     1      41.976 -17.072   5.605  1.00  0.00     0.164 HD
BRANCH  22  26
HETATM   26  C   UNL     1      43.796 -18.887   4.851  1.00  0.00     0.036 A 
HETATM   27  C   UNL     1      43.578 -18.080   3.733  1.00  0.00     0.029 A 
HETATM   28  C   UNL     1      43.454 -18.653   2.462  1.00  0.00     0.002 A 
HETATM   29  C   UNL     1      43.565 -20.032   2.299  1.00  0.00     0.000 A 
HETATM   30  C   UNL     1      43.813 -20.842   3.403  1.00  0.00     0.002 A 
HETATM   31  C   UNL     1      43.935 -20.271   4.671  1.00  0.00     0.029 A 
ENDBRANCH  22  26
ENDBRANCH   5  20
TORSDOF 6
ENDMDL
MODEL 3
REMARK VINA RESULT:      -8.1      5.060      8.940
REMARK  6 active torsions:
REMARK  status: ('A' for Active; 'I' for Inactive)
REMARK    1  A    between atoms: C_3  and  C_4 
REMARK    2  A    between atoms: C_4  and  N_5 
REMARK       I    between atoms: N_5  and  C_6 
REMARK    3  A    between atoms: C_6  and  C_7 
REMARK    4  A    between atoms: C_7  and  N_8 
REMARK    5  A    between atoms: C_12  and  N_13 
REMARK       I    between atoms: N_13  and  C_14 
REMARK       I    between atoms: C_14  and  N_15 
REMARK    6  A    between atoms: N_15  and  C_16 
ROOT
HETATM    1  N   UNL     1      41.758 -13.147   4.291  1.00  0.00    -0.063 N 
HETATM    2  H   UNL     1      42.037 -12.633   5.135  1.00  0.00     0.280 HD
HETATM    3  C   UNL     1      42.859 -12.910   3.281  1.00  0.00     0.237 C 
HETATM    4  C   UNL     1      42.878 -11.469   2.806  1.00  0.00     0.053 C 
HETATM    5  C   UNL     1      41.519 -10.930   2.358  1.00  0.00     0.089 C 
HETATM    6  C   UNL     1      40.442 -11.203   3.407  1.00  0.00     0.053 C 
HETATM    7  C   UNL     1      40.393 -12.631   3.922  1.00  0.00     0.237 C 
ENDROOT
BRANCH   1   8
HETATM    8  C   UNL     1      41.692 -14.626   4.733  1.00  0.00     0.337 C 
BRANCH   8   9
HETATM    9  C   UNL     1      41.955 -15.680   3.650  1.00  0.00     0.243 C 
HETATM   10  N   UNL     1      43.147 -16.359   3.737  1.00  0.00    -0.355 N 
HETATM   11  H   UNL     1      43.527 -16.534   4.662  1.00  0.00     0.162 HD
HETATM   12  O   UNL     1      41.112 -15.908   2.785  1.00  0.00    -0.272 OA
BRANCH  10  13
HETATM   13  C   UNL     1      43.431 -17.433   2.803  1.00  0.00     0.169 C 
BRANCH  13  14
HETATM   14  C   UNL     1      43.710 -18.738   3.503  1.00  0.00     0.006 A 
HETATM   15  C   UNL     1      43.681 -20.010   2.941  1.00  0.00    -0.047 A 
HETATM   16  C   UNL     1      43.386 -20.312   1.505  1.00  0.00     0.049 C 
HETATM   17  C   UNL     1      43.954 -21.024   3.917  1.00  0.00     0.015 A 
HETATM   18  C   UNL     1      44.180 -20.508   5.170  1.00  0.00     0.051 A 
HETATM   19  S   UNL     1      44.061 -18.812   5.186  1.00  0.00    -0.104 SA
ENDBRANCH  13  14
ENDBRANCH  10  13
ENDBRANCH   8   9
ENDBRANCH   1   8
BRANCH   5  20
HETATM   20  N   UNL     1      41.140 -11.278   0.988  1.00  0.00    -0.338 N 
HETATM   21  C   UNL     1      41.459 -10.602  -0.143  1.00  0.00     0.321 C 
HETATM   22  N   UNL     1      41.032 -11.089  -1.332  1.00  0.00    -0.309 N 
HETATM   23  O   UNL     1      42.168  -9.599  -0.127  1.00  0.00    -0.247 OA
HETATM   24  H   UNL     1      41.505 -10.642  -2.111  1.00  0.00     0.170 HD
HETATM   25  H   UNL     1      40.942 -12.259   0.819  1.00  0.00     0.164 HD
BRANCH  22  26
HETATM   26  C   UNL     1      40.031 -12.012  -1.688  1.00  0.00     0.036 A 
HETATM   27  C   UNL     1      38.659 -11.766  -1.599  1.00  0.00     0.029 A 
HETATM   28  C   UNL     1      37.740 -12.743  -1.997  1.00  0.00     0.002 A 
HETATM   29  C   UNL     1      38.184 -13.963  -2.502  1.00  0.00     0.000 A 
HETATM   30  C   UNL     1      39.548 -14.205  -2.623  1.00  0.00     0.002 A 
HETATM   31  C   UNL     1      40.466 -13.232  -2.225  1.00  0.00     0.029 A 
ENDBRANCH  22  26
ENDBRANCH   5  20
TORSDOF 6
ENDMDL
MODEL 4
REMARK VINA RESULT:      -8.1      1.754      2.317
REMARK  6 active torsions:
REMARK  status: ('A' for Active; 'I' for Inactive)
REMARK    1  A    between atoms: C_3  and  C_4 
REMARK    2  A    between atoms: C_4  and  N_5 
REMARK       I    between atoms: N_5  and  C_6 
REMARK    3  A    between atoms: C_6  and  C_7 
REMARK    4  A    between atoms: C_7  and  N_8 
REMARK    5  A    between atoms: C_12  and  N_13 
REMARK       I    between atoms: N_13  and  C_14 
REMARK       I    between atoms: C_14  and  N_15 
REMARK    6  A    between atoms: N_15  and  C_16 
ROOT
HETATM    1  N   UNL     1      44.185 -11.275   5.887  1.00  0.00    -0.063 N 
HETATM    2  H   UNL     1      43.926 -10.282   5.936  1.00  0.00     0.280 HD
HETATM    3  C   UNL     1      44.457 -11.559   4.426  1.00  0.00     0.237 C 
HETATM    4  C   UNL     1      43.185 -11.503   3.601  1.00  0.00     0.053 C 
HETATM    5  C   UNL     1      42.022 -12.316   4.170  1.00  0.00     0.089 C 
HETATM    6  C   UNL     1      41.795 -12.000   5.648  1.00  0.00     0.053 C 
HETATM    7  C   UNL     1      43.044 -12.033   6.511  1.00  0.00     0.237 C 
ENDROOT
BRANCH   1   8
HETATM    8  C   UNL     1      45.465 -11.392   6.745  1.00  0.00     0.337 C 
BRANCH   8   9
HETATM    9  C   UNL     1      45.636 -10.360   7.867  1.00  0.00     0.243 C 
HETATM   10  N   UNL     1      44.996 -10.635   9.052  1.00  0.00    -0.355 N 
HETATM   11  H   UNL     1      44.897 -11.609   9.323  1.00  0.00     0.162 HD
HETATM   12  O   UNL     1      46.343  -9.368   7.698  1.00  0.00    -0.272 OA
BRANCH  10  13
HETATM   13  C   UNL     1      45.182  -9.754  10.189  1.00  0.00     0.169 C 
BRANCH  13  14
HETATM   14  C   UNL     1      43.879  -9.175  10.679  1.00  0.00     0.006 A 
HETATM   15  C   UNL     1      43.247  -8.027  10.211  1.00  0.00    -0.047 A 
HETATM   16  C   UNL     1      43.745  -7.161   9.096  1.00  0.00     0.049 C 
HETATM   17  C   UNL     1      42.045  -7.751  10.944  1.00  0.00     0.015 A 
HETATM   18  C   UNL     1      41.801  -8.676  11.929  1.00  0.00     0.051 A 
HETATM   19  S   UNL     1      43.006  -9.874  11.986  1.00  0.00    -0.104 SA
ENDBRANCH  13  14
ENDBRANCH  10  13
ENDBRANCH   8   9
ENDBRANCH   1   8
BRANCH   5  20
HETATM   20  N   UNL     1      42.056 -13.744   3.849  1.00  0.00    -0.338 N 
HETATM   21  C   UNL     1      41.026 -14.503   3.402  1.00  0.00     0.321 C 
HETATM   22  N   UNL     1      41.251 -15.812   3.139  1.00  0.00    -0.309 N 
HETATM   23  O   UNL     1      39.915 -14.030   3.176  1.00  0.00    -0.247 OA
HETATM   24  H   UNL     1      40.489 -16.224   2.609  1.00  0.00     0.170 HD
HETATM   25  H   UNL     1      42.963 -14.119   3.592  1.00  0.00     0.164 HD
BRANCH  22  26
HETATM   26  C   UNL     1      42.271 -16.705   3.516  1.00  0.00     0.036 A 
HETATM   27  C   UNL     1      42.735 -16.873   4.822  1.00  0.00     0.029 A 
HETATM   28  C   UNL     1      43.743 -17.803   5.100  1.00  0.00     0.002 A 
HETATM   29  C   UNL     1      44.279 -18.585   4.079  1.00  0.00     0.000 A 
HETATM   30  C   UNL     1      43.802 -18.448   2.780  1.00  0.00     0.002 A 
HETATM   31  C   UNL     1      42.797 -17.518   2.502  1.00  0.00     0.029 A 
ENDBRANCH  22  26
ENDBRANCH   5  20
TORSDOF 6
ENDMDL
MODEL 5
REMARK VINA RESULT:      -8.1      3.097      9.833
REMARK  6 active torsions:
REMARK  status: ('A' for Active; 'I' for Inactive)
REMARK    1  A    between atoms: C_3  and  C_4 
REMARK    2  A    between atoms: C_4  and  N_5 
REMARK       I    between atoms: N_5  and  C_6 
REMARK    3  A    between atoms: C_6  and  C_7 
REMARK    4  A    between atoms: C_7  and  N_8 
REMARK    5  A    between atoms: C_12  and  N_13 
REMARK       I    between atoms: N_13  and  C_14 
REMARK       I    between atoms: C_14  and  N_15 
REMARK    6  A    between atoms: N_15  and  C_16 
ROOT
HETATM    1  N   UNL     1      41.627 -13.220   4.615  1.00  0.00    -0.063 N 
HETATM    2  H   UNL     1      40.945 -13.421   3.873  1.00  0.00     0.280 HD
HETATM    3  C   UNL     1      40.924 -13.540   5.916  1.00  0.00     0.237 C 
HETATM    4  C   UNL     1      39.811 -12.550   6.206  1.00  0.00     0.053 C 
HETATM    5  C   UNL     1      40.218 -11.081   6.081  1.00  0.00     0.089 C 
HETATM    6  C   UNL     1      40.931 -10.814   4.756  1.00  0.00     0.053 C 
HETATM    7  C   UNL     1      42.046 -11.788   4.418  1.00  0.00     0.237 C 
ENDROOT
BRANCH   1   8
HETATM    8  C   UNL     1      42.802 -14.186   4.343  1.00  0.00     0.337 C 
BRANCH   8   9
HETATM    9  C   UNL     1      42.487 -15.434   3.509  1.00  0.00     0.243 C 
HETATM   10  N   UNL     1      43.553 -16.243   3.195  1.00  0.00    -0.355 N 
HETATM   11  H   UNL     1      44.314 -16.307   3.865  1.00  0.00     0.162 HD
HETATM   12  O   UNL     1      41.329 -15.691   3.185  1.00  0.00    -0.272 OA
BRANCH  10  13
HETATM   13  C   UNL     1      43.326 -17.488   2.486  1.00  0.00     0.169 C 
BRANCH  13  14
HETATM   14  C   UNL     1      43.651 -18.692   3.331  1.00  0.00     0.006 A 
HETATM   15  C   UNL     1      43.679 -20.021   2.916  1.00  0.00    -0.047 A 
HETATM   16  C   UNL     1      43.412 -20.495   1.522  1.00  0.00     0.049 C 
HETATM   17  C   UNL     1      43.984 -20.905   4.003  1.00  0.00     0.015 A 
HETATM   18  C   UNL     1      44.176 -20.242   5.190  1.00  0.00     0.051 A 
HETATM   19  S   UNL     1      43.987 -18.561   5.013  1.00  0.00    -0.104 SA
ENDBRANCH  13  14
ENDBRANCH  10  13
ENDBRANCH   8   9
ENDBRANCH   1   8
BRANCH   5  20
HETATM   20  N   UNL     1      40.889 -10.527   7.259  1.00  0.00    -0.338 N 
HETATM   21  C   UNL     1      40.361  -9.679   8.174  1.00  0.00     0.321 C 
HETATM   22  N   UNL     1      41.132  -9.285   9.214  1.00  0.00    -0.309 N 
HETATM   23  O   UNL     1      39.192  -9.304   8.120  1.00  0.00    -0.247 OA
HETATM   24  H   UNL     1      40.582  -8.841   9.942  1.00  0.00     0.170 HD
HETATM   25  H   UNL     1      41.661 -11.073   7.626  1.00  0.00     0.164 HD
BRANCH  22  26
HETATM   26  C   UNL     1      42.522  -9.299   9.439  1.00  0.00     0.036 A 
HETATM   27  C   UNL     1      43.163 -10.099  10.385  1.00  0.00     0.029 A 
HETATM   28  C   UNL     1      44.555 -10.055  10.520  1.00  0.00     0.002 A 
HETATM   29  C   UNL     1      45.316  -9.226   9.699  1.00  0.00     0.000 A 
HETATM   30  C   UNL     1      44.689  -8.448   8.731  1.00  0.00     0.002 A 
HETATM   31  C   UNL     1      43.300  -8.490   8.597  1.00  0.00     0.029 A 
ENDBRANCH  22  26
ENDBRANCH   5  20
TORSDOF 6
ENDMDL
MODEL 6
REMARK VINA RESULT:      -7.9      5.167      7.856
REMARK  6 active torsions:
REMARK  status: ('A' for Active; 'I' for Inactive)
REMARK    1  A    between atoms: C_3  and  C_4 
REMARK    2  A    between atoms: C_4  and  N_5 
REMARK       I    between atoms: N_5  and  C_6 
REMARK    3  A    between atoms: C_6  and  C_7 
REMARK    4  A    between atoms: C_7  and  N_8 
REMARK    5  A    between atoms: C_12  and  N_13 
REMARK       I    between atoms: N_13  and  C_14 
REMARK       I    between atoms: C_14  and  N_15 
REMARK    6  A    between atoms: N_15  and  C_16 
ROOT
HETATM    1  N   UNL     1      40.887 -14.067   1.627  1.00  0.00    -0.063 N 
HETATM    2  H   UNL     1      40.632 -13.074   1.696  1.00  0.00     0.280 HD
HETATM    3  C   UNL     1      40.179 -14.756   2.773  1.00  0.00     0.237 C 
HETATM    4  C   UNL     1      40.764 -14.351   4.113  1.00  0.00     0.053 C 
HETATM    5  C   UNL     1      42.288 -14.448   4.196  1.00  0.00     0.089 C 
HETATM    6  C   UNL     1      42.953 -13.746   3.014  1.00  0.00     0.053 C 
HETATM    7  C   UNL     1      42.392 -14.111   1.651  1.00  0.00     0.237 C 
ENDROOT
BRANCH   1   8
HETATM    8  C   UNL     1      40.339 -14.521   0.255  1.00  0.00     0.337 C 
BRANCH   8   9
HETATM    9  C   UNL     1      40.093 -13.420  -0.784  1.00  0.00     0.243 C 
HETATM   10  N   UNL     1      41.212 -12.824  -1.317  1.00  0.00    -0.355 N 
HETATM   11  H   UNL     1      42.047 -13.392  -1.425  1.00  0.00     0.162 HD
HETATM   12  O   UNL     1      38.949 -13.133  -1.130  1.00  0.00    -0.272 OA
BRANCH  10  13
HETATM   13  C   UNL     1      41.066 -11.837  -2.370  1.00  0.00     0.169 C 
BRANCH  13  14
HETATM   14  C   UNL     1      41.132 -10.427  -1.843  1.00  0.00     0.006 A 
HETATM   15  C   UNL     1      41.012  -9.253  -2.581  1.00  0.00    -0.047 A 
HETATM   16  C   UNL     1      40.765  -9.182  -4.055  1.00  0.00     0.049 C 
HETATM   17  C   UNL     1      41.172  -8.093  -1.753  1.00  0.00     0.015 A 
HETATM   18  C   UNL     1      41.405  -8.407  -0.437  1.00  0.00     0.051 A 
HETATM   19  S   UNL     1      41.438 -10.088  -0.184  1.00  0.00    -0.104 SA
ENDBRANCH  13  14
ENDBRANCH  10  13
ENDBRANCH   8   9
ENDBRANCH   1   8
BRANCH   5  20
HETATM   20  N   UNL     1      42.804 -15.788   4.482  1.00  0.00    -0.338 N 
HETATM   21  C   UNL     1      43.687 -16.131   5.451  1.00  0.00     0.321 C 
HETATM   22  N   UNL     1      44.037 -17.433   5.577  1.00  0.00    -0.309 N 
HETATM   23  O   UNL     1      44.132 -15.312   6.251  1.00  0.00    -0.247 OA
HETATM   24  H   UNL     1      44.517 -17.609   6.454  1.00  0.00     0.170 HD
HETATM   25  H   UNL     1      42.214 -16.560   4.193  1.00  0.00     0.164 HD
BRANCH  22  26
HETATM   26  C   UNL     1      43.939 -18.541   4.715  1.00  0.00     0.036 A 
HETATM   27  C   UNL     1      43.899 -18.461   3.322  1.00  0.00     0.029 A 
HETATM   28  C   UNL     1      43.821 -19.625   2.549  1.00  0.00     0.002 A 
HETATM   29  C   UNL     1      43.801 -20.876   3.162  1.00  0.00     0.000 A 
HETATM   30  C   UNL     1      43.872 -20.968   4.548  1.00  0.00     0.002 A 
HETATM   31  C   UNL     1      43.949 -19.807   5.320  1.00  0.00     0.029 A 
ENDBRANCH  22  26
ENDBRANCH   5  20
TORSDOF 6
ENDMDL
MODEL 7
REMARK VINA RESULT:      -7.7      3.408      9.980
REMARK  6 active torsions:
REMARK  status: ('A' for Active; 'I' for Inactive)
REMARK    1  A    between atoms: C_3  and  C_4 
REMARK    2  A    between atoms: C_4  and  N_5 
REMARK       I    between atoms: N_5  and  C_6 
REMARK    3  A    between atoms: C_6  and  C_7 
REMARK    4  A    between atoms: C_7  and  N_8 
REMARK    5  A    between atoms: C_12  and  N_13 
REMARK       I    between atoms: N_13  and  C_14 
REMARK       I    between atoms: C_14  and  N_15 
REMARK    6  A    between atoms: N_15  and  C_16 
ROOT
HETATM    1  N   UNL     1      42.403 -13.582   6.115  1.00  0.00    -0.063 N 
HETATM    2  H   UNL     1      42.694 -13.796   5.154  1.00  0.00     0.280 HD
HETATM    3  C   UNL     1      41.205 -12.667   5.989  1.00  0.00     0.237 C 
HETATM    4  C   UNL     1      41.598 -11.305   5.446  1.00  0.00     0.053 C 
HETATM    5  C   UNL     1      42.784 -10.656   6.160  1.00  0.00     0.089 C 
HETATM    6  C   UNL     1      43.962 -11.622   6.269  1.00  0.00     0.053 C 
HETATM    7  C   UNL     1      43.614 -13.003   6.797  1.00  0.00     0.237 C 
ENDROOT
BRANCH   1   8
HETATM    8  C   UNL     1      42.022 -14.949   6.726  1.00  0.00     0.337 C 
BRANCH   8   9
HETATM    9  C   UNL     1      43.088 -16.050   6.663  1.00  0.00     0.243 C 
HETATM   10  N   UNL     1      43.398 -16.527   5.411  1.00  0.00    -0.355 N 
HETATM   11  H   UNL     1      43.346 -15.879   4.630  1.00  0.00     0.162 HD
HETATM   12  O   UNL     1      43.644 -16.439   7.688  1.00  0.00    -0.272 OA
BRANCH  10  13
HETATM   13  C   UNL     1      44.459 -17.505   5.258  1.00  0.00     0.169 C 
BRANCH  13  14
HETATM   14  C   UNL     1      44.110 -18.571   4.252  1.00  0.00     0.006 A 
HETATM   15  C   UNL     1      43.642 -18.375   2.956  1.00  0.00    -0.047 A 
HETATM   16  C   UNL     1      43.423 -17.044   2.310  1.00  0.00     0.049 C 
HETATM   17  C   UNL     1      43.372 -19.622   2.300  1.00  0.00     0.015 A 
HETATM   18  C   UNL     1      43.635 -20.709   3.096  1.00  0.00     0.051 A 
HETATM   19  S   UNL     1      44.202 -20.247   4.632  1.00  0.00    -0.104 SA
ENDBRANCH  13  14
ENDBRANCH  10  13
ENDBRANCH   8   9
ENDBRANCH   1   8
BRANCH   5  20
HETATM   20  N   UNL     1      42.448  -9.959   7.403  1.00  0.00    -0.338 N 
HETATM   21  C   UNL     1      41.926  -8.714   7.523  1.00  0.00     0.321 C 
HETATM   22  N   UNL     1      41.661  -8.239   8.763  1.00  0.00    -0.309 N 
HETATM   23  O   UNL     1      41.633  -8.030   6.545  1.00  0.00    -0.247 OA
HETATM   24  H   UNL     1      41.078  -7.408   8.729  1.00  0.00     0.170 HD
HETATM   25  H   UNL     1      42.246 -10.550   8.201  1.00  0.00     0.164 HD
BRANCH  22  26
HETATM   26  C   UNL     1      42.093  -8.616  10.048  1.00  0.00     0.036 A 
HETATM   27  C   UNL     1      43.305  -8.230  10.621  1.00  0.00     0.029 A 
HETATM   28  C   UNL     1      43.637  -8.642  11.917  1.00  0.00     0.002 A 
HETATM   29  C   UNL     1      42.752  -9.427  12.653  1.00  0.00     0.000 A 
HETATM   30  C   UNL     1      41.528  -9.791  12.102  1.00  0.00     0.002 A 
HETATM   31  C   UNL     1      41.197  -9.381  10.809  1.00  0.00     0.029 A 
ENDBRANCH  22  26
ENDBRANCH   5  20
TORSDOF 6
ENDMDL
MODEL 8
REMARK VINA RESULT:      -7.6      4.888      8.414
REMARK  6 active torsions:
REMARK  status: ('A' for Active; 'I' for Inactive)
REMARK    1  A    between atoms: C_3  and  C_4 
REMARK    2  A    between atoms: C_4  and  N_5 
REMARK       I    between atoms: N_5  and  C_6 
REMARK    3  A    between atoms: C_6  and  C_7 
REMARK    4  A    between atoms: C_7  and  N_8 
REMARK    5  A    between atoms: C_12  and  N_13 
REMARK       I    between atoms: N_13  and  C_14 
REMARK       I    between atoms: C_14  and  N_15 
REMARK    6  A    between atoms: N_15  and  C_16 
ROOT
HETATM    1  N   UNL     1      41.634 -13.607   2.956  1.00  0.00    -0.063 N 
HETATM    2  H   UNL     1      41.227 -12.668   3.050  1.00  0.00     0.280 HD
HETATM    3  C   UNL     1      40.606 -14.561   3.522  1.00  0.00     0.237 C 
HETATM    4  C   UNL     1      40.469 -14.404   5.025  1.00  0.00     0.053 C 
HETATM    5  C   UNL     1      41.793 -14.416   5.789  1.00  0.00     0.089 C 
HETATM    6  C   UNL     1      42.798 -13.444   5.173  1.00  0.00     0.053 C 
HETATM    7  C   UNL     1      42.960 -13.557   3.667  1.00  0.00     0.237 C 
ENDROOT
BRANCH   1   8
HETATM    8  C   UNL     1      41.827 -13.803   1.435  1.00  0.00     0.337 C 
BRANCH   8   9
HETATM    9  C   UNL     1      40.658 -13.380   0.535  1.00  0.00     0.243 C 
HETATM   10  N   UNL     1      40.599 -13.972  -0.704  1.00  0.00    -0.355 N 
HETATM   11  H   UNL     1      40.936 -14.927  -0.791  1.00  0.00     0.162 HD
HETATM   12  O   UNL     1      39.816 -12.582   0.941  1.00  0.00    -0.272 OA
BRANCH  10  13
HETATM   13  C   UNL     1      39.476 -13.693  -1.579  1.00  0.00     0.169 C 
BRANCH  13  14
HETATM   14  C   UNL     1      39.629 -12.380  -2.302  1.00  0.00     0.006 A 
HETATM   15  C   UNL     1      38.614 -11.490  -2.643  1.00  0.00    -0.047 A 
HETATM   16  C   UNL     1      37.164 -11.673  -2.323  1.00  0.00     0.049 C 
HETATM   17  C   UNL     1      39.124 -10.362  -3.367  1.00  0.00     0.015 A 
HETATM   18  C   UNL     1      40.483 -10.421  -3.554  1.00  0.00     0.051 A 
HETATM   19  S   UNL     1      41.156 -11.825  -2.870  1.00  0.00    -0.104 SA
ENDBRANCH  13  14
ENDBRANCH  10  13
ENDBRANCH   8   9
ENDBRANCH   1   8
BRANCH   5  20
HETATM   20  N   UNL     1      42.327 -15.750   6.072  1.00  0.00    -0.338 N 
HETATM   21  C   UNL     1      42.881 -16.176   7.233  1.00  0.00     0.321 C 
HETATM   22  N   UNL     1      43.305 -17.459   7.316  1.00  0.00    -0.309 N 
HETATM   23  O   UNL     1      42.956 -15.456   8.225  1.00  0.00    -0.247 OA
HETATM   24  H   UNL     1      43.492 -17.730   8.277  1.00  0.00     0.170 HD
HETATM   25  H   UNL     1      41.945 -16.507   5.516  1.00  0.00     0.164 HD
BRANCH  22  26
HETATM   26  C   UNL     1      43.607 -18.435   6.349  1.00  0.00     0.036 A 
HETATM   27  C   UNL     1      43.392 -19.805   6.512  1.00  0.00     0.029 A 
HETATM   28  C   UNL     1      43.708 -20.696   5.480  1.00  0.00     0.002 A 
HETATM   29  C   UNL     1      44.223 -20.224   4.275  1.00  0.00     0.000 A 
HETATM   30  C   UNL     1      44.411 -18.858   4.092  1.00  0.00     0.002 A 
HETATM   31  C   UNL     1      44.097 -17.968   5.121  1.00  0.00     0.029 A 
ENDBRANCH  22  26
ENDBRANCH   5  20
TORSDOF 6
ENDMDL
MODEL 9
REMARK VINA RESULT:      -7.6      4.940      7.513
REMARK  6 active torsions:
REMARK  status: ('A' for Active; 'I' for Inactive)
REMARK    1  A    between atoms: C_3  and  C_4 
REMARK    2  A    between atoms: C_4  and  N_5 
REMARK       I    between atoms: N_5  and  C_6 
REMARK    3  A    between atoms: C_6  and  C_7 
REMARK    4  A    between atoms: C_7  and  N_8 
REMARK    5  A    between atoms: C_12  and  N_13 
REMARK       I    between atoms: N_13  and  C_14 
REMARK       I    between atoms: C_14  and  N_15 
REMARK    6  A    between atoms: N_15  and  C_16 
ROOT
HETATM    1  N   UNL     1      40.633 -13.355   3.795  1.00  0.00    -0.063 N 
HETATM    2  H   UNL     1      40.712 -12.354   4.014  1.00  0.00     0.280 HD
HETATM    3  C   UNL     1      40.570 -14.066   5.128  1.00  0.00     0.237 C 
HETATM    4  C   UNL     1      41.895 -13.987   5.864  1.00  0.00     0.053 C 
HETATM    5  C   UNL     1      43.112 -14.378   5.025  1.00  0.00     0.089 C 
HETATM    6  C   UNL     1      43.123 -13.641   3.687  1.00  0.00     0.053 C 
HETATM    7  C   UNL     1      41.813 -13.682   2.920  1.00  0.00     0.237 C 
ENDROOT
BRANCH   1   8
HETATM    8  C   UNL     1      39.307 -13.483   3.011  1.00  0.00     0.337 C 
BRANCH   8   9
HETATM    9  C   UNL     1      38.907 -12.286   2.139  1.00  0.00     0.243 C 
HETATM   10  N   UNL     1      38.802 -12.524   0.788  1.00  0.00    -0.355 N 
HETATM   11  H   UNL     1      38.493 -13.445   0.491  1.00  0.00     0.162 HD
HETATM   12  O   UNL     1      38.663 -11.196   2.651  1.00  0.00    -0.272 OA
BRANCH  10  13
HETATM   13  C   UNL     1      38.342 -11.467  -0.092  1.00  0.00     0.169 C 
BRANCH  13  14
HETATM   14  C   UNL     1      39.363 -11.117  -1.144  1.00  0.00     0.006 A 
HETATM   15  C   UNL     1      40.528 -10.376  -0.963  1.00  0.00    -0.047 A 
HETATM   16  C   UNL     1      40.995  -9.808   0.340  1.00  0.00     0.049 C 
HETATM   17  C   UNL     1      41.237 -10.201  -2.197  1.00  0.00     0.015 A 
HETATM   18  C   UNL     1      40.608 -10.799  -3.261  1.00  0.00     0.051 A 
HETATM   19  S   UNL     1      39.165 -11.568  -2.792  1.00  0.00    -0.104 SA
ENDBRANCH  13  14
ENDBRANCH  10  13
ENDBRANCH   8   9
ENDBRANCH   1   8
BRANCH   5  20
HETATM   20  N   UNL     1      43.357 -15.819   4.931  1.00  0.00    -0.338 N 
HETATM   21  C   UNL     1      44.142 -16.567   5.745  1.00  0.00     0.321 C 
HETATM   22  N   UNL     1      44.233 -17.897   5.513  1.00  0.00    -0.309 N 
HETATM   23  O   UNL     1      44.722 -16.087   6.715  1.00  0.00    -0.247 OA
HETATM   24  H   UNL     1      44.656 -18.386   6.296  1.00  0.00     0.170 HD
HETATM   25  H   UNL     1      42.634 -16.362   4.471  1.00  0.00     0.164 HD
BRANCH  22  26
HETATM   26  C   UNL     1      43.939 -18.700   4.395  1.00  0.00     0.036 A 
HETATM   27  C   UNL     1      43.533 -18.210   3.153  1.00  0.00     0.029 A 
HETATM   28  C   UNL     1      43.281 -19.090   2.094  1.00  0.00     0.002 A 
HETATM   29  C   UNL     1      43.451 -20.462   2.265  1.00  0.00     0.000 A 
HETATM   30  C   UNL     1      43.885 -20.958   3.490  1.00  0.00     0.002 A 
HETATM   31  C   UNL     1      44.135 -20.080   4.547  1.00  0.00     0.029 A 
ENDBRANCH  22  26
ENDBRANCH   5  20
TORSDOF 6
ENDMDL
MODEL 10
REMARK VINA RESULT:      -7.5      1.927      2.763
REMARK  6 active torsions:
REMARK  status: ('A' for Active; 'I' for Inactive)
REMARK    1  A    between atoms: C_3  and  C_4 
REMARK    2  A    between atoms: C_4  and  N_5 
REMARK       I    between atoms: N_5  and  C_6 
REMARK    3  A    between atoms: C_6  and  C_7 
REMARK    4  A    between atoms: C_7  and  N_8 
REMARK    5  A    between atoms: C_12  and  N_13 
REMARK       I    between atoms: N_13  and  C_14 
REMARK       I    between atoms: C_14  and  N_15 
REMARK    6  A    between atoms: N_15  and  C_16 
ROOT
HETATM    1  N   UNL     1      42.911 -11.236   5.621  1.00  0.00    -0.063 N 
HETATM    2  H   UNL     1      42.702 -10.243   5.461  1.00  0.00     0.280 HD
HETATM    3  C   UNL     1      43.781 -11.666   4.461  1.00  0.00     0.237 C 
HETATM    4  C   UNL     1      43.001 -11.693   3.159  1.00  0.00     0.053 C 
HETATM    5  C   UNL     1      41.671 -12.444   3.231  1.00  0.00     0.089 C 
HETATM    6  C   UNL     1      40.836 -11.980   4.423  1.00  0.00     0.053 C 
HETATM    7  C   UNL     1      41.579 -11.926   5.746  1.00  0.00     0.237 C 
ENDROOT
BRANCH   1   8
HETATM    8  C   UNL     1      43.681 -11.266   6.960  1.00  0.00     0.337 C 
BRANCH   8   9
HETATM    9  C   UNL     1      43.523 -10.041   7.871  1.00  0.00     0.243 C 
HETATM   10  N   UNL     1      42.305  -9.895   8.490  1.00  0.00    -0.355 N 
HETATM   11  H   UNL     1      41.799 -10.738   8.747  1.00  0.00     0.162 HD
HETATM   12  O   UNL     1      44.464  -9.270   8.046  1.00  0.00    -0.272 OA
BRANCH  10  13
HETATM   13  C   UNL     1      42.106  -8.813   9.436  1.00  0.00     0.169 C 
BRANCH  13  14
HETATM   14  C   UNL     1      41.397  -9.271  10.684  1.00  0.00     0.006 A 
HETATM   15  C   UNL     1      40.030  -9.202  10.942  1.00  0.00    -0.047 A 
HETATM   16  C   UNL     1      38.999  -8.676   9.994  1.00  0.00     0.049 C 
HETATM   17  C   UNL     1      39.717  -9.689  12.254  1.00  0.00     0.015 A 
HETATM   18  C   UNL     1      40.828 -10.106  12.945  1.00  0.00     0.051 A 
HETATM   19  S   UNL     1      42.250  -9.914  12.033  1.00  0.00    -0.104 SA
ENDBRANCH  13  14
ENDBRANCH  10  13
ENDBRANCH   8   9
ENDBRANCH   1   8
BRANCH   5  20
HETATM   20  N   UNL     1      41.778 -13.898   3.088  1.00  0.00    -0.338 N 
HETATM   21  C   UNL     1      40.800 -14.752   2.701  1.00  0.00     0.321 C 
HETATM   22  N   UNL     1      41.091 -16.071   2.608  1.00  0.00    -0.309 N 
HETATM   23  O   UNL     1      39.681 -14.362   2.378  1.00  0.00    -0.247 OA
HETATM   24  H   UNL     1      40.369 -16.579   2.106  1.00  0.00     0.170 HD
HETATM   25  H   UNL     1      42.709 -14.258   2.912  1.00  0.00     0.164 HD
BRANCH  22  26
HETATM   26  C   UNL     1      42.130 -16.864   3.128  1.00  0.00     0.036 A 
HETATM   27  C   UNL     1      42.984 -17.656   2.358  1.00  0.00     0.029 A 
HETATM   28  C   UNL     1      44.002 -18.396   2.969  1.00  0.00     0.002 A 
HETATM   29  C   UNL     1      44.186 -18.335   4.348  1.00  0.00     0.000 A 
HETATM   30  C   UNL     1      43.361 -17.525   5.120  1.00  0.00     0.002 A 
HETATM   31  C   UNL     1      42.343 -16.787   4.512  1.00  0.00     0.029 A 
ENDBRANCH  22  26
ENDBRANCH   5  20
TORSDOF 6
ENDMDL
