MODEL 1
REMARK VINA RESULT:      -7.3      0.000      0.000
REMARK  9 active torsions:
REMARK  status: ('A' for Active; 'I' for Inactive)
REMARK    1  A    between atoms: C_2  and  O_3 
REMARK    2  A    between atoms: O_3  and  C_4 
REMARK    3  A    between atoms: C_4  and  C_5 
REMARK    4  A    between atoms: C_11  and  O_12 
REMARK    5  A    between atoms: C_13  and  C_14 
REMARK    6  A    between atoms: C_14  and  N_15 
REMARK    7  A    between atoms: N_22  and  C_23 
REMARK    8  A    between atoms: C_29  and  C_30 
REMARK    9  A    between atoms: C_30  and  N_31 
ROOT
HETATM    1  C   UNL     1      41.099 -11.304   0.878  1.00  0.00     0.077 C 
HETATM    2  C   UNL     1      40.298 -11.914  -0.166  1.00  0.00     0.020 A 
HETATM    3  C   UNL     1      40.507 -13.297  -0.059  1.00  0.00     0.053 A 
HETATM    4  C   UNL     1      39.912 -14.214  -0.948  1.00  0.00     0.053 A 
HETATM    5  C   UNL     1      39.156 -13.726  -2.004  1.00  0.00     0.047 A 
HETATM    6 BR   UNL     1      38.424 -14.957  -3.244  1.00  0.00    -0.048 Br
HETATM    7  C   UNL     1      38.921 -12.362  -2.129  1.00  0.00     0.092 A 
HETATM    8  C   UNL     1      39.410 -11.420  -1.190  1.00  0.00     0.016 A 
HETATM    9  N   UNL     1      41.284 -13.534   1.073  1.00  0.00    -0.312 N 
HETATM   10  C   UNL     1      41.751 -12.329   1.579  1.00  0.00     0.060 C 
ENDROOT
BRANCH   8  11
HETATM   11  C   UNL     1      39.038  -9.951  -1.338  1.00  0.00     0.277 C 
BRANCH  11  12
HETATM   12  N   UNL     1      40.096  -9.048  -1.926  1.00  0.00    -0.063 N 
HETATM   13  H   UNL     1      40.950  -9.254  -1.378  1.00  0.00     0.280 HD
HETATM   14  C   UNL     1      40.415  -9.347  -3.382  1.00  0.00     0.261 C 
HETATM   15  C   UNL     1      41.525  -8.408  -3.865  1.00  0.00     0.195 C 
HETATM   16  O   UNL     1      41.139  -7.039  -3.696  1.00  0.00    -0.388 OA
HETATM   17  C   UNL     1      40.907  -6.722  -2.319  1.00  0.00     0.195 C 
HETATM   18  C   UNL     1      39.772  -7.574  -1.742  1.00  0.00     0.261 C 
ENDBRANCH  11  12
ENDBRANCH   8  11
BRANCH   7  19
HETATM   19  O   UNL     1      38.168 -11.895  -3.187  1.00  0.00    -0.359 OA
HETATM   20  H   UNL     1      38.388 -10.940  -3.293  1.00  0.00     0.218 HD
ENDBRANCH   7  19
BRANCH   1  21
HETATM   21  C   UNL     1      41.270  -9.869   1.132  1.00  0.00     0.296 C 
HETATM   22  O   UNL     1      41.922  -9.145   0.393  1.00  0.00    -0.259 OA
BRANCH  21  23
HETATM   23  O   UNL     1      40.609  -9.453   2.245  1.00  0.00    -0.318 OA
BRANCH  23  24
HETATM   24  C   UNL     1      39.235  -9.063   2.057  1.00  0.00     0.174 C 
HETATM   25  C   UNL     1      38.329  -9.908   2.932  1.00  0.00     0.034 C 
ENDBRANCH  23  24
ENDBRANCH  21  23
ENDBRANCH   1  21
BRANCH  10  26
HETATM   26  C   UNL     1      42.791 -12.218   2.666  1.00  0.00     0.293 C 
BRANCH  26  27
HETATM   27  N   UNL     1      42.315 -12.442   4.086  1.00  0.00    -0.066 N 
HETATM   28  H   UNL     1      42.711 -11.697   4.673  1.00  0.00     0.280 HD
HETATM   29  C   UNL     1      40.813 -12.388   4.242  1.00  0.00     0.235 C 
HETATM   30  C   UNL     1      40.457 -12.485   5.720  1.00  0.00     0.028 C 
HETATM   31  C   UNL     1      41.034 -13.742   6.361  1.00  0.00     0.003 C 
HETATM   32  C   UNL     1      42.537 -13.839   6.126  1.00  0.00     0.028 C 
HETATM   33  C   UNL     1      42.883 -13.732   4.648  1.00  0.00     0.235 C 
ENDBRANCH  26  27
ENDBRANCH  10  26
BRANCH   9  34
HETATM   34  C   UNL     1      41.611 -14.817   1.586  1.00  0.00     0.040 A 
HETATM   35  C   UNL     1      42.858 -15.384   1.300  1.00  0.00     0.030 A 
HETATM   36  C   UNL     1      43.204 -16.605   1.878  1.00  0.00     0.002 A 
HETATM   37  C   UNL     1      42.311 -17.256   2.730  1.00  0.00     0.000 A 
HETATM   38  C   UNL     1      41.064 -16.694   3.004  1.00  0.00     0.002 A 
HETATM   39  C   UNL     1      40.709 -15.472   2.436  1.00  0.00     0.030 A 
ENDBRANCH   9  34
TORSDOF 9
ENDMDL
MODEL 2
REMARK VINA RESULT:      -7.3      3.851      7.384
REMARK  9 active torsions:
REMARK  status: ('A' for Active; 'I' for Inactive)
REMARK    1  A    between atoms: C_2  and  O_3 
REMARK    2  A    between atoms: O_3  and  C_4 
REMARK    3  A    between atoms: C_4  and  C_5 
REMARK    4  A    between atoms: C_11  and  O_12 
REMARK    5  A    between atoms: C_13  and  C_14 
REMARK    6  A    between atoms: C_14  and  N_15 
REMARK    7  A    between atoms: N_22  and  C_23 
REMARK    8  A    between atoms: C_29  and  C_30 
REMARK    9  A    between atoms: C_30  and  N_31 
ROOT
HETATM    1  C   UNL     1      40.058 -11.228   4.419  1.00  0.00     0.077 C 
HETATM    2  C   UNL     1      41.259 -10.932   5.176  1.00  0.00     0.020 A 
HETATM    3  C   UNL     1      42.127 -12.015   4.969  1.00  0.00     0.053 A 
HETATM    4  C   UNL     1      43.389 -12.090   5.590  1.00  0.00     0.053 A 
HETATM    5  C   UNL     1      43.751 -11.099   6.491  1.00  0.00     0.047 A 
HETATM    6 BR   UNL     1      45.415 -11.245   7.386  1.00  0.00    -0.048 Br
HETATM    7  C   UNL     1      42.918 -10.008   6.708  1.00  0.00     0.092 A 
HETATM    8  C   UNL     1      41.692  -9.842   6.016  1.00  0.00     0.016 A 
HETATM    9  N   UNL     1      41.548 -12.863   4.027  1.00  0.00    -0.312 N 
HETATM   10  C   UNL     1      40.243 -12.462   3.779  1.00  0.00     0.060 C 
ENDROOT
BRANCH   8  11
HETATM   11  C   UNL     1      40.873  -8.577   6.236  1.00  0.00     0.277 C 
BRANCH  11  12
HETATM   12  N   UNL     1      40.307  -8.377   7.621  1.00  0.00    -0.063 N 
HETATM   13  H   UNL     1      41.127  -8.128   8.204  1.00  0.00     0.280 HD
HETATM   14  C   UNL     1      39.322  -7.224   7.719  1.00  0.00     0.261 C 
HETATM   15  C   UNL     1      38.845  -7.080   9.168  1.00  0.00     0.195 C 
HETATM   16  O   UNL     1      38.254  -8.300   9.628  1.00  0.00    -0.388 OA
HETATM   17  C   UNL     1      39.192  -9.382   9.613  1.00  0.00     0.195 C 
HETATM   18  C   UNL     1      39.701  -9.648   8.192  1.00  0.00     0.261 C 
ENDBRANCH  11  12
ENDBRANCH   8  11
BRANCH   7  19
HETATM   19  O   UNL     1      43.294  -9.032   7.609  1.00  0.00    -0.359 OA
HETATM   20  H   UNL     1      43.126  -9.397   8.509  1.00  0.00     0.218 HD
ENDBRANCH   7  19
BRANCH   1  21
HETATM   21  C   UNL     1      38.828 -10.430   4.370  1.00  0.00     0.296 C 
HETATM   22  O   UNL     1      38.078 -10.322   5.331  1.00  0.00    -0.259 OA
BRANCH  21  23
HETATM   23  O   UNL     1      38.646  -9.821   3.168  1.00  0.00    -0.318 OA
BRANCH  23  24
HETATM   24  C   UNL     1      39.096  -8.455   3.075  1.00  0.00     0.174 C 
HETATM   25  C   UNL     1      40.255  -8.353   2.102  1.00  0.00     0.034 C 
ENDBRANCH  23  24
ENDBRANCH  21  23
ENDBRANCH   1  21
BRANCH  10  26
HETATM   26  C   UNL     1      39.251 -13.270   2.980  1.00  0.00     0.293 C 
BRANCH  26  27
HETATM   27  N   UNL     1      39.342 -13.157   1.472  1.00  0.00    -0.066 N 
HETATM   28  H   UNL     1      38.387 -13.060   1.105  1.00  0.00     0.280 HD
HETATM   29  C   UNL     1      40.132 -11.962   0.996  1.00  0.00     0.235 C 
HETATM   30  C   UNL     1      40.040 -11.870  -0.522  1.00  0.00     0.028 C 
HETATM   31  C   UNL     1      40.516 -13.151  -1.197  1.00  0.00     0.003 C 
HETATM   32  C   UNL     1      39.778 -14.367  -0.651  1.00  0.00     0.028 C 
HETATM   33  C   UNL     1      39.868 -14.446   0.866  1.00  0.00     0.235 C 
ENDBRANCH  26  27
ENDBRANCH  10  26
BRANCH   9  34
HETATM   34  C   UNL     1      42.172 -14.007   3.465  1.00  0.00     0.040 A 
HETATM   35  C   UNL     1      41.927 -15.273   4.011  1.00  0.00     0.030 A 
HETATM   36  C   UNL     1      42.476 -16.400   3.400  1.00  0.00     0.002 A 
HETATM   37  C   UNL     1      43.266 -16.265   2.259  1.00  0.00     0.000 A 
HETATM   38  C   UNL     1      43.518 -15.001   1.724  1.00  0.00     0.002 A 
HETATM   39  C   UNL     1      42.971 -13.867   2.322  1.00  0.00     0.030 A 
ENDBRANCH   9  34
TORSDOF 9
ENDMDL
MODEL 3
REMARK VINA RESULT:      -7.3      3.870      7.415
REMARK  9 active torsions:
REMARK  status: ('A' for Active; 'I' for Inactive)
REMARK    1  A    between atoms: C_2  and  O_3 
REMARK    2  A    between atoms: O_3  and  C_4 
REMARK    3  A    between atoms: C_4  and  C_5 
REMARK    4  A    between atoms: C_11  and  O_12 
REMARK    5  A    between atoms: C_13  and  C_14 
REMARK    6  A    between atoms: C_14  and  N_15 
REMARK    7  A    between atoms: N_22  and  C_23 
REMARK    8  A    between atoms: C_29  and  C_30 
REMARK    9  A    between atoms: C_30  and  N_31 
ROOT
HETATM    1  C   UNL     1      40.411 -12.391   4.550  1.00  0.00     0.077 C 
HETATM    2  C   UNL     1      40.511 -10.944   4.550  1.00  0.00     0.020 A 
HETATM    3  C   UNL     1      40.281 -10.538   3.227  1.00  0.00     0.053 A 
HETATM    4  C   UNL     1      40.341  -9.184   2.839  1.00  0.00     0.053 A 
HETATM    5  C   UNL     1      40.711  -8.236   3.782  1.00  0.00     0.047 A 
HETATM    6 BR   UNL     1      40.870  -6.427   3.239  1.00  0.00    -0.048 Br
HETATM    7  C   UNL     1      40.932  -8.606   5.103  1.00  0.00     0.092 A 
HETATM    8  C   UNL     1      40.772  -9.941   5.553  1.00  0.00     0.016 A 
HETATM    9  N   UNL     1      39.923 -11.660   2.482  1.00  0.00    -0.312 N 
HETATM   10  C   UNL     1      40.117 -12.805   3.242  1.00  0.00     0.060 C 
ENDROOT
BRANCH   8  11
HETATM   11  C   UNL     1      40.943 -10.259   7.032  1.00  0.00     0.277 C 
BRANCH  11  12
HETATM   12  N   UNL     1      42.344 -10.586   7.490  1.00  0.00    -0.063 N 
HETATM   13  H   UNL     1      42.259 -11.509   7.950  1.00  0.00     0.280 HD
HETATM   14  C   UNL     1      43.339 -10.742   6.351  1.00  0.00     0.261 C 
HETATM   15  C   UNL     1      44.712 -11.113   6.920  1.00  0.00     0.195 C 
HETATM   16  O   UNL     1      45.156 -10.125   7.856  1.00  0.00    -0.388 OA
HETATM   17  C   UNL     1      44.267 -10.018   8.974  1.00  0.00     0.195 C 
HETATM   18  C   UNL     1      42.864  -9.599   8.522  1.00  0.00     0.261 C 
ENDBRANCH  11  12
ENDBRANCH   8  11
BRANCH   7  19
HETATM   19  O   UNL     1      41.301  -7.648   6.026  1.00  0.00    -0.359 OA
HETATM   20  H   UNL     1      42.134  -7.239   5.693  1.00  0.00     0.218 HD
ENDBRANCH   7  19
BRANCH   1  21
HETATM   21  C   UNL     1      40.639 -13.290   5.686  1.00  0.00     0.296 C 
HETATM   22  O   UNL     1      39.758 -13.572   6.486  1.00  0.00    -0.259 OA
BRANCH  21  23
HETATM   23  O   UNL     1      41.908 -13.778   5.721  1.00  0.00    -0.318 OA
BRANCH  23  24
HETATM   24  C   UNL     1      42.203 -14.699   6.789  1.00  0.00     0.174 C 
HETATM   25  C   UNL     1      43.631 -15.196   6.668  1.00  0.00     0.034 C 
ENDBRANCH  23  24
ENDBRANCH  21  23
ENDBRANCH   1  21
BRANCH  10  26
HETATM   26  C   UNL     1      40.037 -14.206   2.689  1.00  0.00     0.293 C 
BRANCH  26  27
HETATM   27  N   UNL     1      41.303 -15.034   2.750  1.00  0.00    -0.066 N 
HETATM   28  H   UNL     1      42.016 -14.484   3.248  1.00  0.00     0.280 HD
HETATM   29  C   UNL     1      41.144 -16.340   3.492  1.00  0.00     0.235 C 
HETATM   30  C   UNL     1      42.501 -17.020   3.613  1.00  0.00     0.028 C 
HETATM   31  C   UNL     1      43.152 -17.233   2.250  1.00  0.00     0.003 C 
HETATM   32  C   UNL     1      43.232 -15.928   1.468  1.00  0.00     0.028 C 
HETATM   33  C   UNL     1      41.873 -15.252   1.360  1.00  0.00     0.235 C 
ENDBRANCH  26  27
ENDBRANCH  10  26
BRANCH   9  34
HETATM   34  C   UNL     1      39.498 -11.640   1.128  1.00  0.00     0.040 A 
HETATM   35  C   UNL     1      40.436 -11.793   0.101  1.00  0.00     0.030 A 
HETATM   36  C   UNL     1      40.000 -11.859  -1.222  1.00  0.00     0.002 A 
HETATM   37  C   UNL     1      38.640 -11.767  -1.517  1.00  0.00     0.000 A 
HETATM   38  C   UNL     1      37.708 -11.603  -0.492  1.00  0.00     0.002 A 
HETATM   39  C   UNL     1      38.131 -11.540   0.834  1.00  0.00     0.030 A 
ENDBRANCH   9  34
TORSDOF 9
ENDMDL
MODEL 4
REMARK VINA RESULT:      -7.2      1.883      2.889
REMARK  9 active torsions:
REMARK  status: ('A' for Active; 'I' for Inactive)
REMARK    1  A    between atoms: C_2  and  O_3 
REMARK    2  A    between atoms: O_3  and  C_4 
REMARK    3  A    between atoms: C_4  and  C_5 
REMARK    4  A    between atoms: C_11  and  O_12 
REMARK    5  A    between atoms: C_13  and  C_14 
REMARK    6  A    between atoms: C_14  and  N_15 
REMARK    7  A    between atoms: N_22  and  C_23 
REMARK    8  A    between atoms: C_29  and  C_30 
REMARK    9  A    between atoms: C_30  and  N_31 
ROOT
HETATM    1  C   UNL     1      40.405 -11.319   1.069  1.00  0.00     0.077 C 
HETATM    2  C   UNL     1      39.722 -11.967  -0.034  1.00  0.00     0.020 A 
HETATM    3  C   UNL     1      40.145 -13.305  -0.022  1.00  0.00     0.053 A 
HETATM    4  C   UNL     1      39.712 -14.234  -0.989  1.00  0.00     0.053 A 
HETATM    5  C   UNL     1      38.902 -13.792  -2.025  1.00  0.00     0.047 A 
HETATM    6 BR   UNL     1      38.387 -15.026  -3.367  1.00  0.00    -0.048 Br
HETATM    7  C   UNL     1      38.456 -12.476  -2.057  1.00  0.00     0.092 A 
HETATM    8  C   UNL     1      38.780 -11.542  -1.041  1.00  0.00     0.016 A 
HETATM    9  N   UNL     1      40.935 -13.502   1.108  1.00  0.00    -0.312 N 
HETATM   10  C   UNL     1      41.201 -12.279   1.710  1.00  0.00     0.060 C 
ENDROOT
BRANCH   8  11
HETATM   11  C   UNL     1      38.183 -10.142  -1.092  1.00  0.00     0.277 C 
BRANCH  11  12
HETATM   12  N   UNL     1      36.691 -10.041  -0.885  1.00  0.00    -0.063 N 
HETATM   13  H   UNL     1      36.361 -11.023  -0.885  1.00  0.00     0.280 HD
HETATM   14  C   UNL     1      36.298  -9.437   0.453  1.00  0.00     0.261 C 
HETATM   15  C   UNL     1      34.771  -9.421   0.578  1.00  0.00     0.195 C 
HETATM   16  O   UNL     1      34.182  -8.694  -0.505  1.00  0.00    -0.388 OA
HETATM   17  C   UNL     1      34.481  -9.295  -1.770  1.00  0.00     0.195 C 
HETATM   18  C   UNL     1      35.993  -9.317  -2.024  1.00  0.00     0.261 C 
ENDBRANCH  11  12
ENDBRANCH   8  11
BRANCH   7  19
HETATM   19  O   UNL     1      37.652 -12.054  -3.096  1.00  0.00    -0.359 OA
HETATM   20  H   UNL     1      36.845 -12.619  -3.079  1.00  0.00     0.218 HD
ENDBRANCH   7  19
BRANCH   1  21
HETATM   21  C   UNL     1      40.344  -9.898   1.430  1.00  0.00     0.296 C 
HETATM   22  O   UNL     1      39.421  -9.426   2.079  1.00  0.00    -0.259 OA
BRANCH  21  23
HETATM   23  O   UNL     1      41.425  -9.200   0.991  1.00  0.00    -0.318 OA
BRANCH  23  24
HETATM   24  C   UNL     1      41.247  -8.461  -0.233  1.00  0.00     0.174 C 
HETATM   25  C   UNL     1      42.171  -9.001  -1.308  1.00  0.00     0.034 C 
ENDBRANCH  23  24
ENDBRANCH  21  23
ENDBRANCH   1  21
BRANCH  10  26
HETATM   26  C   UNL     1      42.197 -12.090   2.827  1.00  0.00     0.293 C 
BRANCH  26  27
HETATM   27  N   UNL     1      41.739 -12.475   4.218  1.00  0.00    -0.066 N 
HETATM   28  H   UNL     1      42.010 -11.720   4.860  1.00  0.00     0.280 HD
HETATM   29  C   UNL     1      40.245 -12.656   4.340  1.00  0.00     0.235 C 
HETATM   30  C   UNL     1      39.885 -12.902   5.800  1.00  0.00     0.028 C 
HETATM   31  C   UNL     1      40.635 -14.099   6.374  1.00  0.00     0.003 C 
HETATM   32  C   UNL     1      42.138 -13.956   6.170  1.00  0.00     0.028 C 
HETATM   33  C   UNL     1      42.486 -13.701   4.711  1.00  0.00     0.235 C 
ENDBRANCH  26  27
ENDBRANCH  10  26
BRANCH   9  34
HETATM   34  C   UNL     1      41.454 -14.752   1.535  1.00  0.00     0.040 A 
HETATM   35  C   UNL     1      42.777 -15.096   1.237  1.00  0.00     0.030 A 
HETATM   36  C   UNL     1      43.304 -16.288   1.733  1.00  0.00     0.002 A 
HETATM   37  C   UNL     1      42.515 -17.131   2.516  1.00  0.00     0.000 A 
HETATM   38  C   UNL     1      41.193 -16.791   2.802  1.00  0.00     0.002 A 
HETATM   39  C   UNL     1      40.656 -15.601   2.315  1.00  0.00     0.030 A 
ENDBRANCH   9  34
TORSDOF 9
ENDMDL
MODEL 5
REMARK VINA RESULT:      -7.0      1.816      2.602
REMARK  9 active torsions:
REMARK  status: ('A' for Active; 'I' for Inactive)
REMARK    1  A    between atoms: C_2  and  O_3 
REMARK    2  A    between atoms: O_3  and  C_4 
REMARK    3  A    between atoms: C_4  and  C_5 
REMARK    4  A    between atoms: C_11  and  O_12 
REMARK    5  A    between atoms: C_13  and  C_14 
REMARK    6  A    between atoms: C_14  and  N_15 
REMARK    7  A    between atoms: N_22  and  C_23 
REMARK    8  A    between atoms: C_29  and  C_30 
REMARK    9  A    between atoms: C_30  and  N_31 
ROOT
HETATM    1  C   UNL     1      39.734 -11.739   2.350  1.00  0.00     0.077 C 
HETATM    2  C   UNL     1      39.260 -12.213   1.064  1.00  0.00     0.020 A 
HETATM    3  C   UNL     1      39.987 -13.381   0.788  1.00  0.00     0.053 A 
HETATM    4  C   UNL     1      39.818 -14.101  -0.412  1.00  0.00     0.053 A 
HETATM    5  C   UNL     1      38.961 -13.596  -1.378  1.00  0.00     0.047 A 
HETATM    6 BR   UNL     1      38.797 -14.523  -3.023  1.00  0.00    -0.048 Br
HETATM    7  C   UNL     1      38.217 -12.449  -1.129  1.00  0.00     0.092 A 
HETATM    8  C   UNL     1      38.277 -11.762   0.109  1.00  0.00     0.016 A 
HETATM    9  N   UNL     1      40.765 -13.685   1.904  1.00  0.00    -0.312 N 
HETATM   10  C   UNL     1      40.713 -12.632   2.807  1.00  0.00     0.060 C 
ENDROOT
BRANCH   8  11
HETATM   11  C   UNL     1      37.368 -10.564   0.347  1.00  0.00     0.277 C 
BRANCH  11  12
HETATM   12  N   UNL     1      37.436  -9.457  -0.677  1.00  0.00    -0.063 N 
HETATM   13  H   UNL     1      37.624  -9.941  -1.573  1.00  0.00     0.280 HD
HETATM   14  C   UNL     1      36.131  -8.696  -0.843  1.00  0.00     0.261 C 
HETATM   15  C   UNL     1      36.296  -7.629  -1.931  1.00  0.00     0.195 C 
HETATM   16  O   UNL     1      37.371  -6.740  -1.608  1.00  0.00    -0.388 OA
HETATM   17  C   UNL     1      38.622  -7.431  -1.522  1.00  0.00     0.195 C 
HETATM   18  C   UNL     1      38.586  -8.496  -0.421  1.00  0.00     0.261 C 
ENDBRANCH  11  12
ENDBRANCH   8  11
BRANCH   7  19
HETATM   19  O   UNL     1      37.370 -11.961  -2.103  1.00  0.00    -0.359 OA
HETATM   20  H   UNL     1      37.074 -12.735  -2.636  1.00  0.00     0.218 HD
ENDBRANCH   7  19
BRANCH   1  21
HETATM   21  C   UNL     1      39.327 -10.510   3.040  1.00  0.00     0.296 C 
HETATM   22  O   UNL     1      39.812  -9.419   2.775  1.00  0.00    -0.259 OA
BRANCH  21  23
HETATM   23  O   UNL     1      38.352 -10.726   3.963  1.00  0.00    -0.318 OA
BRANCH  23  24
HETATM   24  C   UNL     1      38.451  -9.960   5.180  1.00  0.00     0.174 C 
HETATM   25  C   UNL     1      38.770 -10.875   6.346  1.00  0.00     0.034 C 
ENDBRANCH  23  24
ENDBRANCH  21  23
ENDBRANCH   1  21
BRANCH  10  26
HETATM   26  C   UNL     1      41.600 -12.522   4.023  1.00  0.00     0.293 C 
BRANCH  26  27
HETATM   27  N   UNL     1      41.824 -13.793   4.817  1.00  0.00    -0.066 N 
HETATM   28  H   UNL     1      41.795 -14.584   4.161  1.00  0.00     0.280 HD
HETATM   29  C   UNL     1      43.156 -13.843   5.525  1.00  0.00     0.235 C 
HETATM   30  C   UNL     1      43.332 -15.211   6.171  1.00  0.00     0.028 C 
HETATM   31  C   UNL     1      42.187 -15.540   7.123  1.00  0.00     0.003 C 
HETATM   32  C   UNL     1      40.838 -15.402   6.429  1.00  0.00     0.028 C 
HETATM   33  C   UNL     1      40.676 -14.036   5.780  1.00  0.00     0.235 C 
ENDBRANCH  26  27
ENDBRANCH  10  26
BRANCH   9  34
HETATM   34  C   UNL     1      41.551 -14.856   2.058  1.00  0.00     0.040 A 
HETATM   35  C   UNL     1      40.977 -16.014   2.597  1.00  0.00     0.030 A 
HETATM   36  C   UNL     1      41.732 -17.185   2.666  1.00  0.00     0.002 A 
HETATM   37  C   UNL     1      43.049 -17.198   2.206  1.00  0.00     0.000 A 
HETATM   38  C   UNL     1      43.622 -16.039   1.681  1.00  0.00     0.002 A 
HETATM   39  C   UNL     1      42.876 -14.864   1.603  1.00  0.00     0.030 A 
ENDBRANCH   9  34
TORSDOF 9
ENDMDL
MODEL 6
REMARK VINA RESULT:      -7.0      4.865      8.663
REMARK  9 active torsions:
REMARK  status: ('A' for Active; 'I' for Inactive)
REMARK    1  A    between atoms: C_2  and  O_3 
REMARK    2  A    between atoms: O_3  and  C_4 
REMARK    3  A    between atoms: C_4  and  C_5 
REMARK    4  A    between atoms: C_11  and  O_12 
REMARK    5  A    between atoms: C_13  and  C_14 
REMARK    6  A    between atoms: C_14  and  N_15 
REMARK    7  A    between atoms: N_22  and  C_23 
REMARK    8  A    between atoms: C_29  and  C_30 
REMARK    9  A    between atoms: C_30  and  N_31 
ROOT
HETATM    1  C   UNL     1      42.893 -10.668   6.620  1.00  0.00     0.077 C 
HETATM    2  C   UNL     1      42.025 -10.971   5.498  1.00  0.00     0.020 A 
HETATM    3  C   UNL     1      41.024  -9.988   5.503  1.00  0.00     0.053 A 
HETATM    4  C   UNL     1      39.970  -9.989   4.567  1.00  0.00     0.053 A 
HETATM    5  C   UNL     1      39.883 -11.036   3.661  1.00  0.00     0.047 A 
HETATM    6 BR   UNL     1      38.421 -11.078   2.457  1.00  0.00    -0.048 Br
HETATM    7  C   UNL     1      40.867 -12.017   3.623  1.00  0.00     0.092 A 
HETATM    8  C   UNL     1      42.000 -11.987   4.474  1.00  0.00     0.016 A 
HETATM    9  N   UNL     1      41.335  -9.053   6.489  1.00  0.00    -0.312 N 
HETATM   10  C   UNL     1      42.397  -9.519   7.253  1.00  0.00     0.060 C 
ENDROOT
BRANCH   8  11
HETATM   11  C   UNL     1      43.084 -13.044   4.316  1.00  0.00     0.277 C 
BRANCH  11  12
HETATM   12  N   UNL     1      42.641 -14.482   4.434  1.00  0.00    -0.063 N 
HETATM   13  H   UNL     1      41.612 -14.448   4.317  1.00  0.00     0.280 HD
HETATM   14  C   UNL     1      43.188 -15.382   3.339  1.00  0.00     0.261 C 
HETATM   15  C   UNL     1      42.644 -16.803   3.526  1.00  0.00     0.195 C 
HETATM   16  O   UNL     1      42.984 -17.308   4.821  1.00  0.00    -0.388 OA
HETATM   17  C   UNL     1      42.413 -16.512   5.866  1.00  0.00     0.195 C 
HETATM   18  C   UNL     1      42.932 -15.071   5.804  1.00  0.00     0.261 C 
ENDBRANCH  11  12
ENDBRANCH   8  11
BRANCH   7  19
HETATM   19  O   UNL     1      40.762 -13.051   2.715  1.00  0.00    -0.359 OA
HETATM   20  H   UNL     1      41.291 -12.792   1.926  1.00  0.00     0.218 HD
ENDBRANCH   7  19
BRANCH   1  21
HETATM   21  C   UNL     1      44.049 -11.447   7.075  1.00  0.00     0.296 C 
HETATM   22  O   UNL     1      43.937 -12.415   7.814  1.00  0.00    -0.259 OA
BRANCH  21  23
HETATM   23  O   UNL     1      45.223 -10.988   6.565  1.00  0.00    -0.318 OA
BRANCH  23  24
HETATM   24  C   UNL     1      46.285 -10.772   7.515  1.00  0.00     0.174 C 
HETATM   25  C   UNL     1      46.331  -9.312   7.922  1.00  0.00     0.034 C 
ENDBRANCH  23  24
ENDBRANCH  21  23
ENDBRANCH   1  21
BRANCH  10  26
HETATM   26  C   UNL     1      42.859  -8.870   8.534  1.00  0.00     0.293 C 
BRANCH  26  27
HETATM   27  N   UNL     1      42.620  -9.646   9.812  1.00  0.00    -0.066 N 
HETATM   28  H   UNL     1      42.173 -10.537   9.562  1.00  0.00     0.280 HD
HETATM   29  C   UNL     1      43.883  -9.974  10.573  1.00  0.00     0.235 C 
HETATM   30  C   UNL     1      43.539 -10.868  11.757  1.00  0.00     0.028 C 
HETATM   31  C   UNL     1      42.497 -10.228  12.667  1.00  0.00     0.003 C 
HETATM   32  C   UNL     1      41.258  -9.817  11.881  1.00  0.00     0.028 C 
HETATM   33  C   UNL     1      41.612  -8.932  10.695  1.00  0.00     0.235 C 
ENDBRANCH  26  27
ENDBRANCH  10  26
BRANCH   9  34
HETATM   34  C   UNL     1      40.627  -7.846   6.724  1.00  0.00     0.040 A 
HETATM   35  C   UNL     1      39.502  -7.849   7.557  1.00  0.00     0.030 A 
HETATM   36  C   UNL     1      38.864  -6.645   7.851  1.00  0.00     0.002 A 
HETATM   37  C   UNL     1      39.340  -5.449   7.313  1.00  0.00     0.000 A 
HETATM   38  C   UNL     1      40.454  -5.451   6.473  1.00  0.00     0.002 A 
HETATM   39  C   UNL     1      41.103  -6.647   6.176  1.00  0.00     0.030 A 
ENDBRANCH   9  34
TORSDOF 9
ENDMDL
MODEL 7
REMARK VINA RESULT:      -7.0      2.874      5.860
REMARK  9 active torsions:
REMARK  status: ('A' for Active; 'I' for Inactive)
REMARK    1  A    between atoms: C_2  and  O_3 
REMARK    2  A    between atoms: O_3  and  C_4 
REMARK    3  A    between atoms: C_4  and  C_5 
REMARK    4  A    between atoms: C_11  and  O_12 
REMARK    5  A    between atoms: C_13  and  C_14 
REMARK    6  A    between atoms: C_14  and  N_15 
REMARK    7  A    between atoms: N_22  and  C_23 
REMARK    8  A    between atoms: C_29  and  C_30 
REMARK    9  A    between atoms: C_30  and  N_31 
ROOT
HETATM    1  C   UNL     1      40.128 -11.812   2.758  1.00  0.00     0.077 C 
HETATM    2  C   UNL     1      40.234 -10.535   2.077  1.00  0.00     0.020 A 
HETATM    3  C   UNL     1      40.062 -10.807   0.711  1.00  0.00     0.053 A 
HETATM    4  C   UNL     1      40.143  -9.797  -0.268  1.00  0.00     0.053 A 
HETATM    5  C   UNL     1      40.477  -8.509   0.127  1.00  0.00     0.047 A 
HETATM    6 BR   UNL     1      40.665  -7.170  -1.200  1.00  0.00    -0.048 Br
HETATM    7  C   UNL     1      40.641  -8.207   1.474  1.00  0.00     0.092 A 
HETATM    8  C   UNL     1      40.457  -9.173   2.495  1.00  0.00     0.016 A 
HETATM    9  N   UNL     1      39.730 -12.153   0.573  1.00  0.00    -0.312 N 
HETATM   10  C   UNL     1      39.888 -12.799   1.791  1.00  0.00     0.060 C 
ENDROOT
BRANCH   8  11
HETATM   11  C   UNL     1      40.564  -8.751   3.954  1.00  0.00     0.277 C 
BRANCH  11  12
HETATM   12  N   UNL     1      39.447  -7.886   4.486  1.00  0.00    -0.063 N 
HETATM   13  H   UNL     1      39.456  -7.046   3.880  1.00  0.00     0.280 HD
HETATM   14  C   UNL     1      38.070  -8.517   4.355  1.00  0.00     0.261 C 
HETATM   15  C   UNL     1      37.010  -7.544   4.881  1.00  0.00     0.195 C 
HETATM   16  O   UNL     1      37.283  -7.185   6.240  1.00  0.00    -0.388 OA
HETATM   17  C   UNL     1      38.545  -6.521   6.369  1.00  0.00     0.195 C 
HETATM   18  C   UNL     1      39.692  -7.430   5.914  1.00  0.00     0.261 C 
ENDBRANCH  11  12
ENDBRANCH   8  11
BRANCH   7  19
HETATM   19  O   UNL     1      40.975  -6.921   1.847  1.00  0.00    -0.359 OA
HETATM   20  H   UNL     1      41.555  -6.997   2.640  1.00  0.00     0.218 HD
ENDBRANCH   7  19
BRANCH   1  21
HETATM   21  C   UNL     1      40.305 -12.063   4.192  1.00  0.00     0.296 C 
HETATM   22  O   UNL     1      39.456 -11.763   5.019  1.00  0.00    -0.259 OA
BRANCH  21  23
HETATM   23  O   UNL     1      41.485 -12.677   4.474  1.00  0.00    -0.318 OA
BRANCH  23  24
HETATM   24  C   UNL     1      42.663 -11.851   4.402  1.00  0.00     0.174 C 
HETATM   25  C   UNL     1      43.564 -12.325   3.278  1.00  0.00     0.034 C 
ENDBRANCH  23  24
ENDBRANCH  21  23
ENDBRANCH   1  21
BRANCH  10  26
HETATM   26  C   UNL     1      39.825 -14.297   1.964  1.00  0.00     0.293 C 
BRANCH  26  27
HETATM   27  N   UNL     1      41.098 -14.981   2.418  1.00  0.00    -0.066 N 
HETATM   28  H   UNL     1      41.670 -14.287   2.916  1.00  0.00     0.280 HD
HETATM   29  C   UNL     1      40.866 -16.135   3.365  1.00  0.00     0.235 C 
HETATM   30  C   UNL     1      42.208 -16.655   3.863  1.00  0.00     0.028 C 
HETATM   31  C   UNL     1      43.121 -17.060   2.712  1.00  0.00     0.003 C 
HETATM   32  C   UNL     1      43.283 -15.922   1.711  1.00  0.00     0.028 C 
HETATM   33  C   UNL     1      41.937 -15.404   1.226  1.00  0.00     0.235 C 
ENDBRANCH  26  27
ENDBRANCH  10  26
BRANCH   9  34
HETATM   34  C   UNL     1      39.363 -12.783  -0.644  1.00  0.00     0.040 A 
HETATM   35  C   UNL     1      38.043 -12.695  -1.104  1.00  0.00     0.030 A 
HETATM   36  C   UNL     1      37.711 -13.243  -2.342  1.00  0.00     0.002 A 
HETATM   37  C   UNL     1      38.685 -13.879  -3.112  1.00  0.00     0.000 A 
HETATM   38  C   UNL     1      39.996 -13.977  -2.646  1.00  0.00     0.002 A 
HETATM   39  C   UNL     1      40.342 -13.428  -1.412  1.00  0.00     0.030 A 
ENDBRANCH   9  34
TORSDOF 9
ENDMDL
MODEL 8
REMARK VINA RESULT:      -7.0      3.693      6.889
REMARK  9 active torsions:
REMARK  status: ('A' for Active; 'I' for Inactive)
REMARK    1  A    between atoms: C_2  and  O_3 
REMARK    2  A    between atoms: O_3  and  C_4 
REMARK    3  A    between atoms: C_4  and  C_5 
REMARK    4  A    between atoms: C_11  and  O_12 
REMARK    5  A    between atoms: C_13  and  C_14 
REMARK    6  A    between atoms: C_14  and  N_15 
REMARK    7  A    between atoms: N_22  and  C_23 
REMARK    8  A    between atoms: C_29  and  C_30 
REMARK    9  A    between atoms: C_30  and  N_31 
ROOT
HETATM    1  C   UNL     1      41.467 -12.461   4.322  1.00  0.00     0.077 C 
HETATM    2  C   UNL     1      40.365 -11.526   4.196  1.00  0.00     0.020 A 
HETATM    3  C   UNL     1      40.043 -11.486   2.831  1.00  0.00     0.053 A 
HETATM    4  C   UNL     1      39.034 -10.642   2.326  1.00  0.00     0.053 A 
HETATM    5  C   UNL     1      38.391  -9.773   3.196  1.00  0.00     0.047 A 
HETATM    6 BR   UNL     1      37.091  -8.584   2.501  1.00  0.00    -0.048 Br
HETATM    7  C   UNL     1      38.680  -9.799   4.556  1.00  0.00     0.092 A 
HETATM    8  C   UNL     1      39.609 -10.712   5.116  1.00  0.00     0.016 A 
HETATM    9  N   UNL     1      40.810 -12.445   2.173  1.00  0.00    -0.312 N 
HETATM   10  C   UNL     1      41.763 -12.956   3.043  1.00  0.00     0.060 C 
ENDROOT
BRANCH   8  11
HETATM   11  C   UNL     1      39.810 -10.747   6.624  1.00  0.00     0.277 C 
BRANCH  11  12
HETATM   12  N   UNL     1      40.350  -9.487   7.258  1.00  0.00    -0.063 N 
HETATM   13  H   UNL     1      39.927  -8.717   6.709  1.00  0.00     0.280 HD
HETATM   14  C   UNL     1      39.918  -9.296   8.703  1.00  0.00     0.261 C 
HETATM   15  C   UNL     1      40.482  -7.974   9.234  1.00  0.00     0.195 C 
HETATM   16  O   UNL     1      41.908  -7.949   9.117  1.00  0.00    -0.388 OA
HETATM   17  C   UNL     1      42.330  -8.052   7.752  1.00  0.00     0.195 C 
HETATM   18  C   UNL     1      41.860  -9.373   7.132  1.00  0.00     0.261 C 
ENDBRANCH  11  12
ENDBRANCH   8  11
BRANCH   7  19
HETATM   19  O   UNL     1      38.032  -8.926   5.406  1.00  0.00    -0.359 OA
HETATM   20  H   UNL     1      37.657  -9.469   6.138  1.00  0.00     0.218 HD
ENDBRANCH   7  19
BRANCH   1  21
HETATM   21  C   UNL     1      42.203 -12.796   5.545  1.00  0.00     0.296 C 
HETATM   22  O   UNL     1      41.784 -13.604   6.362  1.00  0.00    -0.259 OA
BRANCH  21  23
HETATM   23  O   UNL     1      43.387 -12.134   5.641  1.00  0.00    -0.318 OA
BRANCH  23  24
HETATM   24  C   UNL     1      44.315 -12.635   6.623  1.00  0.00     0.174 C 
HETATM   25  C   UNL     1      45.085 -11.487   7.247  1.00  0.00     0.034 C 
ENDBRANCH  23  24
ENDBRANCH  21  23
ENDBRANCH   1  21
BRANCH  10  26
HETATM   26  C   UNL     1      42.897 -13.854   2.616  1.00  0.00     0.293 C 
BRANCH  26  27
HETATM   27  N   UNL     1      42.724 -15.337   2.874  1.00  0.00    -0.066 N 
HETATM   28  H   UNL     1      41.727 -15.511   3.054  1.00  0.00     0.280 HD
HETATM   29  C   UNL     1      43.132 -16.211   1.712  1.00  0.00     0.235 C 
HETATM   30  C   UNL     1      42.787 -17.660   2.027  1.00  0.00     0.028 C 
HETATM   31  C   UNL     1      43.436 -18.128   3.325  1.00  0.00     0.003 C 
HETATM   32  C   UNL     1      43.094 -17.194   4.479  1.00  0.00     0.028 C 
HETATM   33  C   UNL     1      43.434 -15.748   4.152  1.00  0.00     0.235 C 
ENDBRANCH  26  27
ENDBRANCH  10  26
BRANCH   9  34
HETATM   34  C   UNL     1      40.687 -12.791   0.802  1.00  0.00     0.040 A 
HETATM   35  C   UNL     1      40.062 -13.990   0.439  1.00  0.00     0.030 A 
HETATM   36  C   UNL     1      39.868 -14.281  -0.911  1.00  0.00     0.002 A 
HETATM   37  C   UNL     1      40.300 -13.386  -1.890  1.00  0.00     0.000 A 
HETATM   38  C   UNL     1      40.933 -12.197  -1.526  1.00  0.00     0.002 A 
HETATM   39  C   UNL     1      41.128 -11.893  -0.180  1.00  0.00     0.030 A 
ENDBRANCH   9  34
TORSDOF 9
ENDMDL
MODEL 9
REMARK VINA RESULT:      -6.9      4.918      8.737
REMARK  9 active torsions:
REMARK  status: ('A' for Active; 'I' for Inactive)
REMARK    1  A    between atoms: C_2  and  O_3 
REMARK    2  A    between atoms: O_3  and  C_4 
REMARK    3  A    between atoms: C_4  and  C_5 
REMARK    4  A    between atoms: C_11  and  O_12 
REMARK    5  A    between atoms: C_13  and  C_14 
REMARK    6  A    between atoms: C_14  and  N_15 
REMARK    7  A    between atoms: N_22  and  C_23 
REMARK    8  A    between atoms: C_29  and  C_30 
REMARK    9  A    between atoms: C_30  and  N_31 
ROOT
HETATM    1  C   UNL     1      43.037 -10.968   6.153  1.00  0.00     0.077 C 
HETATM    2  C   UNL     1      42.298  -9.732   6.329  1.00  0.00     0.020 A 
HETATM    3  C   UNL     1      41.362  -9.687   5.286  1.00  0.00     0.053 A 
HETATM    4  C   UNL     1      40.487  -8.595   5.114  1.00  0.00     0.053 A 
HETATM    5  C   UNL     1      40.609  -7.502   5.960  1.00  0.00     0.047 A 
HETATM    6 BR   UNL     1      39.486  -6.003   5.677  1.00  0.00    -0.048 Br
HETATM    7  C   UNL     1      41.518  -7.524   7.011  1.00  0.00     0.092 A 
HETATM    8  C   UNL     1      42.336  -8.650   7.282  1.00  0.00     0.016 A 
HETATM    9  N   UNL     1      41.426 -10.891   4.588  1.00  0.00    -0.312 N 
HETATM   10  C   UNL     1      42.520 -11.625   5.026  1.00  0.00     0.060 C 
ENDROOT
BRANCH   8  11
HETATM   11  C   UNL     1      43.245  -8.640   8.503  1.00  0.00     0.277 C 
BRANCH  11  12
HETATM   12  N   UNL     1      42.817  -9.506   9.664  1.00  0.00    -0.063 N 
HETATM   13  H   UNL     1      42.425 -10.357   9.223  1.00  0.00     0.280 HD
HETATM   14  C   UNL     1      43.967  -9.950  10.552  1.00  0.00     0.261 C 
HETATM   15  C   UNL     1      43.433 -10.854  11.667  1.00  0.00     0.195 C 
HETATM   16  O   UNL     1      42.428 -10.176  12.430  1.00  0.00    -0.388 OA
HETATM   17  C   UNL     1      41.302  -9.817  11.621  1.00  0.00     0.195 C 
HETATM   18  C   UNL     1      41.717  -8.865  10.494  1.00  0.00     0.261 C 
ENDBRANCH  11  12
ENDBRANCH   8  11
BRANCH   7  19
HETATM   19  O   UNL     1      41.626  -6.427   7.841  1.00  0.00    -0.359 OA
HETATM   20  H   UNL     1      40.708  -6.165   8.088  1.00  0.00     0.218 HD
ENDBRANCH   7  19
BRANCH   1  21
HETATM   21  C   UNL     1      44.172 -11.438   6.954  1.00  0.00     0.296 C 
HETATM   22  O   UNL     1      44.055 -12.300   7.814  1.00  0.00    -0.259 OA
BRANCH  21  23
HETATM   23  O   UNL     1      45.341 -10.834   6.612  1.00  0.00    -0.318 OA
BRANCH  23  24
HETATM   24  C   UNL     1      46.318 -10.702   7.663  1.00  0.00     0.174 C 
HETATM   25  C   UNL     1      46.578  -9.237   7.952  1.00  0.00     0.034 C 
ENDBRANCH  23  24
ENDBRANCH  21  23
ENDBRANCH   1  21
BRANCH  10  26
HETATM   26  C   UNL     1      43.021 -12.876   4.348  1.00  0.00     0.293 C 
BRANCH  26  27
HETATM   27  N   UNL     1      42.965 -14.155   5.158  1.00  0.00    -0.066 N 
HETATM   28  H   UNL     1      43.776 -14.164   5.790  1.00  0.00     0.280 HD
HETATM   29  C   UNL     1      41.726 -14.284   6.012  1.00  0.00     0.235 C 
HETATM   30  C   UNL     1      41.841 -15.529   6.881  1.00  0.00     0.028 C 
HETATM   31  C   UNL     1      42.070 -16.784   6.047  1.00  0.00     0.003 C 
HETATM   32  C   UNL     1      43.269 -16.618   5.121  1.00  0.00     0.028 C 
HETATM   33  C   UNL     1      43.149 -15.368   4.263  1.00  0.00     0.235 C 
ENDBRANCH  26  27
ENDBRANCH  10  26
BRANCH   9  34
HETATM   34  C   UNL     1      40.554 -11.275   3.537  1.00  0.00     0.040 A 
HETATM   35  C   UNL     1      40.774 -10.798   2.239  1.00  0.00     0.030 A 
HETATM   36  C   UNL     1      39.964 -11.247   1.197  1.00  0.00     0.002 A 
HETATM   37  C   UNL     1      38.939 -12.160   1.449  1.00  0.00     0.000 A 
HETATM   38  C   UNL     1      38.715 -12.625   2.745  1.00  0.00     0.002 A 
HETATM   39  C   UNL     1      39.521 -12.186   3.794  1.00  0.00     0.030 A 
ENDBRANCH   9  34
TORSDOF 9
ENDMDL
MODEL 10
REMARK VINA RESULT:      -6.8      3.091      5.222
REMARK  9 active torsions:
REMARK  status: ('A' for Active; 'I' for Inactive)
REMARK    1  A    between atoms: C_2  and  O_3 
REMARK    2  A    between atoms: O_3  and  C_4 
REMARK    3  A    between atoms: C_4  and  C_5 
REMARK    4  A    between atoms: C_11  and  O_12 
REMARK    5  A    between atoms: C_13  and  C_14 
REMARK    6  A    between atoms: C_14  and  N_15 
REMARK    7  A    between atoms: N_22  and  C_23 
REMARK    8  A    between atoms: C_29  and  C_30 
REMARK    9  A    between atoms: C_30  and  N_31 
ROOT
HETATM    1  C   UNL     1      40.679 -13.203   2.686  1.00  0.00     0.077 C 
HETATM    2  C   UNL     1      40.077 -11.944   3.081  1.00  0.00     0.020 A 
HETATM    3  C   UNL     1      40.880 -11.436   4.113  1.00  0.00     0.053 A 
HETATM    4  C   UNL     1      40.572 -10.231   4.776  1.00  0.00     0.053 A 
HETATM    5  C   UNL     1      39.399  -9.568   4.445  1.00  0.00     0.047 A 
HETATM    6 BR   UNL     1      38.946  -7.992   5.393  1.00  0.00    -0.048 Br
HETATM    7  C   UNL     1      38.589 -10.040   3.419  1.00  0.00     0.092 A 
HETATM    8  C   UNL     1      38.925 -11.187   2.656  1.00  0.00     0.016 A 
HETATM    9  N   UNL     1      41.991 -12.266   4.251  1.00  0.00    -0.312 N 
HETATM   10  C   UNL     1      41.819 -13.406   3.477  1.00  0.00     0.060 C 
ENDROOT
BRANCH   8  11
HETATM   11  C   UNL     1      38.040 -11.595   1.486  1.00  0.00     0.277 C 
BRANCH  11  12
HETATM   12  N   UNL     1      38.584 -11.321   0.105  1.00  0.00    -0.063 N 
HETATM   13  H   UNL     1      39.107 -12.179  -0.145  1.00  0.00     0.280 HD
HETATM   14  C   UNL     1      37.507 -11.128  -0.950  1.00  0.00     0.261 C 
HETATM   15  C   UNL     1      38.164 -10.900  -2.315  1.00  0.00     0.195 C 
HETATM   16  O   UNL     1      39.044  -9.772  -2.270  1.00  0.00    -0.388 OA
HETATM   17  C   UNL     1      40.109  -9.969  -1.334  1.00  0.00     0.195 C 
HETATM   18  C   UNL     1      39.564 -10.159   0.086  1.00  0.00     0.261 C 
ENDBRANCH  11  12
ENDBRANCH   8  11
BRANCH   7  19
HETATM   19  O   UNL     1      37.425  -9.368   3.105  1.00  0.00    -0.359 OA
HETATM   20  H   UNL     1      37.646  -8.408   3.093  1.00  0.00     0.218 HD
ENDBRANCH   7  19
BRANCH   1  21
HETATM   21  C   UNL     1      40.169 -14.149   1.687  1.00  0.00     0.296 C 
HETATM   22  O   UNL     1      39.543 -15.153   1.995  1.00  0.00    -0.259 OA
BRANCH  21  23
HETATM   23  O   UNL     1      40.447 -13.765   0.413  1.00  0.00    -0.318 OA
BRANCH  23  24
HETATM   24  C   UNL     1      39.791 -14.510  -0.631  1.00  0.00     0.174 C 
HETATM   25  C   UNL     1      40.143 -13.929  -1.987  1.00  0.00     0.034 C 
ENDBRANCH  23  24
ENDBRANCH  21  23
ENDBRANCH   1  21
BRANCH  10  26
HETATM   26  C   UNL     1      42.719 -14.614   3.548  1.00  0.00     0.293 C 
BRANCH  26  27
HETATM   27  N   UNL     1      42.919 -15.233   4.915  1.00  0.00    -0.066 N 
HETATM   28  H   UNL     1      43.358 -14.528   5.520  1.00  0.00     0.280 HD
HETATM   29  C   UNL     1      41.635 -15.663   5.584  1.00  0.00     0.235 C 
HETATM   30  C   UNL     1      41.938 -16.138   6.999  1.00  0.00     0.028 C 
HETATM   31  C   UNL     1      42.970 -17.261   7.011  1.00  0.00     0.003 C 
HETATM   32  C   UNL     1      44.232 -16.856   6.258  1.00  0.00     0.028 C 
HETATM   33  C   UNL     1      43.917 -16.375   4.850  1.00  0.00     0.235 C 
ENDBRANCH  26  27
ENDBRANCH  10  26
BRANCH   9  34
HETATM   34  C   UNL     1      43.094 -12.020   5.110  1.00  0.00     0.040 A 
HETATM   35  C   UNL     1      42.998 -12.327   6.472  1.00  0.00     0.030 A 
HETATM   36  C   UNL     1      44.114 -12.163   7.292  1.00  0.00     0.002 A 
HETATM   37  C   UNL     1      45.313 -11.691   6.757  1.00  0.00     0.000 A 
HETATM   38  C   UNL     1      45.402 -11.374   5.402  1.00  0.00     0.002 A 
HETATM   39  C   UNL     1      44.295 -11.539   4.571  1.00  0.00     0.030 A 
ENDBRANCH   9  34
TORSDOF 9
ENDMDL
