MODEL 1
REMARK VINA RESULT:      -8.5      0.000      0.000
REMARK  5 active torsions:
REMARK  status: ('A' for Active; 'I' for Inactive)
REMARK    1  A    between atoms: C_2  and  O_3 
REMARK    2  A    between atoms: O_3  and  C_4 
REMARK    3  A    between atoms: C_5  and  C_6 
REMARK    4  A    between atoms: C_6  and  C_9 
REMARK       I    between atoms: C_9  and  N_10 
REMARK    5  A    between atoms: N_10  and  C_11 
ROOT
HETATM    1  C   UNL     1      41.274 -15.913   2.054  1.00  0.00     0.300 C 
HETATM    2  N   UNL     1      41.507 -15.010   1.014  1.00  0.00    -0.320 N 
HETATM    3  O   UNL     1      40.203 -16.024   2.647  1.00  0.00    -0.266 OA
HETATM    4  H   UNL     1      42.456 -15.006   0.648  1.00  0.00     0.169 HD
ENDROOT
BRANCH   1   5
HETATM    5  C   UNL     1      42.539 -16.774   2.367  1.00  0.00     0.352 C 
HETATM    6  F   UNL     1      43.495 -16.501   1.404  1.00  0.00    -0.190 F 
HETATM    7  F   UNL     1      42.268 -18.102   2.169  1.00  0.00    -0.190 F 
BRANCH   5   8
HETATM    8  C   UNL     1      43.082 -16.466   3.749  1.00  0.00     0.056 A 
HETATM    9  C   UNL     1      43.883 -17.374   4.453  1.00  0.00     0.081 A 
HETATM   10  C   UNL     1      44.403 -17.041   5.708  1.00  0.00     0.037 A 
HETATM   11  C   UNL     1      44.090 -15.818   6.295  1.00  0.00     0.003 A 
HETATM   12  C   UNL     1      43.265 -14.918   5.626  1.00  0.00     0.001 A 
HETATM   13  C   UNL     1      42.767 -15.238   4.362  1.00  0.00     0.017 A 
BRANCH   9  14
HETATM   14  O   UNL     1      44.235 -18.560   3.871  1.00  0.00    -0.351 OA
BRANCH  14  15
HETATM   15  C   UNL     1      44.256 -19.649   4.805  1.00  0.00     0.171 C 
HETATM   16  C   UNL     1      43.868 -20.934   4.098  1.00  0.00     0.034 C 
ENDBRANCH  14  15
ENDBRANCH   9  14
ENDBRANCH   5   8
ENDBRANCH   1   5
BRANCH   2  17
HETATM   17  C   UNL     1      40.583 -14.133   0.411  1.00  0.00     0.053 A 
HETATM   18  C   UNL     1      40.209 -12.886   0.922  1.00  0.00     0.148 A 
HETATM   19  N   UNL     1      39.299 -12.034   0.373  1.00  0.00    -0.239 NA
HETATM   20  C   UNL     1      38.764 -12.512  -0.764  1.00  0.00     0.156 A 
HETATM   21  C   UNL     1      39.043 -13.715  -1.389  1.00  0.00     0.039 A 
HETATM   22  N   UNL     1      37.826 -11.896  -1.538  1.00  0.00    -0.260 N 
HETATM   23  C   UNL     1      39.983 -14.564  -0.780  1.00  0.00     0.048 A 
HETATM   24  C   UNL     1      38.224 -13.712  -2.549  1.00  0.00     0.065 A 
HETATM   25  N   UNL     1      37.480 -12.598  -2.638  1.00  0.00    -0.177 NA
HETATM   26  C   UNL     1      38.139 -14.754  -3.602  1.00  0.00     0.073 C 
HETATM   27  H   UNL     1      37.393 -10.999  -1.366  1.00  0.00     0.191 HD
ENDBRANCH   2  17
TORSDOF 5
ENDMDL
MODEL 2
REMARK VINA RESULT:      -8.5      1.768      2.762
REMARK  5 active torsions:
REMARK  status: ('A' for Active; 'I' for Inactive)
REMARK    1  A    between atoms: C_2  and  O_3 
REMARK    2  A    between atoms: O_3  and  C_4 
REMARK    3  A    between atoms: C_5  and  C_6 
REMARK    4  A    between atoms: C_6  and  C_9 
REMARK       I    between atoms: C_9  and  N_10 
REMARK    5  A    between atoms: N_10  and  C_11 
ROOT
HETATM    1  C   UNL     1      42.743 -15.150   2.322  1.00  0.00     0.300 C 
HETATM    2  N   UNL     1      41.452 -14.686   2.059  1.00  0.00    -0.320 N 
HETATM    3  O   UNL     1      43.702 -14.988   1.570  1.00  0.00    -0.266 OA
HETATM    4  H   UNL     1      40.753 -14.932   2.757  1.00  0.00     0.169 HD
ENDROOT
BRANCH   1   5
HETATM    5  C   UNL     1      42.824 -15.891   3.695  1.00  0.00     0.352 C 
HETATM    6  F   UNL     1      41.589 -15.794   4.310  1.00  0.00    -0.190 F 
HETATM    7  F   UNL     1      43.653 -15.214   4.549  1.00  0.00    -0.190 F 
BRANCH   5   8
HETATM    8  C   UNL     1      43.205 -17.347   3.507  1.00  0.00     0.056 A 
HETATM    9  C   UNL     1      43.933 -18.055   4.472  1.00  0.00     0.081 A 
HETATM   10  C   UNL     1      44.231 -19.409   4.288  1.00  0.00     0.037 A 
HETATM   11  C   UNL     1      43.847 -20.059   3.117  1.00  0.00     0.003 A 
HETATM   12  C   UNL     1      43.155 -19.361   2.131  1.00  0.00     0.001 A 
HETATM   13  C   UNL     1      42.834 -18.017   2.326  1.00  0.00     0.017 A 
BRANCH   9  14
HETATM   14  O   UNL     1      44.278 -17.443   5.645  1.00  0.00    -0.351 OA
BRANCH  14  15
HETATM   15  C   UNL     1      43.368 -17.745   6.712  1.00  0.00     0.171 C 
HETATM   16  C   UNL     1      42.976 -16.464   7.424  1.00  0.00     0.034 C 
ENDBRANCH  14  15
ENDBRANCH   9  14
ENDBRANCH   5   8
ENDBRANCH   1   5
BRANCH   2  17
HETATM   17  C   UNL     1      41.020 -13.911   0.964  1.00  0.00     0.053 A 
HETATM   18  C   UNL     1      41.227 -12.535   0.824  1.00  0.00     0.148 A 
HETATM   19  N   UNL     1      40.796 -11.760  -0.210  1.00  0.00    -0.239 NA
HETATM   20  C   UNL     1      40.125 -12.464  -1.138  1.00  0.00     0.156 A 
HETATM   21  C   UNL     1      39.854 -13.820  -1.138  1.00  0.00     0.039 A 
HETATM   22  N   UNL     1      39.568 -11.971  -2.281  1.00  0.00    -0.260 N 
HETATM   23  C   UNL     1      40.312 -14.577  -0.046  1.00  0.00     0.048 A 
HETATM   24  C   UNL     1      39.141 -14.042  -2.346  1.00  0.00     0.065 A 
HETATM   25  N   UNL     1      38.967 -12.909  -3.043  1.00  0.00    -0.177 NA
HETATM   26  C   UNL     1      38.622 -15.330  -2.869  1.00  0.00     0.073 C 
HETATM   27  H   UNL     1      39.572 -11.008  -2.590  1.00  0.00     0.191 HD
ENDBRANCH   2  17
TORSDOF 5
ENDMDL
MODEL 3
REMARK VINA RESULT:      -8.2      1.327      2.571
REMARK  5 active torsions:
REMARK  status: ('A' for Active; 'I' for Inactive)
REMARK    1  A    between atoms: C_2  and  O_3 
REMARK    2  A    between atoms: O_3  and  C_4 
REMARK    3  A    between atoms: C_5  and  C_6 
REMARK    4  A    between atoms: C_6  and  C_9 
REMARK       I    between atoms: C_9  and  N_10 
REMARK    5  A    between atoms: N_10  and  C_11 
ROOT
HETATM    1  C   UNL     1      41.592 -15.719   1.821  1.00  0.00     0.300 C 
HETATM    2  N   UNL     1      41.694 -14.644   0.935  1.00  0.00    -0.320 N 
HETATM    3  O   UNL     1      40.534 -16.127   2.294  1.00  0.00    -0.266 OA
HETATM    4  H   UNL     1      42.643 -14.397   0.660  1.00  0.00     0.169 HD
ENDROOT
BRANCH   1   5
HETATM    5  C   UNL     1      42.989 -16.348   2.130  1.00  0.00     0.352 C 
HETATM    6  F   UNL     1      43.951 -15.607   1.468  1.00  0.00    -0.190 F 
HETATM    7  F   UNL     1      43.089 -17.583   1.547  1.00  0.00    -0.190 F 
BRANCH   5   8
HETATM    8  C   UNL     1      43.265 -16.357   3.621  1.00  0.00     0.056 A 
HETATM    9  C   UNL     1      43.193 -15.194   4.398  1.00  0.00     0.081 A 
HETATM   10  C   UNL     1      43.410 -15.245   5.779  1.00  0.00     0.037 A 
HETATM   11  C   UNL     1      43.752 -16.449   6.392  1.00  0.00     0.003 A 
HETATM   12  C   UNL     1      43.865 -17.607   5.629  1.00  0.00     0.001 A 
HETATM   13  C   UNL     1      43.621 -17.563   4.255  1.00  0.00     0.017 A 
BRANCH   9  14
HETATM   14  O   UNL     1      42.815 -14.015   3.819  1.00  0.00    -0.351 OA
BRANCH  14  15
HETATM   15  C   UNL     1      42.095 -13.163   4.721  1.00  0.00     0.171 C 
HETATM   16  C   UNL     1      40.603 -13.353   4.519  1.00  0.00     0.034 C 
ENDBRANCH  14  15
ENDBRANCH   9  14
ENDBRANCH   5   8
ENDBRANCH   1   5
BRANCH   2  17
HETATM   17  C   UNL     1      40.646 -13.888   0.371  1.00  0.00     0.053 A 
HETATM   18  C   UNL     1      40.127 -12.708   0.914  1.00  0.00     0.148 A 
HETATM   19  N   UNL     1      39.097 -11.977   0.404  1.00  0.00    -0.239 NA
HETATM   20  C   UNL     1      38.598 -12.505  -0.727  1.00  0.00     0.156 A 
HETATM   21  C   UNL     1      39.014 -13.652  -1.379  1.00  0.00     0.039 A 
HETATM   22  N   UNL     1      37.565 -12.008  -1.465  1.00  0.00    -0.260 N 
HETATM   23  C   UNL     1      40.074 -14.378  -0.811  1.00  0.00     0.048 A 
HETATM   24  C   UNL     1      38.169 -13.741  -2.517  1.00  0.00     0.065 A 
HETATM   25  N   UNL     1      37.283 -12.735  -2.567  1.00  0.00    -0.177 NA
HETATM   26  C   UNL     1      38.192 -14.772  -3.585  1.00  0.00     0.073 C 
HETATM   27  H   UNL     1      37.022 -11.179  -1.265  1.00  0.00     0.191 HD
ENDBRANCH   2  17
TORSDOF 5
ENDMDL
MODEL 4
REMARK VINA RESULT:      -8.2      3.848      4.925
REMARK  5 active torsions:
REMARK  status: ('A' for Active; 'I' for Inactive)
REMARK    1  A    between atoms: C_2  and  O_3 
REMARK    2  A    between atoms: O_3  and  C_4 
REMARK    3  A    between atoms: C_5  and  C_6 
REMARK    4  A    between atoms: C_6  and  C_9 
REMARK       I    between atoms: C_9  and  N_10 
REMARK    5  A    between atoms: N_10  and  C_11 
ROOT
HETATM    1  C   UNL     1      41.568 -15.637   3.057  1.00  0.00     0.300 C 
HETATM    2  N   UNL     1      41.884 -14.491   3.791  1.00  0.00    -0.320 N 
HETATM    3  O   UNL     1      40.443 -16.127   2.990  1.00  0.00    -0.266 OA
HETATM    4  H   UNL     1      42.867 -14.228   3.783  1.00  0.00     0.169 HD
ENDROOT
BRANCH   1   5
HETATM    5  C   UNL     1      42.820 -16.216   2.323  1.00  0.00     0.352 C 
HETATM    6  F   UNL     1      43.838 -15.283   2.404  1.00  0.00    -0.190 F 
HETATM    7  F   UNL     1      42.580 -16.301   0.977  1.00  0.00    -0.190 F 
BRANCH   5   8
HETATM    8  C   UNL     1      43.259 -17.528   2.944  1.00  0.00     0.056 A 
HETATM    9  C   UNL     1      43.786 -17.598   4.239  1.00  0.00     0.081 A 
HETATM   10  C   UNL     1      44.141 -18.830   4.799  1.00  0.00     0.037 A 
HETATM   11  C   UNL     1      44.018 -20.001   4.053  1.00  0.00     0.003 A 
HETATM   12  C   UNL     1      43.531 -19.946   2.751  1.00  0.00     0.001 A 
HETATM   13  C   UNL     1      43.151 -18.720   2.201  1.00  0.00     0.017 A 
BRANCH   9  14
HETATM   14  O   UNL     1      43.870 -16.465   4.999  1.00  0.00    -0.351 OA
BRANCH  14  15
HETATM   15  C   UNL     1      44.172 -16.743   6.374  1.00  0.00     0.171 C 
HETATM   16  C   UNL     1      43.070 -16.191   7.258  1.00  0.00     0.034 C 
ENDBRANCH  14  15
ENDBRANCH   9  14
ENDBRANCH   5   8
ENDBRANCH   1   5
BRANCH   2  17
HETATM   17  C   UNL     1      41.004 -13.659   4.511  1.00  0.00     0.053 A 
HETATM   18  C   UNL     1      40.489 -13.943   5.780  1.00  0.00     0.148 A 
HETATM   19  N   UNL     1      39.615 -13.170   6.483  1.00  0.00    -0.239 NA
HETATM   20  C   UNL     1      39.275 -12.047   5.827  1.00  0.00     0.156 A 
HETATM   21  C   UNL     1      39.709 -11.632   4.580  1.00  0.00     0.039 A 
HETATM   22  N   UNL     1      38.420 -11.080   6.266  1.00  0.00    -0.260 N 
HETATM   23  C   UNL     1      40.603 -12.468   3.889  1.00  0.00     0.048 A 
HETATM   24  C   UNL     1      39.063 -10.385   4.374  1.00  0.00     0.065 A 
HETATM   25  N   UNL     1      38.274 -10.050   5.407  1.00  0.00    -0.177 NA
HETATM   26  C   UNL     1      39.188  -9.481   3.204  1.00  0.00     0.073 C 
HETATM   27  H   UNL     1      37.914 -11.072   7.142  1.00  0.00     0.191 HD
ENDBRANCH   2  17
TORSDOF 5
ENDMDL
MODEL 5
REMARK VINA RESULT:      -8.1      4.155      6.268
REMARK  5 active torsions:
REMARK  status: ('A' for Active; 'I' for Inactive)
REMARK    1  A    between atoms: C_2  and  O_3 
REMARK    2  A    between atoms: O_3  and  C_4 
REMARK    3  A    between atoms: C_5  and  C_6 
REMARK    4  A    between atoms: C_6  and  C_9 
REMARK       I    between atoms: C_9  and  N_10 
REMARK    5  A    between atoms: N_10  and  C_11 
ROOT
HETATM    1  C   UNL     1      42.098 -15.596   3.467  1.00  0.00     0.300 C 
HETATM    2  N   UNL     1      42.824 -14.442   3.772  1.00  0.00    -0.320 N 
HETATM    3  O   UNL     1      41.030 -15.901   3.994  1.00  0.00    -0.266 OA
HETATM    4  H   UNL     1      43.710 -14.344   3.282  1.00  0.00     0.169 HD
ENDROOT
BRANCH   1   5
HETATM    5  C   UNL     1      42.804 -16.448   2.363  1.00  0.00     0.352 C 
HETATM    6  F   UNL     1      43.890 -15.730   1.894  1.00  0.00    -0.190 F 
HETATM    7  F   UNL     1      41.998 -16.553   1.261  1.00  0.00    -0.190 F 
BRANCH   5   8
HETATM    8  C   UNL     1      43.256 -17.787   2.913  1.00  0.00     0.056 A 
HETATM    9  C   UNL     1      43.931 -17.899   4.135  1.00  0.00     0.081 A 
HETATM   10  C   UNL     1      44.295 -19.154   4.635  1.00  0.00     0.037 A 
HETATM   11  C   UNL     1      44.033 -20.306   3.897  1.00  0.00     0.003 A 
HETATM   12  C   UNL     1      43.396 -20.210   2.664  1.00  0.00     0.001 A 
HETATM   13  C   UNL     1      43.007 -18.961   2.176  1.00  0.00     0.017 A 
BRANCH   9  14
HETATM   14  O   UNL     1      44.155 -16.783   4.891  1.00  0.00    -0.351 OA
BRANCH  14  15
HETATM   15  C   UNL     1      44.164 -17.061   6.298  1.00  0.00     0.171 C 
HETATM   16  C   UNL     1      42.893 -16.525   6.931  1.00  0.00     0.034 C 
ENDBRANCH  14  15
ENDBRANCH   9  14
ENDBRANCH   5   8
ENDBRANCH   1   5
BRANCH   2  17
HETATM   17  C   UNL     1      42.461 -13.404   4.654  1.00  0.00     0.053 A 
HETATM   18  C   UNL     1      41.180 -12.852   4.761  1.00  0.00     0.148 A 
HETATM   19  N   UNL     1      40.812 -11.831   5.583  1.00  0.00    -0.239 NA
HETATM   20  C   UNL     1      41.832 -11.376   6.330  1.00  0.00     0.156 A 
HETATM   21  C   UNL     1      43.141 -11.827   6.339  1.00  0.00     0.039 A 
HETATM   22  N   UNL     1      41.780 -10.362   7.240  1.00  0.00    -0.260 N 
HETATM   23  C   UNL     1      43.474 -12.877   5.466  1.00  0.00     0.048 A 
HETATM   24  C   UNL     1      43.789 -11.021   7.312  1.00  0.00     0.065 A 
HETATM   25  N   UNL     1      42.955 -10.126   7.861  1.00  0.00    -0.177 NA
HETATM   26  C   UNL     1      45.205 -11.091   7.749  1.00  0.00     0.073 C 
HETATM   27  H   UNL     1      40.971  -9.803   7.478  1.00  0.00     0.191 HD
ENDBRANCH   2  17
TORSDOF 5
ENDMDL
MODEL 6
REMARK VINA RESULT:      -7.9      5.275      8.037
REMARK  5 active torsions:
REMARK  status: ('A' for Active; 'I' for Inactive)
REMARK    1  A    between atoms: C_2  and  O_3 
REMARK    2  A    between atoms: O_3  and  C_4 
REMARK    3  A    between atoms: C_5  and  C_6 
REMARK    4  A    between atoms: C_6  and  C_9 
REMARK       I    between atoms: C_9  and  N_10 
REMARK    5  A    between atoms: N_10  and  C_11 
ROOT
HETATM    1  C   UNL     1      41.644 -12.587   5.107  1.00  0.00     0.300 C 
HETATM    2  N   UNL     1      42.275 -12.566   6.353  1.00  0.00    -0.320 N 
HETATM    3  O   UNL     1      41.894 -11.805   4.192  1.00  0.00    -0.266 OA
HETATM    4  H   UNL     1      41.933 -13.252   7.023  1.00  0.00     0.169 HD
ENDROOT
BRANCH   1   5
HETATM    5  C   UNL     1      40.588 -13.735   5.011  1.00  0.00     0.352 C 
HETATM    6  F   UNL     1      39.439 -13.217   4.440  1.00  0.00    -0.190 F 
HETATM    7  F   UNL     1      40.175 -14.102   6.265  1.00  0.00    -0.190 F 
BRANCH   5   8
HETATM    8  C   UNL     1      41.112 -14.892   4.183  1.00  0.00     0.056 A 
HETATM    9  C   UNL     1      42.179 -15.691   4.613  1.00  0.00     0.081 A 
HETATM   10  C   UNL     1      42.610 -16.778   3.846  1.00  0.00     0.037 A 
HETATM   11  C   UNL     1      42.012 -17.049   2.617  1.00  0.00     0.003 A 
HETATM   12  C   UNL     1      40.976 -16.243   2.156  1.00  0.00     0.001 A 
HETATM   13  C   UNL     1      40.527 -15.174   2.934  1.00  0.00     0.017 A 
BRANCH   9  14
HETATM   14  O   UNL     1      42.745 -15.465   5.837  1.00  0.00    -0.351 OA
BRANCH  14  15
HETATM   15  C   UNL     1      43.953 -16.214   6.033  1.00  0.00     0.171 C 
HETATM   16  C   UNL     1      43.935 -16.857   7.408  1.00  0.00     0.034 C 
ENDBRANCH  14  15
ENDBRANCH   9  14
ENDBRANCH   5   8
ENDBRANCH   1   5
BRANCH   2  17
HETATM   17  C   UNL     1      43.328 -11.729   6.773  1.00  0.00     0.053 A 
HETATM   18  C   UNL     1      44.687 -12.056   6.707  1.00  0.00     0.148 A 
HETATM   19  N   UNL     1      45.720 -11.277   7.132  1.00  0.00    -0.239 NA
HETATM   20  C   UNL     1      45.307 -10.102   7.639  1.00  0.00     0.156 A 
HETATM   21  C   UNL     1      44.008  -9.643   7.758  1.00  0.00     0.039 A 
HETATM   22  N   UNL     1      46.101  -9.117   8.147  1.00  0.00    -0.260 N 
HETATM   23  C   UNL     1      42.975 -10.486   7.314  1.00  0.00     0.048 A 
HETATM   24  C   UNL     1      44.137  -8.352   8.336  1.00  0.00     0.065 A 
HETATM   25  N   UNL     1      45.419  -8.033   8.574  1.00  0.00    -0.177 NA
HETATM   26  C   UNL     1      43.054  -7.392   8.663  1.00  0.00     0.073 C 
HETATM   27  H   UNL     1      47.109  -9.130   8.223  1.00  0.00     0.191 HD
ENDBRANCH   2  17
TORSDOF 5
ENDMDL
MODEL 7
REMARK VINA RESULT:      -7.8      1.454      2.210
REMARK  5 active torsions:
REMARK  status: ('A' for Active; 'I' for Inactive)
REMARK    1  A    between atoms: C_2  and  O_3 
REMARK    2  A    between atoms: O_3  and  C_4 
REMARK    3  A    between atoms: C_5  and  C_6 
REMARK    4  A    between atoms: C_6  and  C_9 
REMARK       I    between atoms: C_9  and  N_10 
REMARK    5  A    between atoms: N_10  and  C_11 
ROOT
HETATM    1  C   UNL     1      41.465 -15.095   1.394  1.00  0.00     0.300 C 
HETATM    2  N   UNL     1      41.417 -14.159   0.357  1.00  0.00    -0.320 N 
HETATM    3  O   UNL     1      40.477 -15.642   1.878  1.00  0.00    -0.266 OA
HETATM    4  H   UNL     1      42.315 -13.762   0.089  1.00  0.00     0.169 HD
ENDROOT
BRANCH   1   5
HETATM    5  C   UNL     1      42.932 -15.368   1.858  1.00  0.00     0.352 C 
HETATM    6  F   UNL     1      43.663 -14.207   1.684  1.00  0.00    -0.190 F 
HETATM    7  F   UNL     1      43.540 -16.251   1.006  1.00  0.00    -0.190 F 
BRANCH   5   8
HETATM    8  C   UNL     1      42.973 -15.803   3.311  1.00  0.00     0.056 A 
HETATM    9  C   UNL     1      42.906 -17.150   3.686  1.00  0.00     0.081 A 
HETATM   10  C   UNL     1      42.991 -17.520   5.033  1.00  0.00     0.037 A 
HETATM   11  C   UNL     1      43.094 -16.545   6.022  1.00  0.00     0.003 A 
HETATM   12  C   UNL     1      43.124 -15.199   5.670  1.00  0.00     0.001 A 
HETATM   13  C   UNL     1      43.067 -14.830   4.325  1.00  0.00     0.017 A 
BRANCH   9  14
HETATM   14  O   UNL     1      42.851 -18.120   2.724  1.00  0.00    -0.351 OA
BRANCH  14  15
HETATM   15  C   UNL     1      43.873 -19.114   2.883  1.00  0.00     0.171 C 
HETATM   16  C   UNL     1      43.597 -20.281   1.953  1.00  0.00     0.034 C 
ENDBRANCH  14  15
ENDBRANCH   9  14
ENDBRANCH   5   8
ENDBRANCH   1   5
BRANCH   2  17
HETATM   17  C   UNL     1      40.285 -13.727  -0.362  1.00  0.00     0.053 A 
HETATM   18  C   UNL     1      39.614 -14.481  -1.331  1.00  0.00     0.148 A 
HETATM   19  N   UNL     1      38.537 -14.075  -2.059  1.00  0.00    -0.239 NA
HETATM   20  C   UNL     1      38.143 -12.828  -1.748  1.00  0.00     0.156 A 
HETATM   21  C   UNL     1      38.700 -11.975  -0.811  1.00  0.00     0.039 A 
HETATM   22  N   UNL     1      37.103 -12.145  -2.305  1.00  0.00    -0.260 N 
HETATM   23  C   UNL     1      39.815 -12.435  -0.092  1.00  0.00     0.048 A 
HETATM   24  C   UNL     1      37.898 -10.805  -0.874  1.00  0.00     0.065 A 
HETATM   25  N   UNL     1      36.922 -10.911  -1.789  1.00  0.00    -0.177 NA
HETATM   26  C   UNL     1      38.031  -9.569  -0.063  1.00  0.00     0.073 C 
HETATM   27  H   UNL     1      36.484 -12.474  -3.035  1.00  0.00     0.191 HD
ENDBRANCH   2  17
TORSDOF 5
ENDMDL
MODEL 8
REMARK VINA RESULT:      -7.7      1.913      3.229
REMARK  5 active torsions:
REMARK  status: ('A' for Active; 'I' for Inactive)
REMARK    1  A    between atoms: C_2  and  O_3 
REMARK    2  A    between atoms: O_3  and  C_4 
REMARK    3  A    between atoms: C_5  and  C_6 
REMARK    4  A    between atoms: C_6  and  C_9 
REMARK       I    between atoms: C_9  and  N_10 
REMARK    5  A    between atoms: N_10  and  C_11 
ROOT
HETATM    1  C   UNL     1      42.122 -14.641   2.477  1.00  0.00     0.300 C 
HETATM    2  N   UNL     1      40.757 -14.671   2.178  1.00  0.00    -0.320 N 
HETATM    3  O   UNL     1      42.977 -14.133   1.754  1.00  0.00    -0.266 OA
HETATM    4  H   UNL     1      40.176 -15.161   2.854  1.00  0.00     0.169 HD
ENDROOT
BRANCH   1   5
HETATM    5  C   UNL     1      42.428 -15.322   3.849  1.00  0.00     0.352 C 
HETATM    6  F   UNL     1      41.252 -15.378   4.575  1.00  0.00    -0.190 F 
HETATM    7  F   UNL     1      43.227 -14.512   4.611  1.00  0.00    -0.190 F 
BRANCH   5   8
HETATM    8  C   UNL     1      42.992 -16.716   3.652  1.00  0.00     0.056 A 
HETATM    9  C   UNL     1      43.847 -17.312   4.588  1.00  0.00     0.081 A 
HETATM   10  C   UNL     1      44.314 -18.616   4.398  1.00  0.00     0.037 A 
HETATM   11  C   UNL     1      43.973 -19.323   3.247  1.00  0.00     0.003 A 
HETATM   12  C   UNL     1      43.154 -18.733   2.288  1.00  0.00     0.001 A 
HETATM   13  C   UNL     1      42.665 -17.441   2.490  1.00  0.00     0.017 A 
BRANCH   9  14
HETATM   14  O   UNL     1      44.155 -16.648   5.743  1.00  0.00    -0.351 OA
BRANCH  14  15
HETATM   15  C   UNL     1      43.396 -17.117   6.868  1.00  0.00     0.171 C 
HETATM   16  C   UNL     1      42.826 -15.933   7.626  1.00  0.00     0.034 C 
ENDBRANCH  14  15
ENDBRANCH   9  14
ENDBRANCH   5   8
ENDBRANCH   1   5
BRANCH   2  17
HETATM   17  C   UNL     1      40.104 -14.088   1.073  1.00  0.00     0.053 A 
HETATM   18  C   UNL     1      39.967 -14.686  -0.184  1.00  0.00     0.148 A 
HETATM   19  N   UNL     1      39.366 -14.132  -1.274  1.00  0.00    -0.239 NA
HETATM   20  C   UNL     1      38.882 -12.902  -1.028  1.00  0.00     0.156 A 
HETATM   21  C   UNL     1      38.935 -12.195   0.160  1.00  0.00     0.039 A 
HETATM   22  N   UNL     1      38.236 -12.095  -1.916  1.00  0.00    -0.260 N 
HETATM   23  C   UNL     1      39.573 -12.804   1.254  1.00  0.00     0.048 A 
HETATM   24  C   UNL     1      38.268 -10.973  -0.123  1.00  0.00     0.065 A 
HETATM   25  N   UNL     1      37.842 -10.914  -1.394  1.00  0.00    -0.177 NA
HETATM   26  C   UNL     1      38.011  -9.845   0.806  1.00  0.00     0.073 C 
HETATM   27  H   UNL     1      38.034 -12.300  -2.886  1.00  0.00     0.191 HD
ENDBRANCH   2  17
TORSDOF 5
ENDMDL
MODEL 9
REMARK VINA RESULT:      -7.6      3.096      4.608
REMARK  5 active torsions:
REMARK  status: ('A' for Active; 'I' for Inactive)
REMARK    1  A    between atoms: C_2  and  O_3 
REMARK    2  A    between atoms: O_3  and  C_4 
REMARK    3  A    between atoms: C_5  and  C_6 
REMARK    4  A    between atoms: C_6  and  C_9 
REMARK       I    between atoms: C_9  and  N_10 
REMARK    5  A    between atoms: N_10  and  C_11 
ROOT
HETATM    1  C   UNL     1      41.392 -14.484   5.175  1.00  0.00     0.300 C 
HETATM    2  N   UNL     1      40.078 -14.112   4.879  1.00  0.00    -0.320 N 
HETATM    3  O   UNL     1      42.358 -13.727   5.104  1.00  0.00    -0.266 OA
HETATM    4  H   UNL     1      39.390 -14.859   4.946  1.00  0.00     0.169 HD
ENDROOT
BRANCH   1   5
HETATM    5  C   UNL     1      41.483 -15.979   5.621  1.00  0.00     0.352 C 
HETATM    6  F   UNL     1      40.198 -16.485   5.696  1.00  0.00    -0.190 F 
HETATM    7  F   UNL     1      41.927 -16.060   6.914  1.00  0.00    -0.190 F 
BRANCH   5   8
HETATM    8  C   UNL     1      42.312 -16.790   4.643  1.00  0.00     0.056 A 
HETATM    9  C   UNL     1      42.045 -16.796   3.269  1.00  0.00     0.081 A 
HETATM   10  C   UNL     1      42.856 -17.520   2.388  1.00  0.00     0.037 A 
HETATM   11  C   UNL     1      43.912 -18.286   2.877  1.00  0.00     0.003 A 
HETATM   12  C   UNL     1      44.169 -18.321   4.244  1.00  0.00     0.001 A 
HETATM   13  C   UNL     1      43.378 -17.577   5.121  1.00  0.00     0.017 A 
BRANCH   9  14
HETATM   14  O   UNL     1      41.041 -16.015   2.770  1.00  0.00    -0.351 OA
BRANCH  14  15
HETATM   15  C   UNL     1      41.336 -15.504   1.462  1.00  0.00     0.171 C 
HETATM   16  C   UNL     1      42.011 -14.150   1.585  1.00  0.00     0.034 C 
ENDBRANCH  14  15
ENDBRANCH   9  14
ENDBRANCH   5   8
ENDBRANCH   1   5
BRANCH   2  17
HETATM   17  C   UNL     1      39.604 -12.833   4.524  1.00  0.00     0.053 A 
HETATM   18  C   UNL     1      39.547 -11.731   5.383  1.00  0.00     0.148 A 
HETATM   19  N   UNL     1      39.067 -10.495   5.072  1.00  0.00    -0.239 NA
HETATM   20  C   UNL     1      38.636 -10.413   3.802  1.00  0.00     0.156 A 
HETATM   21  C   UNL     1      38.638 -11.410   2.842  1.00  0.00     0.039 A 
HETATM   22  N   UNL     1      38.099  -9.315   3.199  1.00  0.00    -0.260 N 
HETATM   23  C   UNL     1      39.135 -12.671   3.213  1.00  0.00     0.048 A 
HETATM   24  C   UNL     1      38.095 -10.792   1.684  1.00  0.00     0.065 A 
HETATM   25  N   UNL     1      37.765  -9.510   1.905  1.00  0.00    -0.177 NA
HETATM   26  C   UNL     1      37.890 -11.397   0.345  1.00  0.00     0.073 C 
HETATM   27  H   UNL     1      37.941  -8.409   3.620  1.00  0.00     0.191 HD
ENDBRANCH   2  17
TORSDOF 5
ENDMDL
MODEL 10
REMARK VINA RESULT:      -7.5      3.084      4.487
REMARK  5 active torsions:
REMARK  status: ('A' for Active; 'I' for Inactive)
REMARK    1  A    between atoms: C_2  and  O_3 
REMARK    2  A    between atoms: O_3  and  C_4 
REMARK    3  A    between atoms: C_5  and  C_6 
REMARK    4  A    between atoms: C_6  and  C_9 
REMARK       I    between atoms: C_9  and  N_10 
REMARK    5  A    between atoms: N_10  and  C_11 
ROOT
HETATM    1  C   UNL     1      41.989 -13.987   2.447  1.00  0.00     0.300 C 
HETATM    2  N   UNL     1      40.632 -13.893   2.766  1.00  0.00    -0.320 N 
HETATM    3  O   UNL     1      42.737 -13.021   2.314  1.00  0.00    -0.266 OA
HETATM    4  H   UNL     1      40.133 -14.779   2.803  1.00  0.00     0.169 HD
ENDROOT
BRANCH   1   5
HETATM    5  C   UNL     1      42.445 -15.473   2.289  1.00  0.00     0.352 C 
HETATM    6  F   UNL     1      43.425 -15.522   1.314  1.00  0.00    -0.190 F 
HETATM    7  F   UNL     1      41.432 -16.223   1.752  1.00  0.00    -0.190 F 
BRANCH   5   8
HETATM    8  C   UNL     1      42.977 -16.023   3.599  1.00  0.00     0.056 A 
HETATM    9  C   UNL     1      43.298 -17.376   3.762  1.00  0.00     0.081 A 
HETATM   10  C   UNL     1      43.828 -17.843   4.969  1.00  0.00     0.037 A 
HETATM   11  C   UNL     1      43.998 -16.972   6.043  1.00  0.00     0.003 A 
HETATM   12  C   UNL     1      43.650 -15.631   5.911  1.00  0.00     0.001 A 
HETATM   13  C   UNL     1      43.146 -15.159   4.698  1.00  0.00     0.017 A 
BRANCH   9  14
HETATM   14  O   UNL     1      43.179 -18.233   2.703  1.00  0.00    -0.351 OA
BRANCH  14  15
HETATM   15  C   UNL     1      43.948 -19.432   2.874  1.00  0.00     0.171 C 
HETATM   16  C   UNL     1      43.571 -20.436   1.801  1.00  0.00     0.034 C 
ENDBRANCH  14  15
ENDBRANCH   9  14
ENDBRANCH   5   8
ENDBRANCH   1   5
BRANCH   2  17
HETATM   17  C   UNL     1      39.894 -12.729   3.059  1.00  0.00     0.053 A 
HETATM   18  C   UNL     1      39.252 -11.926   2.110  1.00  0.00     0.148 A 
HETATM   19  N   UNL     1      38.558 -10.782   2.365  1.00  0.00    -0.239 NA
HETATM   20  C   UNL     1      38.532 -10.474   3.673  1.00  0.00     0.156 A 
HETATM   21  C   UNL     1      39.109 -11.174   4.718  1.00  0.00     0.039 A 
HETATM   22  N   UNL     1      37.924  -9.393   4.238  1.00  0.00    -0.260 N 
HETATM   23  C   UNL     1      39.822 -12.344   4.405  1.00  0.00     0.048 A 
HETATM   24  C   UNL     1      38.766 -10.430   5.878  1.00  0.00     0.065 A 
HETATM   25  N   UNL     1      38.042  -9.340   5.582  1.00  0.00    -0.177 NA
HETATM   26  C   UNL     1      39.107 -10.741   7.288  1.00  0.00     0.073 C 
HETATM   27  H   UNL     1      37.413  -8.664   3.756  1.00  0.00     0.191 HD
ENDBRANCH   2  17
TORSDOF 5
ENDMDL
