MODEL 1
REMARK VINA RESULT:      -8.8      0.000      0.000
REMARK  7 active torsions:
REMARK  status: ('A' for Active; 'I' for Inactive)
REMARK    1  A    between atoms: C_3  and  C_4 
REMARK    2  A    between atoms: C_6  and  O_7 
REMARK    3  A    between atoms: C_9  and  O_10 
REMARK    4  A    between atoms: O_10  and  C_11 
REMARK    5  A    between atoms: C_11  and  C_12 
REMARK       I    between atoms: C_12  and  N_13 
REMARK    6  A    between atoms: N_13  and  N_14 
REMARK       I    between atoms: N_14  and  C_15 
REMARK    7  A    between atoms: C_15  and  C_16 
ROOT
HETATM    1  C   UNL     1      45.226 -11.528   6.850  1.00  0.00     0.260 C 
HETATM    2  N   UNL     1      44.212 -12.441   7.060  1.00  0.00    -0.265 N 
HETATM    3  O   UNL     1      45.836 -11.438   5.783  1.00  0.00    -0.269 OA
HETATM    4  H   UNL     1      43.595 -12.363   7.869  1.00  0.00     0.190 HD
ENDROOT
BRANCH   2   5
HETATM    5  N   UNL     1      43.752 -13.183   5.970  1.00  0.00    -0.263 N 
HETATM    6  C   UNL     1      43.298 -14.471   6.162  1.00  0.00     0.272 C 
HETATM    7  O   UNL     1      43.396 -15.046   7.245  1.00  0.00    -0.266 OA
HETATM    8  H   UNL     1      43.702 -12.707   5.076  1.00  0.00     0.190 HD
BRANCH   6   9
HETATM    9  C   UNL     1      42.760 -15.119   4.968  1.00  0.00     0.061 A 
HETATM   10  C   UNL     1      43.131 -16.345   4.312  1.00  0.00     0.008 A 
HETATM   11  C   UNL     1      42.244 -16.537   3.242  1.00  0.00     0.045 A 
HETATM   12  C   UNL     1      44.147 -17.311   4.513  1.00  0.00     0.015 A 
HETATM   13  C   UNL     1      42.305 -17.675   2.418  1.00  0.00     0.030 A 
HETATM   14  N   UNL     1      41.410 -15.442   3.210  1.00  0.00    -0.359 N 
HETATM   15  C   UNL     1      43.297 -18.626   2.666  1.00  0.00     0.002 A 
HETATM   16  C   UNL     1      44.212 -18.444   3.694  1.00  0.00     0.001 A 
HETATM   17  C   UNL     1      40.355 -15.186   2.255  1.00  0.00     0.156 C 
HETATM   18  C   UNL     1      41.723 -14.581   4.226  1.00  0.00     0.108 A 
ENDBRANCH   6   9
ENDBRANCH   2   5
BRANCH   1  19
HETATM   19  C   UNL     1      45.487 -10.594   8.028  1.00  0.00     0.280 C 
BRANCH  19  20
HETATM   20  O   UNL     1      44.451  -9.621   8.124  1.00  0.00    -0.339 OA
BRANCH  20  21
HETATM   21  C   UNL     1      43.988  -9.395   9.397  1.00  0.00     0.102 A 
HETATM   22  C   UNL     1      43.623  -8.078   9.724  1.00  0.00     0.102 A 
HETATM   23  C   UNL     1      43.201  -7.786  11.027  1.00  0.00     0.051 A 
HETATM   24  C   UNL     1      43.123  -8.795  11.995  1.00  0.00    -0.034 A 
HETATM   25  C   UNL     1      43.495 -10.101  11.658  1.00  0.00     0.014 A 
HETATM   26  C   UNL     1      43.934 -10.400  10.366  1.00  0.00     0.040 A 
BRANCH  22  27
HETATM   27  O   UNL     1      43.714  -7.156   8.710  1.00  0.00    -0.353 OA
HETATM   28  C   UNL     1      42.495  -6.677   8.159  1.00  0.00     0.210 C 
ENDBRANCH  22  27
BRANCH  24  29
HETATM   29  C   UNL     1      42.704  -8.449  13.356  1.00  0.00     0.007 C 
HETATM   30  C   UNL     1      43.068  -7.308  13.963  1.00  0.00    -0.030 C 
HETATM   31  C   UNL     1      42.662  -6.945  15.355  1.00  0.00     0.036 C 
ENDBRANCH  24  29
ENDBRANCH  20  21
ENDBRANCH  19  20
ENDBRANCH   1  19
TORSDOF 7
ENDMDL
MODEL 2
REMARK VINA RESULT:      -8.7      2.235     10.513
REMARK  7 active torsions:
REMARK  status: ('A' for Active; 'I' for Inactive)
REMARK    1  A    between atoms: C_3  and  C_4 
REMARK    2  A    between atoms: C_6  and  O_7 
REMARK    3  A    between atoms: C_9  and  O_10 
REMARK    4  A    between atoms: O_10  and  C_11 
REMARK    5  A    between atoms: C_11  and  C_12 
REMARK       I    between atoms: C_12  and  N_13 
REMARK    6  A    between atoms: N_13  and  N_14 
REMARK       I    between atoms: N_14  and  C_15 
REMARK    7  A    between atoms: C_15  and  C_16 
ROOT
HETATM    1  C   UNL     1      42.679 -11.848   6.050  1.00  0.00     0.260 C 
HETATM    2  N   UNL     1      43.552 -11.738   7.115  1.00  0.00    -0.265 N 
HETATM    3  O   UNL     1      41.517 -11.439   6.092  1.00  0.00    -0.269 OA
HETATM    4  H   UNL     1      44.552 -11.898   6.992  1.00  0.00     0.190 HD
ENDROOT
BRANCH   2   5
HETATM    5  N   UNL     1      43.152 -10.992   8.225  1.00  0.00    -0.263 N 
HETATM    6  C   UNL     1      44.097 -10.545   9.125  1.00  0.00     0.272 C 
HETATM    7  O   UNL     1      45.278 -10.885   9.058  1.00  0.00    -0.266 OA
HETATM    8  H   UNL     1      42.172 -10.742   8.284  1.00  0.00     0.190 HD
BRANCH   6   9
HETATM    9  C   UNL     1      43.576  -9.701  10.197  1.00  0.00     0.061 A 
HETATM   10  C   UNL     1      43.296  -8.290  10.235  1.00  0.00     0.008 A 
HETATM   11  C   UNL     1      42.743  -8.003  11.493  1.00  0.00     0.045 A 
HETATM   12  C   UNL     1      43.471  -7.218   9.327  1.00  0.00     0.015 A 
HETATM   13  C   UNL     1      42.314  -6.709  11.840  1.00  0.00     0.030 A 
HETATM   14  N   UNL     1      42.746  -9.177  12.211  1.00  0.00    -0.359 N 
HETATM   15  C   UNL     1      42.466  -5.682  10.907  1.00  0.00     0.002 A 
HETATM   16  C   UNL     1      43.046  -5.929   9.669  1.00  0.00     0.001 A 
HETATM   17  C   UNL     1      42.299  -9.359  13.574  1.00  0.00     0.156 C 
HETATM   18  C   UNL     1      43.260 -10.193  11.451  1.00  0.00     0.108 A 
ENDBRANCH   6   9
ENDBRANCH   2   5
BRANCH   1  19
HETATM   19  C   UNL     1      43.291 -12.461   4.794  1.00  0.00     0.280 C 
BRANCH  19  20
HETATM   20  O   UNL     1      42.265 -12.829   3.876  1.00  0.00    -0.339 OA
BRANCH  20  21
HETATM   21  C   UNL     1      42.363 -14.108   3.386  1.00  0.00     0.102 A 
HETATM   22  C   UNL     1      41.548 -15.088   3.979  1.00  0.00     0.102 A 
HETATM   23  C   UNL     1      41.655 -16.418   3.554  1.00  0.00     0.051 A 
HETATM   24  C   UNL     1      42.548 -16.773   2.535  1.00  0.00    -0.034 A 
HETATM   25  C   UNL     1      43.358 -15.789   1.957  1.00  0.00     0.014 A 
HETATM   26  C   UNL     1      43.272 -14.462   2.385  1.00  0.00     0.040 A 
BRANCH  22  27
HETATM   27  O   UNL     1      40.691 -14.650   4.958  1.00  0.00    -0.353 OA
HETATM   28  C   UNL     1      40.837 -15.223   6.251  1.00  0.00     0.210 C 
ENDBRANCH  22  27
BRANCH  24  29
HETATM   29  C   UNL     1      42.653 -18.179   2.135  1.00  0.00     0.007 C 
HETATM   30  C   UNL     1      43.602 -19.002   2.606  1.00  0.00    -0.030 C 
HETATM   31  C   UNL     1      43.732 -20.434   2.198  1.00  0.00     0.036 C 
ENDBRANCH  24  29
ENDBRANCH  20  21
ENDBRANCH  19  20
ENDBRANCH   1  19
TORSDOF 7
ENDMDL
MODEL 3
REMARK VINA RESULT:      -8.7      1.459      2.173
REMARK  7 active torsions:
REMARK  status: ('A' for Active; 'I' for Inactive)
REMARK    1  A    between atoms: C_3  and  C_4 
REMARK    2  A    between atoms: C_6  and  O_7 
REMARK    3  A    between atoms: C_9  and  O_10 
REMARK    4  A    between atoms: O_10  and  C_11 
REMARK    5  A    between atoms: C_11  and  C_12 
REMARK       I    between atoms: C_12  and  N_13 
REMARK    6  A    between atoms: N_13  and  N_14 
REMARK       I    between atoms: N_14  and  C_15 
REMARK    7  A    between atoms: C_15  and  C_16 
ROOT
HETATM    1  C   UNL     1      43.820 -11.907   6.842  1.00  0.00     0.260 C 
HETATM    2  N   UNL     1      42.951 -12.964   7.027  1.00  0.00    -0.265 N 
HETATM    3  O   UNL     1      44.865 -12.004   6.195  1.00  0.00    -0.269 OA
HETATM    4  H   UNL     1      42.010 -12.812   7.389  1.00  0.00     0.190 HD
ENDROOT
BRANCH   2   5
HETATM    5  N   UNL     1      43.186 -14.146   6.321  1.00  0.00    -0.263 N 
HETATM    6  C   UNL     1      43.104 -15.359   6.972  1.00  0.00     0.272 C 
HETATM    7  O   UNL     1      42.953 -15.440   8.191  1.00  0.00    -0.266 OA
HETATM    8  H   UNL     1      43.337 -14.064   5.322  1.00  0.00     0.190 HD
BRANCH   6   9
HETATM    9  C   UNL     1      43.281 -16.530   6.117  1.00  0.00     0.061 A 
HETATM   10  C   UNL     1      43.280 -16.660   4.684  1.00  0.00     0.008 A 
HETATM   11  C   UNL     1      43.564 -18.001   4.381  1.00  0.00     0.045 A 
HETATM   12  C   UNL     1      43.053 -15.770   3.605  1.00  0.00     0.015 A 
HETATM   13  C   UNL     1      43.682 -18.457   3.055  1.00  0.00     0.030 A 
HETATM   14  N   UNL     1      43.669 -18.670   5.579  1.00  0.00    -0.359 N 
HETATM   15  C   UNL     1      43.488 -17.545   2.016  1.00  0.00     0.002 A 
HETATM   16  C   UNL     1      43.168 -16.220   2.285  1.00  0.00     0.001 A 
HETATM   17  C   UNL     1      43.921 -20.082   5.763  1.00  0.00     0.156 C 
HETATM   18  C   UNL     1      43.482 -17.803   6.621  1.00  0.00     0.108 A 
ENDBRANCH   6   9
ENDBRANCH   2   5
BRANCH   1  19
HETATM   19  C   UNL     1      43.349 -10.590   7.451  1.00  0.00     0.280 C 
BRANCH  19  20
HETATM   20  O   UNL     1      44.367 -10.040   8.282  1.00  0.00    -0.339 OA
BRANCH  20  21
HETATM   21  C   UNL     1      43.941  -9.635   9.523  1.00  0.00     0.102 A 
HETATM   22  C   UNL     1      43.687  -8.263   9.699  1.00  0.00     0.102 A 
HETATM   23  C   UNL     1      43.307  -7.793  10.962  1.00  0.00     0.051 A 
HETATM   24  C   UNL     1      43.161  -8.676  12.039  1.00  0.00    -0.034 A 
HETATM   25  C   UNL     1      43.423 -10.038  11.852  1.00  0.00     0.014 A 
HETATM   26  C   UNL     1      43.818 -10.516  10.601  1.00  0.00     0.040 A 
BRANCH  22  27
HETATM   27  O   UNL     1      43.839  -7.473   8.587  1.00  0.00    -0.353 OA
HETATM   28  C   UNL     1      42.661  -6.908   8.028  1.00  0.00     0.210 C 
ENDBRANCH  22  27
BRANCH  24  29
HETATM   29  C   UNL     1      42.789  -8.145  13.354  1.00  0.00     0.007 C 
HETATM   30  C   UNL     1      41.913  -8.756  14.166  1.00  0.00    -0.030 C 
HETATM   31  C   UNL     1      41.512  -8.221  15.503  1.00  0.00     0.036 C 
ENDBRANCH  24  29
ENDBRANCH  20  21
ENDBRANCH  19  20
ENDBRANCH   1  19
TORSDOF 7
ENDMDL
MODEL 4
REMARK VINA RESULT:      -8.6      2.606      9.800
REMARK  7 active torsions:
REMARK  status: ('A' for Active; 'I' for Inactive)
REMARK    1  A    between atoms: C_3  and  C_4 
REMARK    2  A    between atoms: C_6  and  O_7 
REMARK    3  A    between atoms: C_9  and  O_10 
REMARK    4  A    between atoms: O_10  and  C_11 
REMARK    5  A    between atoms: C_11  and  C_12 
REMARK       I    between atoms: C_12  and  N_13 
REMARK    6  A    between atoms: N_13  and  N_14 
REMARK       I    between atoms: N_14  and  C_15 
REMARK    7  A    between atoms: C_15  and  C_16 
ROOT
HETATM    1  C   UNL     1      42.810 -11.375   3.752  1.00  0.00     0.260 C 
HETATM    2  N   UNL     1      41.757 -11.188   4.625  1.00  0.00    -0.265 N 
HETATM    3  O   UNL     1      43.984 -11.175   4.066  1.00  0.00    -0.269 OA
HETATM    4  H   UNL     1      40.826 -11.546   4.410  1.00  0.00     0.190 HD
ENDROOT
BRANCH   2   5
HETATM    5  N   UNL     1      42.047 -10.916   5.964  1.00  0.00    -0.263 N 
HETATM    6  C   UNL     1      41.828  -9.651   6.467  1.00  0.00     0.272 C 
HETATM    7  O   UNL     1      41.501  -8.707   5.749  1.00  0.00    -0.266 OA
HETATM    8  H   UNL     1      42.343 -11.696   6.539  1.00  0.00     0.190 HD
BRANCH   6   9
HETATM    9  C   UNL     1      42.083  -9.504   7.899  1.00  0.00     0.061 A 
HETATM   10  C   UNL     1      43.292  -9.670   8.662  1.00  0.00     0.008 A 
HETATM   11  C   UNL     1      42.998  -9.341   9.995  1.00  0.00     0.045 A 
HETATM   12  C   UNL     1      44.612 -10.081   8.357  1.00  0.00     0.015 A 
HETATM   13  C   UNL     1      43.981  -9.355  11.000  1.00  0.00     0.030 A 
HETATM   14  N   UNL     1      41.653  -9.049  10.049  1.00  0.00    -0.359 N 
HETATM   15  C   UNL     1      45.281  -9.730  10.657  1.00  0.00     0.002 A 
HETATM   16  C   UNL     1      45.592 -10.098   9.355  1.00  0.00     0.001 A 
HETATM   17  C   UNL     1      40.893  -8.688  11.225  1.00  0.00     0.156 C 
HETATM   18  C   UNL     1      41.095  -9.164   8.805  1.00  0.00     0.108 A 
ENDBRANCH   6   9
ENDBRANCH   2   5
BRANCH   1  19
HETATM   19  C   UNL     1      42.404 -11.911   2.382  1.00  0.00     0.280 C 
BRANCH  19  20
HETATM   20  O   UNL     1      41.404 -12.916   2.523  1.00  0.00    -0.339 OA
BRANCH  20  21
HETATM   21  C   UNL     1      41.884 -14.202   2.569  1.00  0.00     0.102 A 
HETATM   22  C   UNL     1      41.626 -14.943   3.735  1.00  0.00     0.102 A 
HETATM   23  C   UNL     1      42.144 -16.238   3.854  1.00  0.00     0.051 A 
HETATM   24  C   UNL     1      42.896 -16.805   2.816  1.00  0.00    -0.034 A 
HETATM   25  C   UNL     1      43.150 -16.055   1.663  1.00  0.00     0.014 A 
HETATM   26  C   UNL     1      42.653 -14.756   1.541  1.00  0.00     0.040 A 
BRANCH  22  27
HETATM   27  O   UNL     1      40.868 -14.317   4.694  1.00  0.00    -0.353 OA
HETATM   28  C   UNL     1      41.271 -14.481   6.047  1.00  0.00     0.210 C 
ENDBRANCH  22  27
BRANCH  24  29
HETATM   29  C   UNL     1      43.446 -18.153   2.987  1.00  0.00     0.007 C 
HETATM   30  C   UNL     1      43.175 -19.162   2.145  1.00  0.00    -0.030 C 
HETATM   31  C   UNL     1      43.716 -20.546   2.312  1.00  0.00     0.036 C 
ENDBRANCH  24  29
ENDBRANCH  20  21
ENDBRANCH  19  20
ENDBRANCH   1  19
TORSDOF 7
ENDMDL
MODEL 5
REMARK VINA RESULT:      -8.5      2.014      2.619
REMARK  7 active torsions:
REMARK  status: ('A' for Active; 'I' for Inactive)
REMARK    1  A    between atoms: C_3  and  C_4 
REMARK    2  A    between atoms: C_6  and  O_7 
REMARK    3  A    between atoms: C_9  and  O_10 
REMARK    4  A    between atoms: O_10  and  C_11 
REMARK    5  A    between atoms: C_11  and  C_12 
REMARK       I    between atoms: C_12  and  N_13 
REMARK    6  A    between atoms: N_13  and  N_14 
REMARK       I    between atoms: N_14  and  C_15 
REMARK    7  A    between atoms: C_15  and  C_16 
ROOT
HETATM    1  C   UNL     1      43.707 -10.869   7.863  1.00  0.00     0.260 C 
HETATM    2  N   UNL     1      42.619 -11.368   7.174  1.00  0.00    -0.265 N 
HETATM    3  O   UNL     1      44.623 -11.581   8.275  1.00  0.00    -0.269 OA
HETATM    4  H   UNL     1      41.983 -10.745   6.674  1.00  0.00     0.190 HD
ENDROOT
BRANCH   2   5
HETATM    5  N   UNL     1      42.638 -12.710   6.790  1.00  0.00    -0.263 N 
HETATM    6  C   UNL     1      43.035 -13.051   5.514  1.00  0.00     0.272 C 
HETATM    7  O   UNL     1      43.256 -12.205   4.649  1.00  0.00    -0.266 OA
HETATM    8  H   UNL     1      42.426 -13.397   7.505  1.00  0.00     0.190 HD
BRANCH   6   9
HETATM    9  C   UNL     1      43.100 -14.487   5.252  1.00  0.00     0.061 A 
HETATM   10  C   UNL     1      43.123 -15.219   4.013  1.00  0.00     0.008 A 
HETATM   11  C   UNL     1      43.260 -16.580   4.330  1.00  0.00     0.045 A 
HETATM   12  C   UNL     1      43.026 -14.864   2.646  1.00  0.00     0.015 A 
HETATM   13  C   UNL     1      43.361 -17.570   3.336  1.00  0.00     0.030 A 
HETATM   14  N   UNL     1      43.257 -16.676   5.703  1.00  0.00    -0.359 N 
HETATM   15  C   UNL     1      43.299 -17.180   1.997  1.00  0.00     0.002 A 
HETATM   16  C   UNL     1      43.124 -15.846   1.655  1.00  0.00     0.001 A 
HETATM   17  C   UNL     1      43.343 -17.888   6.487  1.00  0.00     0.156 C 
HETATM   18  C   UNL     1      43.143 -15.432   6.262  1.00  0.00     0.108 A 
ENDBRANCH   6   9
ENDBRANCH   2   5
BRANCH   1  19
HETATM   19  C   UNL     1      43.712  -9.351   8.017  1.00  0.00     0.280 C 
BRANCH  19  20
HETATM   20  O   UNL     1      42.495  -8.912   8.614  1.00  0.00    -0.339 OA
BRANCH  20  21
HETATM   21  C   UNL     1      42.496  -8.908   9.987  1.00  0.00     0.102 A 
HETATM   22  C   UNL     1      41.295  -9.254  10.632  1.00  0.00     0.102 A 
HETATM   23  C   UNL     1      41.229  -9.208  12.029  1.00  0.00     0.051 A 
HETATM   24  C   UNL     1      42.350  -8.841  12.786  1.00  0.00    -0.034 A 
HETATM   25  C   UNL     1      43.537  -8.494  12.132  1.00  0.00     0.014 A 
HETATM   26  C   UNL     1      43.609  -8.520  10.737  1.00  0.00     0.040 A 
BRANCH  22  27
HETATM   27  O   UNL     1      40.253  -9.616   9.814  1.00  0.00    -0.353 OA
HETATM   28  C   UNL     1      39.150  -8.722   9.737  1.00  0.00     0.210 C 
ENDBRANCH  22  27
BRANCH  24  29
HETATM   29  C   UNL     1      42.236  -8.777  14.246  1.00  0.00     0.007 C 
HETATM   30  C   UNL     1      41.383  -7.954  14.875  1.00  0.00    -0.030 C 
HETATM   31  C   UNL     1      41.264  -7.865  16.362  1.00  0.00     0.036 C 
ENDBRANCH  24  29
ENDBRANCH  20  21
ENDBRANCH  19  20
ENDBRANCH   1  19
TORSDOF 7
ENDMDL
MODEL 6
REMARK VINA RESULT:      -8.5      2.128     10.588
REMARK  7 active torsions:
REMARK  status: ('A' for Active; 'I' for Inactive)
REMARK    1  A    between atoms: C_3  and  C_4 
REMARK    2  A    between atoms: C_6  and  O_7 
REMARK    3  A    between atoms: C_9  and  O_10 
REMARK    4  A    between atoms: O_10  and  C_11 
REMARK    5  A    between atoms: C_11  and  C_12 
REMARK       I    between atoms: C_12  and  N_13 
REMARK    6  A    between atoms: N_13  and  N_14 
REMARK       I    between atoms: N_14  and  C_15 
REMARK    7  A    between atoms: C_15  and  C_16 
ROOT
HETATM    1  C   UNL     1      42.195 -11.373   5.946  1.00  0.00     0.260 C 
HETATM    2  N   UNL     1      42.853 -11.403   7.160  1.00  0.00    -0.265 N 
HETATM    3  O   UNL     1      41.307 -10.561   5.685  1.00  0.00    -0.269 OA
HETATM    4  H   UNL     1      43.709 -11.944   7.280  1.00  0.00     0.190 HD
ENDROOT
BRANCH   2   5
HETATM    5  N   UNL     1      42.612 -10.369   8.068  1.00  0.00    -0.263 N 
HETATM    6  C   UNL     1      43.529 -10.109   9.065  1.00  0.00     0.272 C 
HETATM    7  O   UNL     1      44.501 -10.835   9.267  1.00  0.00    -0.266 OA
HETATM    8  H   UNL     1      41.793  -9.795   7.907  1.00  0.00     0.190 HD
BRANCH   6   9
HETATM    9  C   UNL     1      43.218  -8.951   9.900  1.00  0.00     0.061 A 
HETATM   10  C   UNL     1      42.925  -8.855  11.306  1.00  0.00     0.008 A 
HETATM   11  C   UNL     1      42.766  -7.494  11.612  1.00  0.00     0.045 A 
HETATM   12  C   UNL     1      42.765  -9.793  12.355  1.00  0.00     0.015 A 
HETATM   13  C   UNL     1      42.514  -7.049  12.922  1.00  0.00     0.030 A 
HETATM   14  N   UNL     1      42.894  -6.799  10.431  1.00  0.00    -0.359 N 
HETATM   15  C   UNL     1      42.398  -7.999  13.939  1.00  0.00     0.002 A 
HETATM   16  C   UNL     1      42.513  -9.355  13.659  1.00  0.00     0.001 A 
HETATM   17  C   UNL     1      42.772  -5.370  10.250  1.00  0.00     0.156 C 
HETATM   18  C   UNL     1      43.144  -7.663   9.400  1.00  0.00     0.108 A 
ENDBRANCH   6   9
ENDBRANCH   2   5
BRANCH   1  19
HETATM   19  C   UNL     1      42.704 -12.391   4.929  1.00  0.00     0.280 C 
BRANCH  19  20
HETATM   20  O   UNL     1      42.914 -13.652   5.559  1.00  0.00    -0.339 OA
BRANCH  20  21
HETATM   21  C   UNL     1      42.886 -14.731   4.709  1.00  0.00     0.102 A 
HETATM   22  C   UNL     1      42.808 -16.007   5.294  1.00  0.00     0.102 A 
HETATM   23  C   UNL     1      42.836 -17.141   4.473  1.00  0.00     0.051 A 
HETATM   24  C   UNL     1      42.921 -17.013   3.081  1.00  0.00    -0.034 A 
HETATM   25  C   UNL     1      43.004 -15.737   2.512  1.00  0.00     0.014 A 
HETATM   26  C   UNL     1      42.994 -14.600   3.322  1.00  0.00     0.040 A 
BRANCH  22  27
HETATM   27  O   UNL     1      42.712 -16.039   6.664  1.00  0.00    -0.353 OA
HETATM   28  C   UNL     1      43.728 -16.741   7.368  1.00  0.00     0.210 C 
ENDBRANCH  22  27
BRANCH  24  29
HETATM   29  C   UNL     1      42.976 -18.222   2.254  1.00  0.00     0.007 C 
HETATM   30  C   UNL     1      43.640 -19.328   2.624  1.00  0.00    -0.030 C 
HETATM   31  C   UNL     1      43.718 -20.564   1.787  1.00  0.00     0.036 C 
ENDBRANCH  24  29
ENDBRANCH  20  21
ENDBRANCH  19  20
ENDBRANCH   1  19
TORSDOF 7
ENDMDL
MODEL 7
REMARK VINA RESULT:      -8.3      2.215     10.721
REMARK  7 active torsions:
REMARK  status: ('A' for Active; 'I' for Inactive)
REMARK    1  A    between atoms: C_3  and  C_4 
REMARK    2  A    between atoms: C_6  and  O_7 
REMARK    3  A    between atoms: C_9  and  O_10 
REMARK    4  A    between atoms: O_10  and  C_11 
REMARK    5  A    between atoms: C_11  and  C_12 
REMARK       I    between atoms: C_12  and  N_13 
REMARK    6  A    between atoms: N_13  and  N_14 
REMARK       I    between atoms: N_14  and  C_15 
REMARK    7  A    between atoms: C_15  and  C_16 
ROOT
HETATM    1  C   UNL     1      44.006 -11.605   7.269  1.00  0.00     0.260 C 
HETATM    2  N   UNL     1      42.874 -10.882   7.589  1.00  0.00    -0.265 N 
HETATM    3  O   UNL     1      45.019 -11.607   7.970  1.00  0.00    -0.269 OA
HETATM    4  H   UNL     1      41.990 -11.052   7.108  1.00  0.00     0.190 HD
ENDROOT
BRANCH   2   5
HETATM    5  N   UNL     1      42.817 -10.258   8.836  1.00  0.00    -0.263 N 
HETATM    6  C   UNL     1      42.836  -8.880   8.912  1.00  0.00     0.272 C 
HETATM    7  O   UNL     1      43.028  -8.172   7.925  1.00  0.00    -0.266 OA
HETATM    8  H   UNL     1      42.687 -10.854   9.645  1.00  0.00     0.190 HD
BRANCH   6   9
HETATM    9  C   UNL     1      42.683  -8.336  10.260  1.00  0.00     0.061 A 
HETATM   10  C   UNL     1      42.606  -6.976  10.723  1.00  0.00     0.008 A 
HETATM   11  C   UNL     1      42.391  -7.014  12.110  1.00  0.00     0.045 A 
HETATM   12  C   UNL     1      42.710  -5.707  10.104  1.00  0.00     0.015 A 
HETATM   13  C   UNL     1      42.222  -5.844  12.871  1.00  0.00     0.030 A 
HETATM   14  N   UNL     1      42.401  -8.340  12.482  1.00  0.00    -0.359 N 
HETATM   15  C   UNL     1      42.295  -4.610  12.222  1.00  0.00     0.002 A 
HETATM   16  C   UNL     1      42.545  -4.540  10.858  1.00  0.00     0.001 A 
HETATM   17  C   UNL     1      42.251  -8.864  13.821  1.00  0.00     0.156 C 
HETATM   18  C   UNL     1      42.594  -9.135  11.386  1.00  0.00     0.108 A 
ENDBRANCH   6   9
ENDBRANCH   2   5
BRANCH   1  19
HETATM   19  C   UNL     1      43.878 -12.452   6.007  1.00  0.00     0.280 C 
BRANCH  19  20
HETATM   20  O   UNL     1      42.905 -13.476   6.198  1.00  0.00    -0.339 OA
BRANCH  20  21
HETATM   21  C   UNL     1      43.236 -14.692   5.653  1.00  0.00     0.102 A 
HETATM   22  C   UNL     1      42.633 -15.033   4.429  1.00  0.00     0.102 A 
HETATM   23  C   UNL     1      42.893 -16.286   3.862  1.00  0.00     0.051 A 
HETATM   24  C   UNL     1      43.758 -17.190   4.492  1.00  0.00    -0.034 A 
HETATM   25  C   UNL     1      44.346 -16.841   5.712  1.00  0.00     0.014 A 
HETATM   26  C   UNL     1      44.082 -15.600   6.295  1.00  0.00     0.040 A 
BRANCH  22  27
HETATM   27  O   UNL     1      41.813 -14.082   3.874  1.00  0.00    -0.353 OA
HETATM   28  C   UNL     1      40.515 -14.501   3.472  1.00  0.00     0.210 C 
ENDBRANCH  22  27
BRANCH  24  29
HETATM   29  C   UNL     1      43.984 -18.504   3.884  1.00  0.00     0.007 C 
HETATM   30  C   UNL     1      43.446 -18.867   2.709  1.00  0.00    -0.030 C 
HETATM   31  C   UNL     1      43.655 -20.207   2.082  1.00  0.00     0.036 C 
ENDBRANCH  24  29
ENDBRANCH  20  21
ENDBRANCH  19  20
ENDBRANCH   1  19
TORSDOF 7
ENDMDL
MODEL 8
REMARK VINA RESULT:      -8.2      6.637      8.998
REMARK  7 active torsions:
REMARK  status: ('A' for Active; 'I' for Inactive)
REMARK    1  A    between atoms: C_3  and  C_4 
REMARK    2  A    between atoms: C_6  and  O_7 
REMARK    3  A    between atoms: C_9  and  O_10 
REMARK    4  A    between atoms: O_10  and  C_11 
REMARK    5  A    between atoms: C_11  and  C_12 
REMARK       I    between atoms: C_12  and  N_13 
REMARK    6  A    between atoms: N_13  and  N_14 
REMARK       I    between atoms: N_14  and  C_15 
REMARK    7  A    between atoms: C_15  and  C_16 
ROOT
HETATM    1  C   UNL     1      40.162 -14.883   0.139  1.00  0.00     0.260 C 
HETATM    2  N   UNL     1      41.338 -14.654   0.827  1.00  0.00    -0.265 N 
HETATM    3  O   UNL     1      39.497 -15.911   0.271  1.00  0.00    -0.269 OA
HETATM    4  H   UNL     1      41.759 -13.725   0.852  1.00  0.00     0.190 HD
ENDROOT
BRANCH   2   5
HETATM    5  N   UNL     1      41.702 -15.553   1.831  1.00  0.00    -0.263 N 
HETATM    6  C   UNL     1      43.030 -15.881   2.006  1.00  0.00     0.272 C 
HETATM    7  O   UNL     1      43.906 -15.507   1.227  1.00  0.00    -0.266 OA
HETATM    8  H   UNL     1      40.967 -15.876   2.450  1.00  0.00     0.190 HD
BRANCH   6   9
HETATM    9  C   UNL     1      43.303 -16.760   3.141  1.00  0.00     0.061 A 
HETATM   10  C   UNL     1      43.477 -18.187   3.208  1.00  0.00     0.008 A 
HETATM   11  C   UNL     1      43.788 -18.513   4.537  1.00  0.00     0.045 A 
HETATM   12  C   UNL     1      43.389 -19.244   2.269  1.00  0.00     0.015 A 
HETATM   13  C   UNL     1      44.064 -19.833   4.936  1.00  0.00     0.030 A 
HETATM   14  N   UNL     1      43.741 -17.342   5.260  1.00  0.00    -0.359 N 
HETATM   15  C   UNL     1      44.004 -20.846   3.977  1.00  0.00     0.002 A 
HETATM   16  C   UNL     1      43.662 -20.559   2.662  1.00  0.00     0.001 A 
HETATM   17  C   UNL     1      43.960 -17.192   6.681  1.00  0.00     0.156 C 
HETATM   18  C   UNL     1      43.433 -16.293   4.437  1.00  0.00     0.108 A 
ENDBRANCH   6   9
ENDBRANCH   2   5
BRANCH   1  19
HETATM   19  C   UNL     1      39.721 -13.727  -0.755  1.00  0.00     0.280 C 
BRANCH  19  20
HETATM   20  O   UNL     1      39.595 -12.533   0.011  1.00  0.00    -0.339 OA
BRANCH  20  21
HETATM   21  C   UNL     1      40.405 -11.501  -0.394  1.00  0.00     0.102 A 
HETATM   22  C   UNL     1      41.129 -10.823   0.603  1.00  0.00     0.102 A 
HETATM   23  C   UNL     1      41.924  -9.726   0.247  1.00  0.00     0.051 A 
HETATM   24  C   UNL     1      42.017  -9.314  -1.089  1.00  0.00    -0.034 A 
HETATM   25  C   UNL     1      41.287  -9.994  -2.069  1.00  0.00     0.014 A 
HETATM   26  C   UNL     1      40.478 -11.079  -1.724  1.00  0.00     0.040 A 
BRANCH  22  27
HETATM   27  O   UNL     1      40.992 -11.303   1.882  1.00  0.00    -0.353 OA
HETATM   28  C   UNL     1      42.182 -11.472   2.641  1.00  0.00     0.210 C 
ENDBRANCH  22  27
BRANCH  24  29
HETATM   29  C   UNL     1      42.836  -8.145  -1.420  1.00  0.00     0.007 C 
HETATM   30  C   UNL     1      42.478  -6.891  -1.104  1.00  0.00    -0.030 C 
HETATM   31  C   UNL     1      43.294  -5.686  -1.447  1.00  0.00     0.036 C 
ENDBRANCH  24  29
ENDBRANCH  20  21
ENDBRANCH  19  20
ENDBRANCH   1  19
TORSDOF 7
ENDMDL
MODEL 9
REMARK VINA RESULT:      -8.1      2.155     10.391
REMARK  7 active torsions:
REMARK  status: ('A' for Active; 'I' for Inactive)
REMARK    1  A    between atoms: C_3  and  C_4 
REMARK    2  A    between atoms: C_6  and  O_7 
REMARK    3  A    between atoms: C_9  and  O_10 
REMARK    4  A    between atoms: O_10  and  C_11 
REMARK    5  A    between atoms: C_11  and  C_12 
REMARK       I    between atoms: C_12  and  N_13 
REMARK    6  A    between atoms: N_13  and  N_14 
REMARK       I    between atoms: N_14  and  C_15 
REMARK    7  A    between atoms: C_15  and  C_16 
ROOT
HETATM    1  C   UNL     1      44.154 -11.541   7.526  1.00  0.00     0.260 C 
HETATM    2  N   UNL     1      43.004 -10.783   7.635  1.00  0.00    -0.265 N 
HETATM    3  O   UNL     1      45.099 -11.441   8.310  1.00  0.00    -0.269 OA
HETATM    4  H   UNL     1      42.166 -11.022   7.104  1.00  0.00     0.190 HD
ENDROOT
BRANCH   2   5
HETATM    5  N   UNL     1      42.841  -9.988   8.771  1.00  0.00    -0.263 N 
HETATM    6  C   UNL     1      43.138  -8.642   8.711  1.00  0.00     0.272 C 
HETATM    7  O   UNL     1      43.665  -8.131   7.725  1.00  0.00    -0.266 OA
HETATM    8  H   UNL     1      42.432 -10.428   9.587  1.00  0.00     0.190 HD
BRANCH   6   9
HETATM    9  C   UNL     1      42.846  -7.892   9.931  1.00  0.00     0.061 A 
HETATM   10  C   UNL     1      42.679  -8.333  11.291  1.00  0.00     0.008 A 
HETATM   11  C   UNL     1      42.479  -7.191  12.083  1.00  0.00     0.045 A 
HETATM   12  C   UNL     1      42.665  -9.595  11.933  1.00  0.00     0.015 A 
HETATM   13  C   UNL     1      42.327  -7.269  13.479  1.00  0.00     0.030 A 
HETATM   14  N   UNL     1      42.462  -6.109  11.231  1.00  0.00    -0.359 N 
HETATM   15  C   UNL     1      42.354  -8.527  14.083  1.00  0.00     0.002 A 
HETATM   16  C   UNL     1      42.512  -9.677  13.321  1.00  0.00     0.001 A 
HETATM   17  C   UNL     1      42.251  -4.726  11.594  1.00  0.00     0.156 C 
HETATM   18  C   UNL     1      42.660  -6.521   9.942  1.00  0.00     0.108 A 
ENDBRANCH   6   9
ENDBRANCH   2   5
BRANCH   1  19
HETATM   19  C   UNL     1      44.132 -12.559   6.390  1.00  0.00     0.280 C 
BRANCH  19  20
HETATM   20  O   UNL     1      43.256 -13.637   6.711  1.00  0.00    -0.339 OA
BRANCH  20  21
HETATM   21  C   UNL     1      43.269 -14.675   5.813  1.00  0.00     0.102 A 
HETATM   22  C   UNL     1      42.379 -14.597   4.728  1.00  0.00     0.102 A 
HETATM   23  C   UNL     1      42.313 -15.659   3.817  1.00  0.00     0.051 A 
HETATM   24  C   UNL     1      43.135 -16.783   3.969  1.00  0.00    -0.034 A 
HETATM   25  C   UNL     1      44.012 -16.850   5.057  1.00  0.00     0.014 A 
HETATM   26  C   UNL     1      44.075 -15.805   5.981  1.00  0.00     0.040 A 
BRANCH  22  27
HETATM   27  O   UNL     1      41.623 -13.454   4.647  1.00  0.00    -0.353 OA
HETATM   28  C   UNL     1      40.629 -13.405   3.632  1.00  0.00     0.210 C 
ENDBRANCH  22  27
BRANCH  24  29
HETATM   29  C   UNL     1      43.019 -17.887   3.013  1.00  0.00     0.007 C 
HETATM   30  C   UNL     1      43.798 -18.979   3.061  1.00  0.00    -0.030 C 
HETATM   31  C   UNL     1      43.702 -20.108   2.086  1.00  0.00     0.036 C 
ENDBRANCH  24  29
ENDBRANCH  20  21
ENDBRANCH  19  20
ENDBRANCH   1  19
TORSDOF 7
ENDMDL
MODEL 10
REMARK VINA RESULT:      -8.0      2.603     10.563
REMARK  7 active torsions:
REMARK  status: ('A' for Active; 'I' for Inactive)
REMARK    1  A    between atoms: C_3  and  C_4 
REMARK    2  A    between atoms: C_6  and  O_7 
REMARK    3  A    between atoms: C_9  and  O_10 
REMARK    4  A    between atoms: O_10  and  C_11 
REMARK    5  A    between atoms: C_11  and  C_12 
REMARK       I    between atoms: C_12  and  N_13 
REMARK    6  A    between atoms: N_13  and  N_14 
REMARK       I    between atoms: N_14  and  C_15 
REMARK    7  A    between atoms: C_15  and  C_16 
ROOT
HETATM    1  C   UNL     1      40.515 -12.156   5.969  1.00  0.00     0.260 C 
HETATM    2  N   UNL     1      41.447 -11.246   6.425  1.00  0.00    -0.265 N 
HETATM    3  O   UNL     1      39.462 -12.392   6.562  1.00  0.00    -0.269 OA
HETATM    4  H   UNL     1      42.206 -10.925   5.823  1.00  0.00     0.190 HD
ENDROOT
BRANCH   2   5
HETATM    5  N   UNL     1      41.109 -10.443   7.517  1.00  0.00    -0.263 N 
HETATM    6  C   UNL     1      42.037  -9.561   8.030  1.00  0.00     0.272 C 
HETATM    7  O   UNL     1      43.205  -9.539   7.642  1.00  0.00    -0.266 OA
HETATM    8  H   UNL     1      40.152 -10.491   7.846  1.00  0.00     0.190 HD
BRANCH   6   9
HETATM    9  C   UNL     1      41.546  -8.711   9.112  1.00  0.00     0.061 A 
HETATM   10  C   UNL     1      42.100  -8.423  10.409  1.00  0.00     0.008 A 
HETATM   11  C   UNL     1      41.257  -7.487  11.029  1.00  0.00     0.045 A 
HETATM   12  C   UNL     1      43.232  -8.874  11.129  1.00  0.00     0.015 A 
HETATM   13  C   UNL     1      41.540  -6.957  12.301  1.00  0.00     0.030 A 
HETATM   14  N   UNL     1      40.203  -7.266  10.172  1.00  0.00    -0.359 N 
HETATM   15  C   UNL     1      42.684  -7.397  12.968  1.00  0.00     0.002 A 
HETATM   16  C   UNL     1      43.516  -8.350  12.395  1.00  0.00     0.001 A 
HETATM   17  C   UNL     1      39.067  -6.401  10.402  1.00  0.00     0.156 C 
HETATM   18  C   UNL     1      40.358  -8.007   9.033  1.00  0.00     0.108 A 
ENDBRANCH   6   9
ENDBRANCH   2   5
BRANCH   1  19
HETATM   19  C   UNL     1      40.869 -12.804   4.633  1.00  0.00     0.280 C 
BRANCH  19  20
HETATM   20  O   UNL     1      42.248 -13.161   4.608  1.00  0.00    -0.339 OA
BRANCH  20  21
HETATM   21  C   UNL     1      42.530 -14.321   3.931  1.00  0.00     0.102 A 
HETATM   22  C   UNL     1      42.777 -15.471   4.701  1.00  0.00     0.102 A 
HETATM   23  C   UNL     1      43.127 -16.665   4.059  1.00  0.00     0.051 A 
HETATM   24  C   UNL     1      43.213 -16.726   2.662  1.00  0.00    -0.034 A 
HETATM   25  C   UNL     1      42.970 -15.574   1.908  1.00  0.00     0.014 A 
HETATM   26  C   UNL     1      42.637 -14.373   2.539  1.00  0.00     0.040 A 
BRANCH  22  27
HETATM   27  O   UNL     1      42.655 -15.325   6.061  1.00  0.00    -0.353 OA
HETATM   28  C   UNL     1      41.561 -15.982   6.688  1.00  0.00     0.210 C 
ENDBRANCH  22  27
BRANCH  24  29
HETATM   29  C   UNL     1      43.609 -17.986   2.026  1.00  0.00     0.007 C 
HETATM   30  C   UNL     1      43.207 -19.186   2.472  1.00  0.00    -0.030 C 
HETATM   31  C   UNL     1      43.613 -20.480   1.843  1.00  0.00     0.036 C 
ENDBRANCH  24  29
ENDBRANCH  20  21
ENDBRANCH  19  20
ENDBRANCH   1  19
TORSDOF 7
ENDMDL
