MODEL 1
REMARK VINA RESULT:      -8.0      0.000      0.000
REMARK  7 active torsions:
REMARK  status: ('A' for Active; 'I' for Inactive)
REMARK       I    between atoms: N_2  and  C_3 
REMARK    1  A    between atoms: N_2  and  C_17 
REMARK       I    between atoms: C_3  and  N_4 
REMARK    2  A    between atoms: N_4  and  C_5 
REMARK    3  A    between atoms: N_6  and  C_7 
REMARK    4  A    between atoms: C_17  and  C_18 
REMARK    5  A    between atoms: C_18  and  C_19 
REMARK    6  A    between atoms: C_19  and  O_20 
REMARK    7  A    between atoms: C_19  and  C_21 
ROOT
HETATM    1  C   UNL     1      40.978 -12.715   5.097  1.00  0.00     0.154 C 
HETATM    2  N   UNL     1      41.980 -13.649   5.589  1.00  0.00    -0.343 N 
HETATM    3  C   UNL     1      43.052 -13.273   6.397  1.00  0.00     0.301 C 
HETATM    4  N   UNL     1      43.462 -11.966   6.173  1.00  0.00    -0.194 NA
HETATM    5  O   UNL     1      43.615 -14.060   7.153  1.00  0.00    -0.254 OA
HETATM    6  H   UNL     1      43.477 -11.772   5.180  1.00  0.00     0.140 HD
ENDROOT
BRANCH   2   7
HETATM    7  C   UNL     1      41.776 -15.066   5.296  1.00  0.00     0.129 C 
BRANCH   7   8
HETATM    8  C   UNL     1      42.673 -15.600   4.181  1.00  0.00     0.056 C 
BRANCH   8   9
HETATM    9  C   UNL     1      43.680 -16.634   4.707  1.00  0.00     0.152 C 
BRANCH   9  10
HETATM   10  O   UNL     1      43.457 -16.811   6.107  1.00  0.00    -0.391 OA
HETATM   11  H   UNL     1      42.667 -17.369   6.201  1.00  0.00     0.210 HD
ENDBRANCH   9  10
BRANCH   9  12
HETATM   12  C   UNL     1      43.660 -18.018   4.087  1.00  0.00    -0.030 A 
HETATM   13  C   UNL     1      44.109 -19.171   4.748  1.00  0.00     0.010 A 
HETATM   14  C   UNL     1      44.102 -20.415   4.109  1.00  0.00     0.001 A 
HETATM   15  C   UNL     1      43.658 -20.526   2.794  1.00  0.00     0.000 A 
HETATM   16  C   UNL     1      43.221 -19.393   2.115  1.00  0.00     0.001 A 
HETATM   17  C   UNL     1      43.223 -18.151   2.756  1.00  0.00     0.010 A 
ENDBRANCH   9  12
ENDBRANCH   8   9
ENDBRANCH   7   8
ENDBRANCH   2   7
BRANCH   4  18
HETATM   18  C   UNL     1      44.545 -11.463   6.881  1.00  0.00     0.109 A 
HETATM   19  N   UNL     1      44.516 -10.964   8.172  1.00  0.00    -0.254 N 
HETATM   20  N   UNL     1      45.746 -10.583   8.593  1.00  0.00    -0.183 NA
HETATM   21  C   UNL     1      46.532 -10.775   7.536  1.00  0.00     0.142 A 
HETATM   22  C   UNL     1      45.830 -11.271   6.428  1.00  0.00     0.065 A 
BRANCH  19  23
HETATM   23  C   UNL     1      43.333 -10.641   8.979  1.00  0.00     0.111 C 
HETATM   24  C   UNL     1      43.601 -10.476  10.494  1.00  0.00     0.027 C 
HETATM   25  C   UNL     1      44.254  -9.141  10.878  1.00  0.00     0.002 C 
HETATM   26  C   UNL     1      43.537  -7.940  10.272  1.00  0.00     0.000 C 
HETATM   27  C   UNL     1      43.328  -8.097   8.771  1.00  0.00     0.002 C 
HETATM   28  C   UNL     1      42.593  -9.396   8.450  1.00  0.00     0.027 C 
ENDBRANCH  19  23
ENDBRANCH   4  18
TORSDOF 7
ENDMDL
MODEL 2
REMARK VINA RESULT:      -7.8      4.152      6.240
REMARK  7 active torsions:
REMARK  status: ('A' for Active; 'I' for Inactive)
REMARK       I    between atoms: N_2  and  C_3 
REMARK    1  A    between atoms: N_2  and  C_17 
REMARK       I    between atoms: C_3  and  N_4 
REMARK    2  A    between atoms: N_4  and  C_5 
REMARK    3  A    between atoms: N_6  and  C_7 
REMARK    4  A    between atoms: C_17  and  C_18 
REMARK    5  A    between atoms: C_18  and  C_19 
REMARK    6  A    between atoms: C_19  and  O_20 
REMARK    7  A    between atoms: C_19  and  C_21 
ROOT
HETATM    1  C   UNL     1      40.239 -15.923   6.698  1.00  0.00     0.154 C 
HETATM    2  N   UNL     1      41.336 -15.016   6.390  1.00  0.00    -0.343 N 
HETATM    3  C   UNL     1      41.166 -13.795   5.740  1.00  0.00     0.301 C 
HETATM    4  N   UNL     1      40.083 -13.794   4.872  1.00  0.00    -0.194 NA
HETATM    5  O   UNL     1      41.957 -12.864   5.868  1.00  0.00    -0.254 OA
HETATM    6  H   UNL     1      40.055 -14.661   4.350  1.00  0.00     0.140 HD
ENDROOT
BRANCH   2   7
HETATM    7  C   UNL     1      42.662 -15.375   6.891  1.00  0.00     0.129 C 
BRANCH   7   8
HETATM    8  C   UNL     1      43.658 -15.736   5.791  1.00  0.00     0.056 C 
BRANCH   8   9
HETATM    9  C   UNL     1      44.033 -17.226   5.830  1.00  0.00     0.152 C 
BRANCH   9  10
HETATM   10  O   UNL     1      43.267 -17.858   6.858  1.00  0.00    -0.391 OA
HETATM   11  H   UNL     1      43.821 -18.562   7.234  1.00  0.00     0.210 HD
ENDBRANCH   9  10
BRANCH   9  12
HETATM   12  C   UNL     1      43.819 -18.041   4.569  1.00  0.00    -0.030 A 
HETATM   13  C   UNL     1      43.263 -17.518   3.392  1.00  0.00     0.010 A 
HETATM   14  C   UNL     1      43.053 -18.330   2.274  1.00  0.00     0.001 A 
HETATM   15  C   UNL     1      43.385 -19.681   2.315  1.00  0.00     0.000 A 
HETATM   16  C   UNL     1      43.926 -20.224   3.476  1.00  0.00     0.001 A 
HETATM   17  C   UNL     1      44.140 -19.411   4.593  1.00  0.00     0.010 A 
ENDBRANCH   9  12
ENDBRANCH   8   9
ENDBRANCH   7   8
ENDBRANCH   2   7
BRANCH   4  18
HETATM   18  C   UNL     1      39.811 -12.656   4.126  1.00  0.00     0.109 A 
HETATM   19  N   UNL     1      40.224 -12.413   2.827  1.00  0.00    -0.254 N 
HETATM   20  N   UNL     1      39.764 -11.225   2.365  1.00  0.00    -0.183 NA
HETATM   21  C   UNL     1      39.124 -10.692   3.404  1.00  0.00     0.142 A 
HETATM   22  C   UNL     1      39.166 -11.514   4.540  1.00  0.00     0.065 A 
BRANCH  19  23
HETATM   23  C   UNL     1      41.212 -13.168   2.047  1.00  0.00     0.111 C 
HETATM   24  C   UNL     1      41.171 -14.701   2.250  1.00  0.00     0.027 C 
HETATM   25  C   UNL     1      40.022 -15.405   1.516  1.00  0.00     0.002 C 
HETATM   26  C   UNL     1      39.927 -15.004   0.050  1.00  0.00     0.000 C 
HETATM   27  C   UNL     1      39.916 -13.491  -0.128  1.00  0.00     0.002 C 
HETATM   28  C   UNL     1      41.128 -12.848   0.541  1.00  0.00     0.027 C 
ENDBRANCH  19  23
ENDBRANCH   4  18
TORSDOF 7
ENDMDL
MODEL 3
REMARK VINA RESULT:      -7.8      1.576      1.967
REMARK  7 active torsions:
REMARK  status: ('A' for Active; 'I' for Inactive)
REMARK       I    between atoms: N_2  and  C_3 
REMARK    1  A    between atoms: N_2  and  C_17 
REMARK       I    between atoms: C_3  and  N_4 
REMARK    2  A    between atoms: N_4  and  C_5 
REMARK    3  A    between atoms: N_6  and  C_7 
REMARK    4  A    between atoms: C_17  and  C_18 
REMARK    5  A    between atoms: C_18  and  C_19 
REMARK    6  A    between atoms: C_19  and  O_20 
REMARK    7  A    between atoms: C_19  and  C_21 
ROOT
HETATM    1  C   UNL     1      43.201 -14.508   7.205  1.00  0.00     0.154 C 
HETATM    2  N   UNL     1      42.911 -13.340   6.387  1.00  0.00    -0.343 N 
HETATM    3  C   UNL     1      43.664 -12.168   6.425  1.00  0.00     0.301 C 
HETATM    4  N   UNL     1      44.247 -11.942   7.664  1.00  0.00    -0.194 NA
HETATM    5  O   UNL     1      43.716 -11.387   5.478  1.00  0.00    -0.254 OA
HETATM    6  H   UNL     1      43.587 -12.151   8.402  1.00  0.00     0.140 HD
ENDROOT
BRANCH   2   7
HETATM    7  C   UNL     1      41.833 -13.459   5.406  1.00  0.00     0.129 C 
BRANCH   7   8
HETATM    8  C   UNL     1      42.235 -14.209   4.138  1.00  0.00     0.056 C 
BRANCH   8   9
HETATM    9  C   UNL     1      41.550 -15.582   4.048  1.00  0.00     0.152 C 
BRANCH   9  10
HETATM   10  O   UNL     1      40.578 -15.534   3.002  1.00  0.00    -0.391 OA
HETATM   11  H   UNL     1      41.035 -15.226   2.202  1.00  0.00     0.210 HD
ENDBRANCH   9  10
BRANCH   9  12
HETATM   12  C   UNL     1      42.424 -16.790   3.772  1.00  0.00    -0.030 A 
HETATM   13  C   UNL     1      43.411 -17.252   4.657  1.00  0.00     0.010 A 
HETATM   14  C   UNL     1      44.213 -18.349   4.328  1.00  0.00     0.001 A 
HETATM   15  C   UNL     1      44.053 -18.995   3.106  1.00  0.00     0.000 A 
HETATM   16  C   UNL     1      43.090 -18.545   2.208  1.00  0.00     0.001 A 
HETATM   17  C   UNL     1      42.284 -17.452   2.539  1.00  0.00     0.010 A 
ENDBRANCH   9  12
ENDBRANCH   8   9
ENDBRANCH   7   8
ENDBRANCH   2   7
BRANCH   4  18
HETATM   18  C   UNL     1      44.999 -10.793   7.863  1.00  0.00     0.109 A 
HETATM   19  N   UNL     1      44.529  -9.583   8.344  1.00  0.00    -0.254 N 
HETATM   20  N   UNL     1      45.520  -8.666   8.458  1.00  0.00    -0.183 NA
HETATM   21  C   UNL     1      46.597  -9.282   7.977  1.00  0.00     0.142 A 
HETATM   22  C   UNL     1      46.321 -10.587   7.544  1.00  0.00     0.065 A 
BRANCH  19  23
HETATM   23  C   UNL     1      43.130  -9.175   8.524  1.00  0.00     0.111 C 
HETATM   24  C   UNL     1      42.540  -9.464   9.925  1.00  0.00     0.027 C 
HETATM   25  C   UNL     1      42.989  -8.480  11.014  1.00  0.00     0.002 C 
HETATM   26  C   UNL     1      42.826  -7.024  10.595  1.00  0.00     0.000 C 
HETATM   27  C   UNL     1      43.458  -6.747   9.238  1.00  0.00     0.002 C 
HETATM   28  C   UNL     1      42.910  -7.690   8.171  1.00  0.00     0.027 C 
ENDBRANCH  19  23
ENDBRANCH   4  18
TORSDOF 7
ENDMDL
MODEL 4
REMARK VINA RESULT:      -7.7      1.964      3.051
REMARK  7 active torsions:
REMARK  status: ('A' for Active; 'I' for Inactive)
REMARK       I    between atoms: N_2  and  C_3 
REMARK    1  A    between atoms: N_2  and  C_17 
REMARK       I    between atoms: C_3  and  N_4 
REMARK    2  A    between atoms: N_4  and  C_5 
REMARK    3  A    between atoms: N_6  and  C_7 
REMARK    4  A    between atoms: C_17  and  C_18 
REMARK    5  A    between atoms: C_18  and  C_19 
REMARK    6  A    between atoms: C_19  and  O_20 
REMARK    7  A    between atoms: C_19  and  C_21 
ROOT
HETATM    1  C   UNL     1      41.458 -14.211   6.021  1.00  0.00     0.154 C 
HETATM    2  N   UNL     1      41.703 -13.218   4.985  1.00  0.00    -0.343 N 
HETATM    3  C   UNL     1      42.079 -11.903   5.254  1.00  0.00     0.301 C 
HETATM    4  N   UNL     1      41.592 -11.442   6.468  1.00  0.00    -0.194 NA
HETATM    5  O   UNL     1      42.697 -11.216   4.445  1.00  0.00    -0.254 OA
HETATM    6  H   UNL     1      40.631 -11.736   6.592  1.00  0.00     0.140 HD
ENDROOT
BRANCH   2   7
HETATM    7  C   UNL     1      41.651 -13.671   3.596  1.00  0.00     0.129 C 
BRANCH   7   8
HETATM    8  C   UNL     1      42.935 -14.346   3.120  1.00  0.00     0.056 C 
BRANCH   8   9
HETATM    9  C   UNL     1      42.647 -15.682   2.415  1.00  0.00     0.152 C 
BRANCH   9  10
HETATM   10  O   UNL     1      43.224 -15.637   1.108  1.00  0.00    -0.391 OA
HETATM   11  H   UNL     1      43.510 -14.721   0.955  1.00  0.00     0.210 HD
ENDBRANCH   9  10
BRANCH   9  12
HETATM   12  C   UNL     1      43.160 -16.950   3.071  1.00  0.00    -0.030 A 
HETATM   13  C   UNL     1      43.602 -17.011   4.401  1.00  0.00     0.010 A 
HETATM   14  C   UNL     1      44.102 -18.202   4.937  1.00  0.00     0.001 A 
HETATM   15  C   UNL     1      44.179 -19.349   4.151  1.00  0.00     0.000 A 
HETATM   16  C   UNL     1      43.758 -19.306   2.826  1.00  0.00     0.001 A 
HETATM   17  C   UNL     1      43.253 -18.118   2.291  1.00  0.00     0.010 A 
ENDBRANCH   9  12
ENDBRANCH   8   9
ENDBRANCH   7   8
ENDBRANCH   2   7
BRANCH   4  18
HETATM   18  C   UNL     1      41.855 -10.135   6.855  1.00  0.00     0.109 A 
HETATM   19  N   UNL     1      42.910  -9.714   7.646  1.00  0.00    -0.254 N 
HETATM   20  N   UNL     1      42.910  -8.369   7.811  1.00  0.00    -0.183 NA
HETATM   21  C   UNL     1      41.811  -7.958   7.184  1.00  0.00     0.142 A 
HETATM   22  C   UNL     1      41.088  -9.017   6.616  1.00  0.00     0.065 A 
BRANCH  19  23
HETATM   23  C   UNL     1      43.828 -10.548   8.430  1.00  0.00     0.111 C 
HETATM   24  C   UNL     1      44.577 -11.634   7.621  1.00  0.00     0.027 C 
HETATM   25  C   UNL     1      45.746 -11.101   6.782  1.00  0.00     0.002 C 
HETATM   26  C   UNL     1      46.687 -10.209   7.583  1.00  0.00     0.000 C 
HETATM   27  C   UNL     1      45.936  -9.114   8.331  1.00  0.00     0.002 C 
HETATM   28  C   UNL     1      44.846  -9.704   9.222  1.00  0.00     0.027 C 
ENDBRANCH  19  23
ENDBRANCH   4  18
TORSDOF 7
ENDMDL
MODEL 5
REMARK VINA RESULT:      -7.7      2.448      9.066
REMARK  7 active torsions:
REMARK  status: ('A' for Active; 'I' for Inactive)
REMARK       I    between atoms: N_2  and  C_3 
REMARK    1  A    between atoms: N_2  and  C_17 
REMARK       I    between atoms: C_3  and  N_4 
REMARK    2  A    between atoms: N_4  and  C_5 
REMARK    3  A    between atoms: N_6  and  C_7 
REMARK    4  A    between atoms: C_17  and  C_18 
REMARK    5  A    between atoms: C_18  and  C_19 
REMARK    6  A    between atoms: C_19  and  O_20 
REMARK    7  A    between atoms: C_19  and  C_21 
ROOT
HETATM    1  C   UNL     1      43.546  -8.959   8.002  1.00  0.00     0.154 C 
HETATM    2  N   UNL     1      44.266 -10.223   8.047  1.00  0.00    -0.343 N 
HETATM    3  C   UNL     1      44.358 -11.096   6.965  1.00  0.00     0.301 C 
HETATM    4  N   UNL     1      43.257 -11.027   6.123  1.00  0.00    -0.194 NA
HETATM    5  O   UNL     1      45.281 -11.897   6.840  1.00  0.00    -0.254 OA
HETATM    6  H   UNL     1      42.406 -10.974   6.667  1.00  0.00     0.140 HD
ENDROOT
BRANCH   2   7
HETATM    7  C   UNL     1      45.013 -10.525   9.267  1.00  0.00     0.129 C 
BRANCH   7   8
HETATM    8  C   UNL     1      44.630  -9.648  10.457  1.00  0.00     0.056 C 
BRANCH   8   9
HETATM    9  C   UNL     1      43.446 -10.237  11.240  1.00  0.00     0.152 C 
BRANCH   9  10
HETATM   10  O   UNL     1      43.834 -11.511  11.757  1.00  0.00    -0.391 OA
HETATM   11  H   UNL     1      43.676 -12.164  11.055  1.00  0.00     0.210 HD
ENDBRANCH   9  10
BRANCH   9  12
HETATM   12  C   UNL     1      42.908  -9.440  12.412  1.00  0.00    -0.030 A 
HETATM   13  C   UNL     1      41.774  -9.812  13.149  1.00  0.00     0.010 A 
HETATM   14  C   UNL     1      41.303  -9.014  14.196  1.00  0.00     0.001 A 
HETATM   15  C   UNL     1      41.950  -7.824  14.517  1.00  0.00     0.000 A 
HETATM   16  C   UNL     1      43.069  -7.429  13.791  1.00  0.00     0.001 A 
HETATM   17  C   UNL     1      43.543  -8.230  12.748  1.00  0.00     0.010 A 
ENDBRANCH   9  12
ENDBRANCH   8   9
ENDBRANCH   7   8
ENDBRANCH   2   7
BRANCH   4  18
HETATM   18  C   UNL     1      43.191 -11.866   5.019  1.00  0.00     0.109 A 
HETATM   19  N   UNL     1      42.588 -13.111   4.975  1.00  0.00    -0.254 N 
HETATM   20  N   UNL     1      42.662 -13.664   3.740  1.00  0.00    -0.183 NA
HETATM   21  C   UNL     1      43.378 -12.794   3.031  1.00  0.00     0.142 A 
HETATM   22  C   UNL     1      43.777 -11.684   3.788  1.00  0.00     0.065 A 
BRANCH  19  23
HETATM   23  C   UNL     1      42.104 -13.911   6.107  1.00  0.00     0.111 C 
HETATM   24  C   UNL     1      40.949 -14.884   5.773  1.00  0.00     0.027 C 
HETATM   25  C   UNL     1      41.389 -16.156   5.036  1.00  0.00     0.002 C 
HETATM   26  C   UNL     1      42.566 -16.849   5.709  1.00  0.00     0.000 C 
HETATM   27  C   UNL     1      43.715 -15.886   5.983  1.00  0.00     0.002 C 
HETATM   28  C   UNL     1      43.244 -14.685   6.799  1.00  0.00     0.027 C 
ENDBRANCH  19  23
ENDBRANCH   4  18
TORSDOF 7
ENDMDL
MODEL 6
REMARK VINA RESULT:      -7.6      2.397      9.142
REMARK  7 active torsions:
REMARK  status: ('A' for Active; 'I' for Inactive)
REMARK       I    between atoms: N_2  and  C_3 
REMARK    1  A    between atoms: N_2  and  C_17 
REMARK       I    between atoms: C_3  and  N_4 
REMARK    2  A    between atoms: N_4  and  C_5 
REMARK    3  A    between atoms: N_6  and  C_7 
REMARK    4  A    between atoms: C_17  and  C_18 
REMARK    5  A    between atoms: C_18  and  C_19 
REMARK    6  A    between atoms: C_19  and  O_20 
REMARK    7  A    between atoms: C_19  and  C_21 
ROOT
HETATM    1  C   UNL     1      42.014 -10.257   6.829  1.00  0.00     0.154 C 
HETATM    2  N   UNL     1      43.282 -10.814   7.276  1.00  0.00    -0.343 N 
HETATM    3  C   UNL     1      43.694 -12.115   6.992  1.00  0.00     0.301 C 
HETATM    4  N   UNL     1      42.632 -12.997   6.852  1.00  0.00    -0.194 NA
HETATM    5  O   UNL     1      44.878 -12.441   6.966  1.00  0.00    -0.254 OA
HETATM    6  H   UNL     1      41.939 -12.824   7.568  1.00  0.00     0.140 HD
ENDROOT
BRANCH   2   7
HETATM    7  C   UNL     1      44.204  -9.913   7.966  1.00  0.00     0.129 C 
BRANCH   7   8
HETATM    8  C   UNL     1      43.589  -9.211   9.174  1.00  0.00     0.056 C 
BRANCH   8   9
HETATM    9  C   UNL     1      43.460 -10.158  10.378  1.00  0.00     0.152 C 
BRANCH   9  10
HETATM   10  O   UNL     1      44.725 -10.788  10.594  1.00  0.00    -0.391 OA
HETATM   11  H   UNL     1      44.850 -10.853  11.555  1.00  0.00     0.210 HD
ENDBRANCH   9  10
BRANCH   9  12
HETATM   12  C   UNL     1      43.044  -9.558  11.707  1.00  0.00    -0.030 A 
HETATM   13  C   UNL     1      42.043 -10.104  12.525  1.00  0.00     0.010 A 
HETATM   14  C   UNL     1      41.675  -9.481  13.722  1.00  0.00     0.001 A 
HETATM   15  C   UNL     1      42.291  -8.297  14.116  1.00  0.00     0.000 A 
HETATM   16  C   UNL     1      43.276  -7.732  13.314  1.00  0.00     0.001 A 
HETATM   17  C   UNL     1      43.648  -8.356  12.120  1.00  0.00     0.010 A 
ENDBRANCH   9  12
ENDBRANCH   8   9
ENDBRANCH   7   8
ENDBRANCH   2   7
BRANCH   4  18
HETATM   18  C   UNL     1      42.889 -14.338   6.603  1.00  0.00     0.109 A 
HETATM   19  N   UNL     1      42.956 -14.940   5.358  1.00  0.00    -0.254 N 
HETATM   20  N   UNL     1      43.262 -16.257   5.450  1.00  0.00    -0.183 NA
HETATM   21  C   UNL     1      43.313 -16.493   6.759  1.00  0.00     0.142 A 
HETATM   22  C   UNL     1      43.039 -15.350   7.523  1.00  0.00     0.065 A 
BRANCH  19  23
HETATM   23  C   UNL     1      42.547 -14.372   4.068  1.00  0.00     0.111 C 
HETATM   24  C   UNL     1      43.269 -14.965   2.835  1.00  0.00     0.027 C 
HETATM   25  C   UNL     1      42.759 -16.349   2.410  1.00  0.00     0.002 C 
HETATM   26  C   UNL     1      41.241 -16.404   2.288  1.00  0.00     0.000 C 
HETATM   27  C   UNL     1      40.548 -15.864   3.532  1.00  0.00     0.002 C 
HETATM   28  C   UNL     1      41.022 -14.450   3.857  1.00  0.00     0.027 C 
ENDBRANCH  19  23
ENDBRANCH   4  18
TORSDOF 7
ENDMDL
MODEL 7
REMARK VINA RESULT:      -7.6      1.822      8.939
REMARK  7 active torsions:
REMARK  status: ('A' for Active; 'I' for Inactive)
REMARK       I    between atoms: N_2  and  C_3 
REMARK    1  A    between atoms: N_2  and  C_17 
REMARK       I    between atoms: C_3  and  N_4 
REMARK    2  A    between atoms: N_4  and  C_5 
REMARK    3  A    between atoms: N_6  and  C_7 
REMARK    4  A    between atoms: C_17  and  C_18 
REMARK    5  A    between atoms: C_18  and  C_19 
REMARK    6  A    between atoms: C_19  and  O_20 
REMARK    7  A    between atoms: C_19  and  C_21 
ROOT
HETATM    1  C   UNL     1      43.183 -10.879   4.564  1.00  0.00     0.154 C 
HETATM    2  N   UNL     1      43.301 -11.426   5.907  1.00  0.00    -0.343 N 
HETATM    3  C   UNL     1      42.986 -12.745   6.231  1.00  0.00     0.301 C 
HETATM    4  N   UNL     1      41.996 -13.277   5.417  1.00  0.00    -0.194 NA
HETATM    5  O   UNL     1      43.478 -13.322   7.197  1.00  0.00    -0.254 OA
HETATM    6  H   UNL     1      41.262 -12.596   5.271  1.00  0.00     0.140 HD
ENDROOT
BRANCH   2   7
HETATM    7  C   UNL     1      43.881 -10.563   6.935  1.00  0.00     0.129 C 
BRANCH   7   8
HETATM    8  C   UNL     1      45.396 -10.698   7.069  1.00  0.00     0.056 C 
BRANCH   8   9
HETATM    9  C   UNL     1      45.962  -9.731   8.121  1.00  0.00     0.152 C 
BRANCH   9  10
HETATM   10  O   UNL     1      46.596  -8.645   7.443  1.00  0.00    -0.391 OA
HETATM   11  H   UNL     1      46.459  -8.784   6.491  1.00  0.00     0.210 HD
ENDBRANCH   9  10
BRANCH   9  12
HETATM   12  C   UNL     1      44.991  -9.117   9.110  1.00  0.00    -0.030 A 
HETATM   13  C   UNL     1      44.260  -7.947   8.855  1.00  0.00     0.010 A 
HETATM   14  C   UNL     1      43.409  -7.405   9.823  1.00  0.00     0.001 A 
HETATM   15  C   UNL     1      43.282  -8.017  11.067  1.00  0.00     0.000 A 
HETATM   16  C   UNL     1      44.007  -9.171  11.346  1.00  0.00     0.001 A 
HETATM   17  C   UNL     1      44.854  -9.715  10.376  1.00  0.00     0.010 A 
ENDBRANCH   9  12
ENDBRANCH   8   9
ENDBRANCH   7   8
ENDBRANCH   2   7
BRANCH   4  18
HETATM   18  C   UNL     1      41.552 -14.572   5.645  1.00  0.00     0.109 A 
HETATM   19  N   UNL     1      42.233 -15.736   5.331  1.00  0.00    -0.254 N 
HETATM   20  N   UNL     1      41.547 -16.840   5.714  1.00  0.00    -0.183 NA
HETATM   21  C   UNL     1      40.402 -16.367   6.200  1.00  0.00     0.142 A 
HETATM   22  C   UNL     1      40.329 -14.967   6.135  1.00  0.00     0.065 A 
BRANCH  19  23
HETATM   23  C   UNL     1      43.433 -15.873   4.497  1.00  0.00     0.111 C 
HETATM   24  C   UNL     1      44.208 -17.200   4.679  1.00  0.00     0.027 C 
HETATM   25  C   UNL     1      43.563 -18.407   3.986  1.00  0.00     0.002 C 
HETATM   26  C   UNL     1      43.207 -18.128   2.531  1.00  0.00     0.000 C 
HETATM   27  C   UNL     1      42.400 -16.846   2.376  1.00  0.00     0.002 C 
HETATM   28  C   UNL     1      43.128 -15.658   3.001  1.00  0.00     0.027 C 
ENDBRANCH  19  23
ENDBRANCH   4  18
TORSDOF 7
ENDMDL
MODEL 8
REMARK VINA RESULT:      -7.5      4.816      8.020
REMARK  7 active torsions:
REMARK  status: ('A' for Active; 'I' for Inactive)
REMARK       I    between atoms: N_2  and  C_3 
REMARK    1  A    between atoms: N_2  and  C_17 
REMARK       I    between atoms: C_3  and  N_4 
REMARK    2  A    between atoms: N_4  and  C_5 
REMARK    3  A    between atoms: N_6  and  C_7 
REMARK    4  A    between atoms: C_17  and  C_18 
REMARK    5  A    between atoms: C_18  and  C_19 
REMARK    6  A    between atoms: C_19  and  O_20 
REMARK    7  A    between atoms: C_19  and  C_21 
ROOT
HETATM    1  C   UNL     1      43.168 -13.544   2.580  1.00  0.00     0.154 C 
HETATM    2  N   UNL     1      41.929 -13.933   3.237  1.00  0.00    -0.343 N 
HETATM    3  C   UNL     1      40.665 -13.650   2.723  1.00  0.00     0.301 C 
HETATM    4  N   UNL     1      40.639 -12.489   1.964  1.00  0.00    -0.194 NA
HETATM    5  O   UNL     1      39.675 -14.321   3.003  1.00  0.00    -0.254 OA
HETATM    6  H   UNL     1      41.181 -11.765   2.417  1.00  0.00     0.140 HD
ENDROOT
BRANCH   2   7
HETATM    7  C   UNL     1      42.038 -14.752   4.443  1.00  0.00     0.129 C 
BRANCH   7   8
HETATM    8  C   UNL     1      42.056 -16.254   4.167  1.00  0.00     0.056 C 
BRANCH   8   9
HETATM    9  C   UNL     1      43.491 -16.798   4.071  1.00  0.00     0.152 C 
BRANCH   9  10
HETATM   10  O   UNL     1      44.166 -16.510   5.297  1.00  0.00    -0.391 OA
HETATM   11  H   UNL     1      43.580 -16.795   6.019  1.00  0.00     0.210 HD
ENDBRANCH   9  10
BRANCH   9  12
HETATM   12  C   UNL     1      43.667 -18.282   3.818  1.00  0.00    -0.030 A 
HETATM   13  C   UNL     1      43.416 -18.894   2.580  1.00  0.00     0.010 A 
HETATM   14  C   UNL     1      43.559 -20.275   2.419  1.00  0.00     0.001 A 
HETATM   15  C   UNL     1      43.943 -21.072   3.495  1.00  0.00     0.000 A 
HETATM   16  C   UNL     1      44.184 -20.488   4.734  1.00  0.00     0.001 A 
HETATM   17  C   UNL     1      44.047 -19.106   4.894  1.00  0.00     0.010 A 
ENDBRANCH   9  12
ENDBRANCH   8   9
ENDBRANCH   7   8
ENDBRANCH   2   7
BRANCH   4  18
HETATM   18  C   UNL     1      39.438 -12.061   1.416  1.00  0.00     0.109 A 
HETATM   19  N   UNL     1      39.065 -12.160   0.087  1.00  0.00    -0.254 N 
HETATM   20  N   UNL     1      37.814 -11.683  -0.123  1.00  0.00    -0.183 NA
HETATM   21  C   UNL     1      37.434 -11.218   1.065  1.00  0.00     0.142 A 
HETATM   22  C   UNL     1      38.423 -11.379   2.047  1.00  0.00     0.065 A 
BRANCH  19  23
HETATM   23  C   UNL     1      39.916 -12.509  -1.057  1.00  0.00     0.111 C 
HETATM   24  C   UNL     1      40.245 -14.015  -1.190  1.00  0.00     0.027 C 
HETATM   25  C   UNL     1      39.099 -14.864  -1.757  1.00  0.00     0.002 C 
HETATM   26  C   UNL     1      38.506 -14.275  -3.032  1.00  0.00     0.000 C 
HETATM   27  C   UNL     1      38.140 -12.806  -2.865  1.00  0.00     0.002 C 
HETATM   28  C   UNL     1      39.339 -11.990  -2.389  1.00  0.00     0.027 C 
ENDBRANCH  19  23
ENDBRANCH   4  18
TORSDOF 7
ENDMDL
MODEL 9
REMARK VINA RESULT:      -7.4      5.538      8.283
REMARK  7 active torsions:
REMARK  status: ('A' for Active; 'I' for Inactive)
REMARK       I    between atoms: N_2  and  C_3 
REMARK    1  A    between atoms: N_2  and  C_17 
REMARK       I    between atoms: C_3  and  N_4 
REMARK    2  A    between atoms: N_4  and  C_5 
REMARK    3  A    between atoms: N_6  and  C_7 
REMARK    4  A    between atoms: C_17  and  C_18 
REMARK    5  A    between atoms: C_18  and  C_19 
REMARK    6  A    between atoms: C_19  and  O_20 
REMARK    7  A    between atoms: C_19  and  C_21 
ROOT
HETATM    1  C   UNL     1      39.533 -13.113   3.268  1.00  0.00     0.154 C 
HETATM    2  N   UNL     1      40.570 -13.760   2.479  1.00  0.00    -0.343 N 
HETATM    3  C   UNL     1      40.638 -13.686   1.088  1.00  0.00     0.301 C 
HETATM    4  N   UNL     1      39.393 -13.540   0.495  1.00  0.00    -0.194 NA
HETATM    5  O   UNL     1      41.691 -13.829   0.472  1.00  0.00    -0.254 OA
HETATM    6  H   UNL     1      38.721 -14.149   0.943  1.00  0.00     0.140 HD
ENDROOT
BRANCH   2   7
HETATM    7  C   UNL     1      41.646 -14.431   3.207  1.00  0.00     0.129 C 
BRANCH   7   8
HETATM    8  C   UNL     1      41.456 -15.941   3.333  1.00  0.00     0.056 C 
BRANCH   8   9
HETATM    9  C   UNL     1      42.360 -16.711   2.358  1.00  0.00     0.152 C 
BRANCH   9  10
HETATM   10  O   UNL     1      43.415 -15.844   1.938  1.00  0.00    -0.391 OA
HETATM   11  H   UNL     1      44.225 -16.379   1.899  1.00  0.00     0.210 HD
ENDBRANCH   9  10
BRANCH   9  12
HETATM   12  C   UNL     1      43.019 -17.982   2.861  1.00  0.00    -0.030 A 
HETATM   13  C   UNL     1      43.044 -19.182   2.135  1.00  0.00     0.010 A 
HETATM   14  C   UNL     1      43.633 -20.332   2.669  1.00  0.00     0.001 A 
HETATM   15  C   UNL     1      44.195 -20.307   3.942  1.00  0.00     0.000 A 
HETATM   16  C   UNL     1      44.170 -19.131   4.684  1.00  0.00     0.001 A 
HETATM   17  C   UNL     1      43.586 -17.979   4.148  1.00  0.00     0.010 A 
ENDBRANCH   9  12
ENDBRANCH   8   9
ENDBRANCH   7   8
ENDBRANCH   2   7
BRANCH   4  18
HETATM   18  C   UNL     1      39.300 -13.488  -0.889  1.00  0.00     0.109 A 
HETATM   19  N   UNL     1      39.341 -12.344  -1.668  1.00  0.00    -0.254 N 
HETATM   20  N   UNL     1      39.263 -12.631  -2.990  1.00  0.00    -0.183 NA
HETATM   21  C   UNL     1      39.097 -13.951  -3.032  1.00  0.00     0.142 A 
HETATM   22  C   UNL     1      39.060 -14.529  -1.755  1.00  0.00     0.065 A 
BRANCH  19  23
HETATM   23  C   UNL     1      39.255 -10.951  -1.215  1.00  0.00     0.111 C 
HETATM   24  C   UNL     1      40.530 -10.407  -0.527  1.00  0.00     0.027 C 
HETATM   25  C   UNL     1      41.663 -10.044  -1.496  1.00  0.00     0.002 C 
HETATM   26  C   UNL     1      41.194  -9.163  -2.647  1.00  0.00     0.000 C 
HETATM   27  C   UNL     1      39.969  -9.740  -3.345  1.00  0.00     0.002 C 
HETATM   28  C   UNL     1      38.838  -9.996  -2.352  1.00  0.00     0.027 C 
ENDBRANCH  19  23
ENDBRANCH   4  18
TORSDOF 7
ENDMDL
MODEL 10
REMARK VINA RESULT:      -7.3      2.542      8.936
REMARK  7 active torsions:
REMARK  status: ('A' for Active; 'I' for Inactive)
REMARK       I    between atoms: N_2  and  C_3 
REMARK    1  A    between atoms: N_2  and  C_17 
REMARK       I    between atoms: C_3  and  N_4 
REMARK    2  A    between atoms: N_4  and  C_5 
REMARK    3  A    between atoms: N_6  and  C_7 
REMARK    4  A    between atoms: C_17  and  C_18 
REMARK    5  A    between atoms: C_18  and  C_19 
REMARK    6  A    between atoms: C_19  and  O_20 
REMARK    7  A    between atoms: C_19  and  C_21 
ROOT
HETATM    1  C   UNL     1      42.581 -10.701   6.580  1.00  0.00     0.154 C 
HETATM    2  N   UNL     1      43.640 -11.082   5.657  1.00  0.00    -0.343 N 
HETATM    3  C   UNL     1      43.413 -11.426   4.326  1.00  0.00     0.301 C 
HETATM    4  N   UNL     1      42.163 -11.992   4.121  1.00  0.00    -0.194 NA
HETATM    5  O   UNL     1      44.278 -11.315   3.460  1.00  0.00    -0.254 OA
HETATM    6  H   UNL     1      41.953 -12.648   4.862  1.00  0.00     0.140 HD
ENDROOT
BRANCH   2   7
HETATM    7  C   UNL     1      45.016 -10.993   6.143  1.00  0.00     0.129 C 
BRANCH   7   8
HETATM    8  C   UNL     1      45.184 -11.422   7.599  1.00  0.00     0.056 C 
BRANCH   8   9
HETATM    9  C   UNL     1      45.870 -10.331   8.437  1.00  0.00     0.152 C 
BRANCH   9  10
HETATM   10  O   UNL     1      46.601  -9.477   7.555  1.00  0.00    -0.391 OA
HETATM   11  H   UNL     1      47.341  -9.108   8.065  1.00  0.00     0.210 HD
ENDBRANCH   9  10
BRANCH   9  12
HETATM   12  C   UNL     1      44.988  -9.430   9.280  1.00  0.00    -0.030 A 
HETATM   13  C   UNL     1      44.622  -9.721  10.603  1.00  0.00     0.010 A 
HETATM   14  C   UNL     1      43.773  -8.870  11.317  1.00  0.00     0.001 A 
HETATM   15  C   UNL     1      43.265  -7.721  10.719  1.00  0.00     0.000 A 
HETATM   16  C   UNL     1      43.605  -7.420   9.404  1.00  0.00     0.001 A 
HETATM   17  C   UNL     1      44.458  -8.268   8.691  1.00  0.00     0.010 A 
ENDBRANCH   9  12
ENDBRANCH   8   9
ENDBRANCH   7   8
ENDBRANCH   2   7
BRANCH   4  18
HETATM   18  C   UNL     1      41.810 -12.419   2.848  1.00  0.00     0.109 A 
HETATM   19  N   UNL     1      42.206 -13.599   2.243  1.00  0.00    -0.254 N 
HETATM   20  N   UNL     1      41.661 -13.741   1.010  1.00  0.00    -0.183 NA
HETATM   21  C   UNL     1      40.983 -12.613   0.816  1.00  0.00     0.142 A 
HETATM   22  C   UNL     1      41.083 -11.732   1.903  1.00  0.00     0.065 A 
BRANCH  19  23
HETATM   23  C   UNL     1      43.247 -14.530   2.695  1.00  0.00     0.111 C 
HETATM   24  C   UNL     1      42.939 -15.259   4.024  1.00  0.00     0.027 C 
HETATM   25  C   UNL     1      41.935 -16.413   3.893  1.00  0.00     0.002 C 
HETATM   26  C   UNL     1      42.286 -17.372   2.763  1.00  0.00     0.000 C 
HETATM   27  C   UNL     1      42.535 -16.641   1.450  1.00  0.00     0.002 C 
HETATM   28  C   UNL     1      43.607 -15.566   1.612  1.00  0.00     0.027 C 
ENDBRANCH  19  23
ENDBRANCH   4  18
TORSDOF 7
ENDMDL
