MODEL 1
REMARK VINA RESULT:      -7.6      0.000      0.000
REMARK  9 active torsions:
REMARK  status: ('A' for Active; 'I' for Inactive)
REMARK    1  A    between atoms: O_2  and  C_3 
REMARK    2  A    between atoms: C_4  and  S_5 
REMARK    3  A    between atoms: S_5  and  N_6 
REMARK    4  A    between atoms: N_6  and  C_7 
REMARK    5  A    between atoms: C_7  and  C_8 
REMARK    6  A    between atoms: C_7  and  C_21 
REMARK       I    between atoms: C_8  and  N_9 
REMARK    7  A    between atoms: N_9  and  C_10 
REMARK    8  A    between atoms: C_21  and  C_22 
REMARK    9  A    between atoms: C_22  and  S_23 
ROOT
HETATM    1  C   UNL     1      42.823 -12.871   2.839  1.00  0.00     0.165 C 
ENDROOT
BRANCH   1   2
HETATM    2  N   UNL     1      41.375 -12.654   2.552  1.00  0.00    -0.202 NA
HETATM    3  H   UNL     1      40.881 -13.533   2.339  1.00  0.00     0.141 HD
BRANCH   2   4
HETATM    4  S   UNL     1      40.954 -11.498   1.391  1.00  0.00     0.245 S 
HETATM    5  O   UNL     1      42.109 -10.646   1.209  1.00  0.00    -0.206 OA
HETATM    6  O   UNL     1      39.675 -10.943   1.777  1.00  0.00    -0.206 OA
BRANCH   4   7
HETATM    7  C   UNL     1      40.705 -12.423  -0.101  1.00  0.00     0.107 A 
HETATM    8  C   UNL     1      40.157 -13.713  -0.058  1.00  0.00     0.091 A 
HETATM    9  C   UNL     1      39.940 -14.385  -1.267  1.00  0.00     0.038 A 
HETATM   10  C   UNL     1      40.271 -13.785  -2.486  1.00  0.00     0.003 A 
HETATM   11  C   UNL     1      40.821 -12.507  -2.514  1.00  0.00     0.002 A 
HETATM   12  C   UNL     1      41.039 -11.821  -1.321  1.00  0.00     0.028 A 
BRANCH   8  13
HETATM   13  O   UNL     1      39.874 -14.238   1.174  1.00  0.00    -0.354 OA
HETATM   14  C   UNL     1      39.944 -15.653   1.318  1.00  0.00     0.210 C 
ENDBRANCH   8  13
ENDBRANCH   4   7
ENDBRANCH   2   4
ENDBRANCH   1   2
BRANCH   1  15
HETATM   15  C   UNL     1      43.164 -14.352   2.653  1.00  0.00     0.254 C 
HETATM   16  N   UNL     1      42.877 -15.151   3.737  1.00  0.00    -0.156 N 
HETATM   17  H   UNL     1      42.363 -14.807   4.545  1.00  0.00     0.187 HD
HETATM   18  O   UNL     1      43.636 -14.773   1.594  1.00  0.00    -0.271 OA
BRANCH  16  19
HETATM   19  C   UNL     1      43.153 -16.494   3.743  1.00  0.00     0.708 A 
HETATM   20  N   UNL     1      43.586 -17.165   4.783  1.00  0.00    -0.062 NA
HETATM   21  C   UNL     1      43.717 -18.465   4.349  1.00  0.00     0.103 A 
HETATM   22  C   UNL     1      43.393 -18.576   3.000  1.00  0.00     0.078 A 
HETATM   23  C   UNL     1      44.110 -19.614   5.052  1.00  0.00     0.034 A 
HETATM   24  N   UNL     1      43.020 -17.308   2.646  1.00  0.00    -0.188 N 
HETATM   25  C   UNL     1      43.466 -19.773   2.285  1.00  0.00     0.032 A 
HETATM   26  H   UNL     1      42.691 -16.994   1.743  1.00  0.00     0.184 HD
HETATM   27  C   UNL     1      43.871 -20.905   3.000  1.00  0.00     0.002 A 
HETATM   28  C   UNL     1      44.180 -20.832   4.362  1.00  0.00     0.002 A 
ENDBRANCH  16  19
ENDBRANCH   1  15
BRANCH   1  29
HETATM   29  C   UNL     1      43.047 -12.423   4.294  1.00  0.00     0.040 C 
BRANCH  29  30
HETATM   30  C   UNL     1      43.206 -10.922   4.536  1.00  0.00     0.075 C 
BRANCH  30  31
HETATM   31  S   UNL     1      41.730 -10.088   5.204  1.00  0.00    -0.173 SA
HETATM   32  C   UNL     1      40.912 -11.502   5.993  1.00  0.00     0.089 C 
ENDBRANCH  30  31
ENDBRANCH  29  30
ENDBRANCH   1  29
TORSDOF 9
ENDMDL
MODEL 2
REMARK VINA RESULT:      -7.6      3.156      7.303
REMARK  9 active torsions:
REMARK  status: ('A' for Active; 'I' for Inactive)
REMARK    1  A    between atoms: O_2  and  C_3 
REMARK    2  A    between atoms: C_4  and  S_5 
REMARK    3  A    between atoms: S_5  and  N_6 
REMARK    4  A    between atoms: N_6  and  C_7 
REMARK    5  A    between atoms: C_7  and  C_8 
REMARK    6  A    between atoms: C_7  and  C_21 
REMARK       I    between atoms: C_8  and  N_9 
REMARK    7  A    between atoms: N_9  and  C_10 
REMARK    8  A    between atoms: C_21  and  C_22 
REMARK    9  A    between atoms: C_22  and  S_23 
ROOT
HETATM    1  C   UNL     1      42.748 -16.417   3.657  1.00  0.00     0.165 C 
ENDROOT
BRANCH   1   2
HETATM    2  N   UNL     1      41.481 -16.461   4.443  1.00  0.00    -0.202 NA
HETATM    3  H   UNL     1      40.711 -15.962   3.975  1.00  0.00     0.141 HD
BRANCH   2   4
HETATM    4  S   UNL     1      41.529 -15.990   6.066  1.00  0.00     0.245 S 
HETATM    5  O   UNL     1      42.461 -16.874   6.733  1.00  0.00    -0.206 OA
HETATM    6  O   UNL     1      40.162 -15.870   6.524  1.00  0.00    -0.206 OA
BRANCH   4   7
HETATM    7  C   UNL     1      42.228 -14.360   6.044  1.00  0.00     0.107 A 
HETATM    8  C   UNL     1      41.661 -13.351   5.253  1.00  0.00     0.091 A 
HETATM    9  C   UNL     1      42.224 -12.070   5.304  1.00  0.00     0.038 A 
HETATM   10  C   UNL     1      43.330 -11.808   6.118  1.00  0.00     0.003 A 
HETATM   11  C   UNL     1      43.888 -12.821   6.894  1.00  0.00     0.002 A 
HETATM   12  C   UNL     1      43.338 -14.101   6.860  1.00  0.00     0.028 A 
BRANCH   8  13
HETATM   13  O   UNL     1      40.589 -13.689   4.472  1.00  0.00    -0.354 OA
HETATM   14  C   UNL     1      39.614 -12.682   4.223  1.00  0.00     0.210 C 
ENDBRANCH   8  13
ENDBRANCH   4   7
ENDBRANCH   2   4
ENDBRANCH   1   2
BRANCH   1  15
HETATM   15  C   UNL     1      42.485 -15.754   2.302  1.00  0.00     0.254 C 
HETATM   16  N   UNL     1      41.198 -15.298   2.122  1.00  0.00    -0.156 N 
HETATM   17  H   UNL     1      40.516 -15.289   2.876  1.00  0.00     0.187 HD
HETATM   18  O   UNL     1      43.382 -15.630   1.464  1.00  0.00    -0.271 OA
BRANCH  16  19
HETATM   19  C   UNL     1      40.792 -14.711   0.952  1.00  0.00     0.708 A 
HETATM   20  N   UNL     1      39.866 -15.188   0.157  1.00  0.00    -0.062 NA
HETATM   21  C   UNL     1      39.774 -14.285  -0.879  1.00  0.00     0.103 A 
HETATM   22  C   UNL     1      40.698 -13.256  -0.726  1.00  0.00     0.078 A 
HETATM   23  C   UNL     1      38.923 -14.276  -1.994  1.00  0.00     0.034 A 
HETATM   24  N   UNL     1      41.320 -13.544   0.458  1.00  0.00    -0.188 N 
HETATM   25  C   UNL     1      40.852 -12.215  -1.644  1.00  0.00     0.032 A 
HETATM   26  H   UNL     1      42.040 -13.006   0.921  1.00  0.00     0.184 HD
HETATM   27  C   UNL     1      40.002 -12.230  -2.754  1.00  0.00     0.002 A 
HETATM   28  C   UNL     1      39.046 -13.237  -2.925  1.00  0.00     0.002 A 
ENDBRANCH  16  19
ENDBRANCH   1  15
BRANCH   1  29
HETATM   29  C   UNL     1      43.203 -17.877   3.487  1.00  0.00     0.040 C 
BRANCH  29  30
HETATM   30  C   UNL     1      44.359 -18.346   4.372  1.00  0.00     0.075 C 
BRANCH  30  31
HETATM   31  S   UNL     1      44.184 -20.032   5.040  1.00  0.00    -0.173 SA
HETATM   32  C   UNL     1      43.843 -20.934   3.504  1.00  0.00     0.089 C 
ENDBRANCH  30  31
ENDBRANCH  29  30
ENDBRANCH   1  29
TORSDOF 9
ENDMDL
MODEL 3
REMARK VINA RESULT:      -7.6      2.462      6.718
REMARK  9 active torsions:
REMARK  status: ('A' for Active; 'I' for Inactive)
REMARK    1  A    between atoms: O_2  and  C_3 
REMARK    2  A    between atoms: C_4  and  S_5 
REMARK    3  A    between atoms: S_5  and  N_6 
REMARK    4  A    between atoms: N_6  and  C_7 
REMARK    5  A    between atoms: C_7  and  C_8 
REMARK    6  A    between atoms: C_7  and  C_21 
REMARK       I    between atoms: C_8  and  N_9 
REMARK    7  A    between atoms: N_9  and  C_10 
REMARK    8  A    between atoms: C_21  and  C_22 
REMARK    9  A    between atoms: C_22  and  S_23 
ROOT
HETATM    1  C   UNL     1      42.251 -13.323   5.073  1.00  0.00     0.165 C 
ENDROOT
BRANCH   1   2
HETATM    2  N   UNL     1      43.005 -14.577   5.368  1.00  0.00    -0.202 NA
HETATM    3  H   UNL     1      43.599 -14.872   4.580  1.00  0.00     0.141 HD
BRANCH   2   4
HETATM    4  S   UNL     1      42.140 -15.917   5.930  1.00  0.00     0.245 S 
HETATM    5  O   UNL     1      40.808 -15.822   5.373  1.00  0.00    -0.206 OA
HETATM    6  O   UNL     1      42.344 -15.997   7.359  1.00  0.00    -0.206 OA
BRANCH   4   7
HETATM    7  C   UNL     1      42.948 -17.316   5.198  1.00  0.00     0.107 A 
HETATM    8  C   UNL     1      43.274 -17.320   3.834  1.00  0.00     0.091 A 
HETATM    9  C   UNL     1      43.950 -18.430   3.314  1.00  0.00     0.038 A 
HETATM   10  C   UNL     1      44.283 -19.512   4.135  1.00  0.00     0.003 A 
HETATM   11  C   UNL     1      43.947 -19.498   5.486  1.00  0.00     0.002 A 
HETATM   12  C   UNL     1      43.279 -18.400   6.022  1.00  0.00     0.028 A 
BRANCH   8  13
HETATM   13  O   UNL     1      42.900 -16.231   3.094  1.00  0.00    -0.354 OA
HETATM   14  C   UNL     1      43.256 -16.221   1.715  1.00  0.00     0.210 C 
ENDBRANCH   8  13
ENDBRANCH   4   7
ENDBRANCH   2   4
ENDBRANCH   1   2
BRANCH   1  15
HETATM   15  C   UNL     1      42.127 -13.147   3.557  1.00  0.00     0.254 C 
HETATM   16  N   UNL     1      40.964 -13.641   3.012  1.00  0.00    -0.156 N 
HETATM   17  H   UNL     1      40.196 -13.979   3.586  1.00  0.00     0.187 HD
HETATM   18  O   UNL     1      43.007 -12.580   2.904  1.00  0.00    -0.271 OA
BRANCH  16  19
HETATM   19  C   UNL     1      40.714 -13.591   1.664  1.00  0.00     0.708 A 
HETATM   20  N   UNL     1      40.071 -14.511   0.988  1.00  0.00    -0.062 NA
HETATM   21  C   UNL     1      40.042 -14.054  -0.311  1.00  0.00     0.103 A 
HETATM   22  C   UNL     1      40.721 -12.846  -0.430  1.00  0.00     0.078 A 
HETATM   23  C   UNL     1      39.452 -14.619  -1.452  1.00  0.00     0.034 A 
HETATM   24  N   UNL     1      41.123 -12.567   0.848  1.00  0.00    -0.188 N 
HETATM   25  C   UNL     1      40.881 -12.167  -1.639  1.00  0.00     0.032 A 
HETATM   26  H   UNL     1      41.628 -11.752   1.169  1.00  0.00     0.184 HD
HETATM   27  C   UNL     1      40.295 -12.751  -2.767  1.00  0.00     0.002 A 
HETATM   28  C   UNL     1      39.585 -13.952  -2.677  1.00  0.00     0.002 A 
ENDBRANCH  16  19
ENDBRANCH   1  15
BRANCH   1  29
HETATM   29  C   UNL     1      43.056 -12.175   5.707  1.00  0.00     0.040 C 
BRANCH  29  30
HETATM   30  C   UNL     1      44.228 -12.570   6.606  1.00  0.00     0.075 C 
BRANCH  30  31
HETATM   31  S   UNL     1      45.002 -11.193   7.514  1.00  0.00    -0.173 SA
HETATM   32  C   UNL     1      43.588 -10.060   7.611  1.00  0.00     0.089 C 
ENDBRANCH  30  31
ENDBRANCH  29  30
ENDBRANCH   1  29
TORSDOF 9
ENDMDL
MODEL 4
REMARK VINA RESULT:      -7.5      3.320      7.400
REMARK  9 active torsions:
REMARK  status: ('A' for Active; 'I' for Inactive)
REMARK    1  A    between atoms: O_2  and  C_3 
REMARK    2  A    between atoms: C_4  and  S_5 
REMARK    3  A    between atoms: S_5  and  N_6 
REMARK    4  A    between atoms: N_6  and  C_7 
REMARK    5  A    between atoms: C_7  and  C_8 
REMARK    6  A    between atoms: C_7  and  C_21 
REMARK       I    between atoms: C_8  and  N_9 
REMARK    7  A    between atoms: N_9  and  C_10 
REMARK    8  A    between atoms: C_21  and  C_22 
REMARK    9  A    between atoms: C_22  and  S_23 
ROOT
HETATM    1  C   UNL     1      41.862 -13.978   3.925  1.00  0.00     0.165 C 
ENDROOT
BRANCH   1   2
HETATM    2  N   UNL     1      42.051 -15.458   3.924  1.00  0.00    -0.202 NA
HETATM    3  H   UNL     1      42.671 -15.775   4.683  1.00  0.00     0.141 HD
BRANCH   2   4
HETATM    4  S   UNL     1      42.530 -16.203   2.483  1.00  0.00     0.245 S 
HETATM    5  O   UNL     1      43.622 -15.419   1.947  1.00  0.00    -0.206 OA
HETATM    6  O   UNL     1      41.336 -16.444   1.702  1.00  0.00    -0.206 OA
BRANCH   4   7
HETATM    7  C   UNL     1      43.170 -17.781   2.979  1.00  0.00     0.107 A 
HETATM    8  C   UNL     1      43.894 -17.914   4.172  1.00  0.00     0.091 A 
HETATM    9  C   UNL     1      44.340 -19.189   4.542  1.00  0.00     0.038 A 
HETATM   10  C   UNL     1      44.077 -20.299   3.733  1.00  0.00     0.003 A 
HETATM   11  C   UNL     1      43.363 -20.151   2.547  1.00  0.00     0.002 A 
HETATM   12  C   UNL     1      42.906 -18.892   2.167  1.00  0.00     0.028 A 
BRANCH   8  13
HETATM   13  O   UNL     1      44.124 -16.778   4.901  1.00  0.00    -0.354 OA
HETATM   14  C   UNL     1      44.240 -16.916   6.313  1.00  0.00     0.210 C 
ENDBRANCH   8  13
ENDBRANCH   4   7
ENDBRANCH   2   4
ENDBRANCH   1   2
BRANCH   1  15
HETATM   15  C   UNL     1      42.386 -13.398   5.242  1.00  0.00     0.254 C 
HETATM   16  N   UNL     1      43.127 -12.245   5.109  1.00  0.00    -0.156 N 
HETATM   17  H   UNL     1      43.210 -11.752   4.224  1.00  0.00     0.187 HD
HETATM   18  O   UNL     1      42.129 -13.930   6.324  1.00  0.00    -0.271 OA
BRANCH  16  19
HETATM   19  C   UNL     1      43.696 -11.619   6.188  1.00  0.00     0.708 A 
HETATM   20  N   UNL     1      44.872 -11.041   6.184  1.00  0.00    -0.062 NA
HETATM   21  C   UNL     1      45.036 -10.539   7.456  1.00  0.00     0.103 A 
HETATM   22  C   UNL     1      43.947 -10.858   8.262  1.00  0.00     0.078 A 
HETATM   23  C   UNL     1      46.093  -9.797   8.003  1.00  0.00     0.034 A 
HETATM   24  N   UNL     1      43.101 -11.530   7.422  1.00  0.00    -0.188 N 
HETATM   25  C   UNL     1      43.856 -10.505   9.610  1.00  0.00     0.032 A 
HETATM   26  H   UNL     1      42.186 -11.902   7.639  1.00  0.00     0.184 HD
HETATM   27  C   UNL     1      44.925  -9.776  10.139  1.00  0.00     0.002 A 
HETATM   28  C   UNL     1      46.022  -9.418   9.350  1.00  0.00     0.002 A 
ENDBRANCH  16  19
ENDBRANCH   1  15
BRANCH   1  29
HETATM   29  C   UNL     1      40.351 -13.735   3.768  1.00  0.00     0.040 C 
BRANCH  29  30
HETATM   30  C   UNL     1      39.901 -12.977   2.518  1.00  0.00     0.075 C 
BRANCH  30  31
HETATM   31  S   UNL     1      41.218 -12.641   1.305  1.00  0.00    -0.173 SA
HETATM   32  C   UNL     1      41.684 -10.965   1.819  1.00  0.00     0.089 C 
ENDBRANCH  30  31
ENDBRANCH  29  30
ENDBRANCH   1  29
TORSDOF 9
ENDMDL
MODEL 5
REMARK VINA RESULT:      -7.5      3.833      7.034
REMARK  9 active torsions:
REMARK  status: ('A' for Active; 'I' for Inactive)
REMARK    1  A    between atoms: O_2  and  C_3 
REMARK    2  A    between atoms: C_4  and  S_5 
REMARK    3  A    between atoms: S_5  and  N_6 
REMARK    4  A    between atoms: N_6  and  C_7 
REMARK    5  A    between atoms: C_7  and  C_8 
REMARK    6  A    between atoms: C_7  and  C_21 
REMARK       I    between atoms: C_8  and  N_9 
REMARK    7  A    between atoms: N_9  and  C_10 
REMARK    8  A    between atoms: C_21  and  C_22 
REMARK    9  A    between atoms: C_22  and  S_23 
ROOT
HETATM    1  C   UNL     1      42.772 -16.009   5.690  1.00  0.00     0.165 C 
ENDROOT
BRANCH   1   2
HETATM    2  N   UNL     1      42.539 -15.462   4.321  1.00  0.00    -0.202 NA
HETATM    3  H   UNL     1      42.561 -14.433   4.301  1.00  0.00     0.141 HD
BRANCH   2   4
HETATM    4  S   UNL     1      41.180 -15.995   3.467  1.00  0.00     0.245 S 
HETATM    5  O   UNL     1      40.181 -16.356   4.449  1.00  0.00    -0.206 OA
HETATM    6  O   UNL     1      41.635 -16.954   2.483  1.00  0.00    -0.206 OA
BRANCH   4   7
HETATM    7  C   UNL     1      40.606 -14.564   2.590  1.00  0.00     0.107 A 
HETATM    8  C   UNL     1      40.512 -13.323   3.234  1.00  0.00     0.091 A 
HETATM    9  C   UNL     1      40.095 -12.214   2.487  1.00  0.00     0.038 A 
HETATM   10  C   UNL     1      39.772 -12.348   1.134  1.00  0.00     0.003 A 
HETATM   11  C   UNL     1      39.863 -13.588   0.508  1.00  0.00     0.002 A 
HETATM   12  C   UNL     1      40.281 -14.700   1.234  1.00  0.00     0.028 A 
BRANCH   8  13
HETATM   13  O   UNL     1      40.831 -13.277   4.565  1.00  0.00    -0.354 OA
HETATM   14  C   UNL     1      39.788 -12.957   5.480  1.00  0.00     0.210 C 
ENDBRANCH   8  13
ENDBRANCH   4   7
ENDBRANCH   2   4
ENDBRANCH   1   2
BRANCH   1  15
HETATM   15  C   UNL     1      43.168 -14.870   6.634  1.00  0.00     0.254 C 
HETATM   16  N   UNL     1      43.573 -13.714   6.005  1.00  0.00    -0.156 N 
HETATM   17  H   UNL     1      43.492 -13.586   4.999  1.00  0.00     0.187 HD
HETATM   18  O   UNL     1      43.098 -15.000   7.858  1.00  0.00    -0.271 OA
BRANCH  16  19
HETATM   19  C   UNL     1      43.991 -12.613   6.707  1.00  0.00     0.708 A 
HETATM   20  N   UNL     1      45.190 -12.088   6.631  1.00  0.00    -0.062 NA
HETATM   21  C   UNL     1      45.169 -11.007   7.484  1.00  0.00     0.103 A 
HETATM   22  C   UNL     1      43.938 -10.901   8.124  1.00  0.00     0.078 A 
HETATM   23  C   UNL     1      46.168 -10.064   7.769  1.00  0.00     0.034 A 
HETATM   24  N   UNL     1      43.202 -11.927   7.595  1.00  0.00    -0.188 N 
HETATM   25  C   UNL     1      43.642  -9.917   9.069  1.00  0.00     0.032 A 
HETATM   26  H   UNL     1      42.239 -12.160   7.797  1.00  0.00     0.184 HD
HETATM   27  C   UNL     1      44.655  -8.993   9.347  1.00  0.00     0.002 A 
HETATM   28  C   UNL     1      45.894  -9.058   8.703  1.00  0.00     0.002 A 
ENDBRANCH  16  19
ENDBRANCH   1  15
BRANCH   1  29
HETATM   29  C   UNL     1      43.902 -17.045   5.555  1.00  0.00     0.040 C 
BRANCH  29  30
HETATM   30  C   UNL     1      43.620 -18.447   6.097  1.00  0.00     0.075 C 
BRANCH  30  31
HETATM   31  S   UNL     1      44.083 -19.811   4.982  1.00  0.00    -0.173 SA
HETATM   32  C   UNL     1      44.268 -18.888   3.432  1.00  0.00     0.089 C 
ENDBRANCH  30  31
ENDBRANCH  29  30
ENDBRANCH   1  29
TORSDOF 9
ENDMDL
MODEL 6
REMARK VINA RESULT:      -7.4      3.030      7.264
REMARK  9 active torsions:
REMARK  status: ('A' for Active; 'I' for Inactive)
REMARK    1  A    between atoms: O_2  and  C_3 
REMARK    2  A    between atoms: C_4  and  S_5 
REMARK    3  A    between atoms: S_5  and  N_6 
REMARK    4  A    between atoms: N_6  and  C_7 
REMARK    5  A    between atoms: C_7  and  C_8 
REMARK    6  A    between atoms: C_7  and  C_21 
REMARK       I    between atoms: C_8  and  N_9 
REMARK    7  A    between atoms: N_9  and  C_10 
REMARK    8  A    between atoms: C_21  and  C_22 
REMARK    9  A    between atoms: C_22  and  S_23 
ROOT
HETATM    1  C   UNL     1      42.481 -13.776   2.845  1.00  0.00     0.165 C 
ENDROOT
BRANCH   1   2
HETATM    2  N   UNL     1      41.359 -14.348   3.643  1.00  0.00    -0.202 NA
HETATM    3  H   UNL     1      41.470 -14.182   4.653  1.00  0.00     0.141 HD
BRANCH   2   4
HETATM    4  S   UNL     1      40.951 -15.972   3.401  1.00  0.00     0.245 S 
HETATM    5  O   UNL     1      40.641 -16.123   1.995  1.00  0.00    -0.206 OA
HETATM    6  O   UNL     1      39.986 -16.333   4.416  1.00  0.00    -0.206 OA
BRANCH   4   7
HETATM    7  C   UNL     1      42.442 -16.869   3.740  1.00  0.00     0.107 A 
HETATM    8  C   UNL     1      43.131 -16.680   4.947  1.00  0.00     0.091 A 
HETATM    9  C   UNL     1      44.279 -17.444   5.186  1.00  0.00     0.038 A 
HETATM   10  C   UNL     1      44.731 -18.367   4.238  1.00  0.00     0.003 A 
HETATM   11  C   UNL     1      44.042 -18.541   3.041  1.00  0.00     0.002 A 
HETATM   12  C   UNL     1      42.895 -17.793   2.788  1.00  0.00     0.028 A 
BRANCH   8  13
HETATM   13  O   UNL     1      42.634 -15.747   5.817  1.00  0.00    -0.354 OA
HETATM   14  C   UNL     1      42.601 -16.089   7.198  1.00  0.00     0.210 C 
ENDBRANCH   8  13
ENDBRANCH   4   7
ENDBRANCH   2   4
ENDBRANCH   1   2
BRANCH   1  15
HETATM   15  C   UNL     1      43.201 -12.705   3.670  1.00  0.00     0.254 C 
HETATM   16  N   UNL     1      42.981 -12.779   5.027  1.00  0.00    -0.156 N 
HETATM   17  H   UNL     1      42.485 -13.557   5.456  1.00  0.00     0.187 HD
HETATM   18  O   UNL     1      43.933 -11.869   3.136  1.00  0.00    -0.271 OA
BRANCH  16  19
HETATM   19  C   UNL     1      43.525 -11.874   5.902  1.00  0.00     0.708 A 
HETATM   20  N   UNL     1      42.850 -10.947   6.537  1.00  0.00    -0.062 NA
HETATM   21  C   UNL     1      43.779 -10.282   7.306  1.00  0.00     0.103 A 
HETATM   22  C   UNL     1      45.056 -10.794   7.099  1.00  0.00     0.078 A 
HETATM   23  C   UNL     1      43.608  -9.224   8.210  1.00  0.00     0.034 A 
HETATM   24  N   UNL     1      44.860 -11.819   6.213  1.00  0.00    -0.188 N 
HETATM   25  C   UNL     1      46.199 -10.291   7.722  1.00  0.00     0.032 A 
HETATM   26  H   UNL     1      45.557 -12.450   5.840  1.00  0.00     0.184 HD
HETATM   27  C   UNL     1      46.010  -9.229   8.612  1.00  0.00     0.002 A 
HETATM   28  C   UNL     1      44.736  -8.707   8.861  1.00  0.00     0.002 A 
ENDBRANCH  16  19
ENDBRANCH   1  15
BRANCH   1  29
HETATM   29  C   UNL     1      41.848 -13.175   1.577  1.00  0.00     0.040 C 
BRANCH  29  30
HETATM   30  C   UNL     1      40.513 -12.450   1.751  1.00  0.00     0.075 C 
BRANCH  30  31
HETATM   31  S   UNL     1      39.454 -12.418   0.269  1.00  0.00    -0.173 SA
HETATM   32  C   UNL     1      40.131 -13.848  -0.619  1.00  0.00     0.089 C 
ENDBRANCH  30  31
ENDBRANCH  29  30
ENDBRANCH   1  29
TORSDOF 9
ENDMDL
MODEL 7
REMARK VINA RESULT:      -7.4      1.523      2.173
REMARK  9 active torsions:
REMARK  status: ('A' for Active; 'I' for Inactive)
REMARK    1  A    between atoms: O_2  and  C_3 
REMARK    2  A    between atoms: C_4  and  S_5 
REMARK    3  A    between atoms: S_5  and  N_6 
REMARK    4  A    between atoms: N_6  and  C_7 
REMARK    5  A    between atoms: C_7  and  C_8 
REMARK    6  A    between atoms: C_7  and  C_21 
REMARK       I    between atoms: C_8  and  N_9 
REMARK    7  A    between atoms: N_9  and  C_10 
REMARK    8  A    between atoms: C_21  and  C_22 
REMARK    9  A    between atoms: C_22  and  S_23 
ROOT
HETATM    1  C   UNL     1      41.773 -13.199   4.812  1.00  0.00     0.165 C 
ENDROOT
BRANCH   1   2
HETATM    2  N   UNL     1      41.086 -12.832   3.540  1.00  0.00    -0.202 NA
HETATM    3  H   UNL     1      40.422 -13.555   3.229  1.00  0.00     0.141 HD
BRANCH   2   4
HETATM    4  S   UNL     1      42.038 -12.365   2.222  1.00  0.00     0.245 S 
HETATM    5  O   UNL     1      43.268 -13.125   2.302  1.00  0.00    -0.206 OA
HETATM    6  O   UNL     1      42.059 -10.919   2.193  1.00  0.00    -0.206 OA
BRANCH   4   7
HETATM    7  C   UNL     1      41.138 -12.913   0.796  1.00  0.00     0.107 A 
HETATM    8  C   UNL     1      40.603 -14.208   0.743  1.00  0.00     0.091 A 
HETATM    9  C   UNL     1      39.863 -14.578  -0.386  1.00  0.00     0.038 A 
HETATM   10  C   UNL     1      39.672 -13.679  -1.439  1.00  0.00     0.003 A 
HETATM   11  C   UNL     1      40.215 -12.398  -1.378  1.00  0.00     0.002 A 
HETATM   12  C   UNL     1      40.949 -12.011  -0.259  1.00  0.00     0.028 A 
BRANCH   8  13
HETATM   13  O   UNL     1      40.847 -15.035   1.807  1.00  0.00    -0.354 OA
HETATM   14  C   UNL     1      39.823 -15.956   2.171  1.00  0.00     0.210 C 
ENDBRANCH   8  13
ENDBRANCH   4   7
ENDBRANCH   2   4
ENDBRANCH   1   2
BRANCH   1  15
HETATM   15  C   UNL     1      41.915 -14.722   4.895  1.00  0.00     0.254 C 
HETATM   16  N   UNL     1      42.964 -15.243   4.170  1.00  0.00    -0.156 N 
HETATM   17  H   UNL     1      43.661 -14.653   3.722  1.00  0.00     0.187 HD
HETATM   18  O   UNL     1      41.150 -15.401   5.583  1.00  0.00    -0.271 OA
BRANCH  16  19
HETATM   19  C   UNL     1      43.208 -16.591   4.112  1.00  0.00     0.708 A 
HETATM   20  N   UNL     1      43.190 -17.308   3.015  1.00  0.00    -0.062 NA
HETATM   21  C   UNL     1      43.496 -18.590   3.413  1.00  0.00     0.103 A 
HETATM   22  C   UNL     1      43.664 -18.657   4.793  1.00  0.00     0.078 A 
HETATM   23  C   UNL     1      43.650 -19.758   2.652  1.00  0.00     0.034 A 
HETATM   24  N   UNL     1      43.492 -17.365   5.209  1.00  0.00    -0.188 N 
HETATM   25  C   UNL     1      43.949 -19.839   5.479  1.00  0.00     0.032 A 
HETATM   26  H   UNL     1      43.563 -17.008   6.152  1.00  0.00     0.184 HD
HETATM   27  C   UNL     1      44.087 -20.995   4.703  1.00  0.00     0.002 A 
HETATM   28  C   UNL     1      43.949 -20.957   3.312  1.00  0.00     0.002 A 
ENDBRANCH  16  19
ENDBRANCH   1  15
BRANCH   1  29
HETATM   29  C   UNL     1      40.892 -12.657   5.951  1.00  0.00     0.040 C 
BRANCH  29  30
HETATM   30  C   UNL     1      39.449 -12.296   5.595  1.00  0.00     0.075 C 
BRANCH  30  31
HETATM   31  S   UNL     1      38.938 -10.611   6.063  1.00  0.00    -0.173 SA
HETATM   32  C   UNL     1      39.954  -9.653   4.905  1.00  0.00     0.089 C 
ENDBRANCH  30  31
ENDBRANCH  29  30
ENDBRANCH   1  29
TORSDOF 9
ENDMDL
MODEL 8
REMARK VINA RESULT:      -7.3      3.060      6.434
REMARK  9 active torsions:
REMARK  status: ('A' for Active; 'I' for Inactive)
REMARK    1  A    between atoms: O_2  and  C_3 
REMARK    2  A    between atoms: C_4  and  S_5 
REMARK    3  A    between atoms: S_5  and  N_6 
REMARK    4  A    between atoms: N_6  and  C_7 
REMARK    5  A    between atoms: C_7  and  C_8 
REMARK    6  A    between atoms: C_7  and  C_21 
REMARK       I    between atoms: C_8  and  N_9 
REMARK    7  A    between atoms: N_9  and  C_10 
REMARK    8  A    between atoms: C_21  and  C_22 
REMARK    9  A    between atoms: C_22  and  S_23 
ROOT
HETATM    1  C   UNL     1      41.886 -14.454   4.012  1.00  0.00     0.165 C 
ENDROOT
BRANCH   1   2
HETATM    2  N   UNL     1      41.663 -14.111   2.577  1.00  0.00    -0.202 NA
HETATM    3  H   UNL     1      42.000 -13.167   2.342  1.00  0.00     0.141 HD
BRANCH   2   4
HETATM    4  S   UNL     1      40.109 -14.309   1.939  1.00  0.00     0.245 S 
HETATM    5  O   UNL     1      39.238 -13.410   2.666  1.00  0.00    -0.206 OA
HETATM    6  O   UNL     1      39.837 -15.729   1.893  1.00  0.00    -0.206 OA
BRANCH   4   7
HETATM    7  C   UNL     1      40.229 -13.735   0.266  1.00  0.00     0.107 A 
HETATM    8  C   UNL     1      40.882 -12.530  -0.030  1.00  0.00     0.091 A 
HETATM    9  C   UNL     1      40.988 -12.142  -1.371  1.00  0.00     0.038 A 
HETATM   10  C   UNL     1      40.447 -12.935  -2.388  1.00  0.00     0.003 A 
HETATM   11  C   UNL     1      39.795 -14.126  -2.080  1.00  0.00     0.002 A 
HETATM   12  C   UNL     1      39.685 -14.530  -0.752  1.00  0.00     0.028 A 
BRANCH   8  13
HETATM   13  O   UNL     1      41.371 -11.803   1.021  1.00  0.00    -0.354 OA
HETATM   14  C   UNL     1      40.837 -10.498   1.222  1.00  0.00     0.210 C 
ENDBRANCH   8  13
ENDBRANCH   4   7
ENDBRANCH   2   4
ENDBRANCH   1   2
BRANCH   1  15
HETATM   15  C   UNL     1      42.296 -13.194   4.779  1.00  0.00     0.254 C 
HETATM   16  N   UNL     1      43.338 -13.370   5.663  1.00  0.00    -0.156 N 
HETATM   17  H   UNL     1      43.872 -14.234   5.707  1.00  0.00     0.187 HD
HETATM   18  O   UNL     1      41.735 -12.113   4.584  1.00  0.00    -0.271 OA
BRANCH  16  19
HETATM   19  C   UNL     1      43.803 -12.349   6.451  1.00  0.00     0.708 A 
HETATM   20  N   UNL     1      45.056 -11.971   6.525  1.00  0.00    -0.062 NA
HETATM   21  C   UNL     1      45.068 -10.920   7.415  1.00  0.00     0.103 A 
HETATM   22  C   UNL     1      43.794 -10.683   7.923  1.00  0.00     0.078 A 
HETATM   23  C   UNL     1      46.133 -10.114   7.844  1.00  0.00     0.034 A 
HETATM   24  N   UNL     1      43.006 -11.597   7.277  1.00  0.00    -0.188 N 
HETATM   25  C   UNL     1      43.513  -9.697   8.871  1.00  0.00     0.032 A 
HETATM   26  H   UNL     1      42.006 -11.717   7.365  1.00  0.00     0.184 HD
HETATM   27  C   UNL     1      44.590  -8.912   9.294  1.00  0.00     0.002 A 
HETATM   28  C   UNL     1      45.877  -9.109   8.785  1.00  0.00     0.002 A 
ENDBRANCH  16  19
ENDBRANCH   1  15
BRANCH   1  29
HETATM   29  C   UNL     1      43.002 -15.513   4.035  1.00  0.00     0.040 C 
BRANCH  29  30
HETATM   30  C   UNL     1      42.565 -16.976   3.963  1.00  0.00     0.075 C 
BRANCH  30  31
HETATM   31  S   UNL     1      42.995 -17.834   2.414  1.00  0.00    -0.173 SA
HETATM   32  C   UNL     1      43.920 -19.240   3.092  1.00  0.00     0.089 C 
ENDBRANCH  30  31
ENDBRANCH  29  30
ENDBRANCH   1  29
TORSDOF 9
ENDMDL
MODEL 9
REMARK VINA RESULT:      -7.0      3.707      7.046
REMARK  9 active torsions:
REMARK  status: ('A' for Active; 'I' for Inactive)
REMARK    1  A    between atoms: O_2  and  C_3 
REMARK    2  A    between atoms: C_4  and  S_5 
REMARK    3  A    between atoms: S_5  and  N_6 
REMARK    4  A    between atoms: N_6  and  C_7 
REMARK    5  A    between atoms: C_7  and  C_8 
REMARK    6  A    between atoms: C_7  and  C_21 
REMARK       I    between atoms: C_8  and  N_9 
REMARK    7  A    between atoms: N_9  and  C_10 
REMARK    8  A    between atoms: C_21  and  C_22 
REMARK    9  A    between atoms: C_22  and  S_23 
ROOT
HETATM    1  C   UNL     1      40.828 -11.700   6.043  1.00  0.00     0.165 C 
ENDROOT
BRANCH   1   2
HETATM    2  N   UNL     1      42.006 -11.044   6.681  1.00  0.00    -0.202 NA
HETATM    3  H   UNL     1      42.535 -11.688   7.285  1.00  0.00     0.141 HD
BRANCH   2   4
HETATM    4  S   UNL     1      41.758  -9.594   7.517  1.00  0.00     0.245 S 
HETATM    5  O   UNL     1      40.438  -9.667   8.104  1.00  0.00    -0.206 OA
HETATM    6  O   UNL     1      42.115  -8.513   6.625  1.00  0.00    -0.206 OA
BRANCH   4   7
HETATM    7  C   UNL     1      42.952  -9.618   8.829  1.00  0.00     0.107 A 
HETATM    8  C   UNL     1      44.293  -9.930   8.568  1.00  0.00     0.091 A 
HETATM    9  C   UNL     1      45.205  -9.893   9.630  1.00  0.00     0.038 A 
HETATM   10  C   UNL     1      44.783  -9.560  10.920  1.00  0.00     0.003 A 
HETATM   11  C   UNL     1      43.446  -9.259  11.167  1.00  0.00     0.002 A 
HETATM   12  C   UNL     1      42.526  -9.286  10.122  1.00  0.00     0.028 A 
BRANCH   8  13
HETATM   13  O   UNL     1      44.625 -10.260   7.281  1.00  0.00    -0.354 OA
HETATM   14  C   UNL     1      45.780 -11.070   7.088  1.00  0.00     0.210 C 
ENDBRANCH   8  13
ENDBRANCH   4   7
ENDBRANCH   2   4
ENDBRANCH   1   2
BRANCH   1  15
HETATM   15  C   UNL     1      41.158 -13.167   5.750  1.00  0.00     0.254 C 
HETATM   16  N   UNL     1      42.253 -13.362   4.939  1.00  0.00    -0.156 N 
HETATM   17  H   UNL     1      42.866 -12.598   4.662  1.00  0.00     0.187 HD
HETATM   18  O   UNL     1      40.491 -14.083   6.237  1.00  0.00    -0.271 OA
BRANCH  16  19
HETATM   19  C   UNL     1      42.660 -14.613   4.555  1.00  0.00     0.708 A 
HETATM   20  N   UNL     1      42.468 -15.132   3.367  1.00  0.00    -0.062 NA
HETATM   21  C   UNL     1      43.040 -16.383   3.418  1.00  0.00     0.103 A 
HETATM   22  C   UNL     1      43.556 -16.644   4.684  1.00  0.00     0.078 A 
HETATM   23  C   UNL     1      43.158 -17.362   2.420  1.00  0.00     0.034 A 
HETATM   24  N   UNL     1      43.315 -15.491   5.382  1.00  0.00    -0.188 N 
HETATM   25  C   UNL     1      44.166 -17.850   5.035  1.00  0.00     0.032 A 
HETATM   26  H   UNL     1      43.571 -15.287   6.339  1.00  0.00     0.184 HD
HETATM   27  C   UNL     1      44.264 -18.817   4.030  1.00  0.00     0.002 A 
HETATM   28  C   UNL     1      43.778 -18.577   2.741  1.00  0.00     0.002 A 
ENDBRANCH  16  19
ENDBRANCH   1  15
BRANCH   1  29
HETATM   29  C   UNL     1      40.548 -10.920   4.746  1.00  0.00     0.040 C 
BRANCH  29  30
HETATM   30  C   UNL     1      39.092 -10.857   4.281  1.00  0.00     0.075 C 
BRANCH  30  31
HETATM   31  S   UNL     1      38.816 -11.341   2.547  1.00  0.00    -0.173 SA
HETATM   32  C   UNL     1      39.235 -13.102   2.651  1.00  0.00     0.089 C 
ENDBRANCH  30  31
ENDBRANCH  29  30
ENDBRANCH   1  29
TORSDOF 9
ENDMDL
MODEL 10
REMARK VINA RESULT:      -7.0      1.423      2.308
REMARK  9 active torsions:
REMARK  status: ('A' for Active; 'I' for Inactive)
REMARK    1  A    between atoms: O_2  and  C_3 
REMARK    2  A    between atoms: C_4  and  S_5 
REMARK    3  A    between atoms: S_5  and  N_6 
REMARK    4  A    between atoms: N_6  and  C_7 
REMARK    5  A    between atoms: C_7  and  C_8 
REMARK    6  A    between atoms: C_7  and  C_21 
REMARK       I    between atoms: C_8  and  N_9 
REMARK    7  A    between atoms: N_9  and  C_10 
REMARK    8  A    between atoms: C_21  and  C_22 
REMARK    9  A    between atoms: C_22  and  S_23 
ROOT
HETATM    1  C   UNL     1      41.485 -12.553   3.960  1.00  0.00     0.165 C 
ENDROOT
BRANCH   1   2
HETATM    2  N   UNL     1      40.438 -12.107   2.997  1.00  0.00    -0.202 NA
HETATM    3  H   UNL     1      39.856 -12.887   2.660  1.00  0.00     0.141 HD
BRANCH   2   4
HETATM    4  S   UNL     1      40.916 -11.172   1.671  1.00  0.00     0.245 S 
HETATM    5  O   UNL     1      42.345 -10.978   1.786  1.00  0.00    -0.206 OA
HETATM    6  O   UNL     1      40.017 -10.041   1.590  1.00  0.00    -0.206 OA
BRANCH   4   7
HETATM    7  C   UNL     1      40.607 -12.199   0.258  1.00  0.00     0.107 A 
HETATM    8  C   UNL     1      40.908 -11.745  -1.034  1.00  0.00     0.091 A 
HETATM    9  C   UNL     1      40.687 -12.609  -2.113  1.00  0.00     0.038 A 
HETATM   10  C   UNL     1      40.170 -13.891  -1.904  1.00  0.00     0.003 A 
HETATM   11  C   UNL     1      39.869 -14.327  -0.617  1.00  0.00     0.002 A 
HETATM   12  C   UNL     1      40.087 -13.483   0.469  1.00  0.00     0.028 A 
BRANCH   8  13
HETATM   13  O   UNL     1      41.397 -10.472  -1.157  1.00  0.00    -0.354 OA
HETATM   14  C   UNL     1      40.958  -9.705  -2.274  1.00  0.00     0.210 C 
ENDBRANCH   8  13
ENDBRANCH   4   7
ENDBRANCH   2   4
ENDBRANCH   1   2
BRANCH   1  15
HETATM   15  C   UNL     1      41.576 -14.081   3.944  1.00  0.00     0.254 C 
HETATM   16  N   UNL     1      42.849 -14.582   3.783  1.00  0.00    -0.156 N 
HETATM   17  H   UNL     1      43.673 -13.986   3.802  1.00  0.00     0.187 HD
HETATM   18  O   UNL     1      40.574 -14.785   4.089  1.00  0.00    -0.271 OA
BRANCH  16  19
HETATM   19  C   UNL     1      43.097 -15.928   3.713  1.00  0.00     0.708 A 
HETATM   20  N   UNL     1      43.662 -16.636   4.661  1.00  0.00    -0.062 NA
HETATM   21  C   UNL     1      43.704 -17.925   4.179  1.00  0.00     0.103 A 
HETATM   22  C   UNL     1      43.187 -17.991   2.888  1.00  0.00     0.078 A 
HETATM   23  C   UNL     1      44.171 -19.100   4.786  1.00  0.00     0.034 A 
HETATM   24  N   UNL     1      42.792 -16.707   2.625  1.00  0.00    -0.188 N 
HETATM   25  C   UNL     1      43.133 -19.167   2.138  1.00  0.00     0.032 A 
HETATM   26  H   UNL     1      42.342 -16.361   1.788  1.00  0.00     0.184 HD
HETATM   27  C   UNL     1      43.614 -20.325   2.757  1.00  0.00     0.002 A 
HETATM   28  C   UNL     1      44.117 -20.297   4.061  1.00  0.00     0.002 A 
ENDBRANCH  16  19
ENDBRANCH   1  15
BRANCH   1  29
HETATM   29  C   UNL     1      41.052 -12.033   5.342  1.00  0.00     0.040 C 
BRANCH  29  30
HETATM   30  C   UNL     1      42.063 -11.172   6.102  1.00  0.00     0.075 C 
BRANCH  30  31
HETATM   31  S   UNL     1      43.798 -11.386   5.590  1.00  0.00    -0.173 SA
HETATM   32  C   UNL     1      44.255 -12.791   6.642  1.00  0.00     0.089 C 
ENDBRANCH  30  31
ENDBRANCH  29  30
ENDBRANCH   1  29
TORSDOF 9
ENDMDL
