MODEL 1
REMARK VINA RESULT:     -10.6      0.000      0.000
REMARK  7 active torsions:
REMARK  status: ('A' for Active; 'I' for Inactive)
REMARK    1  A    between atoms: C_3  and  C_4 
REMARK       I    between atoms: C_4  and  N_5 
REMARK    2  A    between atoms: N_5  and  C_6 
REMARK    3  A    between atoms: C_6  and  C_7 
REMARK    4  A    between atoms: N_23  and  C_24 
REMARK    5  A    between atoms: C_24  and  C_25 
REMARK       I    between atoms: C_25  and  N_26 
REMARK    6  A    between atoms: N_26  and  C_27 
REMARK    7  A    between atoms: C_29  and  C_30 
ROOT
HETATM    1  C   UNL     1      38.741 -11.674   6.302  1.00  0.00     0.051 C 
HETATM    2  C   UNL     1      40.085 -11.027   6.138  1.00  0.00    -0.021 A 
HETATM    3  C   UNL     1      40.594 -10.036   6.976  1.00  0.00     0.081 A 
HETATM    4  S   UNL     1      42.188  -9.585   6.518  1.00  0.00    -0.063 SA
HETATM    5  C   UNL     1      42.211 -10.664   5.211  1.00  0.00     0.116 A 
HETATM    6  C   UNL     1      41.019 -11.340   5.080  1.00  0.00     0.075 A 
HETATM    7  C   UNL     1      40.892 -12.251   3.951  1.00  0.00     0.262 A 
HETATM    8  O   UNL     1      39.843 -12.820   3.664  1.00  0.00    -0.267 OA
HETATM    9  N   UNL     1      42.056 -12.385   3.193  1.00  0.00    -0.299 N 
HETATM   10  C   UNL     1      43.199 -11.661   3.482  1.00  0.00     0.214 A 
HETATM   11  N   UNL     1      43.313 -10.791   4.430  1.00  0.00    -0.235 NA
ENDROOT
BRANCH   3  12
HETATM   12  C   UNL     1      39.945  -9.394   8.125  1.00  0.00     0.259 C 
HETATM   13  N   UNL     1      40.479  -9.697   9.359  1.00  0.00    -0.354 N 
HETATM   14  H   UNL     1      41.340 -10.232   9.363  1.00  0.00     0.162 HD
HETATM   15  O   UNL     1      38.998  -8.616   8.025  1.00  0.00    -0.267 OA
BRANCH  13  16
HETATM   16  C   UNL     1      40.059  -9.029  10.572  1.00  0.00     0.157 C 
BRANCH  16  17
HETATM   17  C   UNL     1      41.165  -8.273  11.335  1.00  0.00     0.171 C 
HETATM   18  O   UNL     1      42.031  -7.577  10.424  1.00  0.00    -0.339 OA
HETATM   19  C   UNL     1      43.175  -8.261  10.111  1.00  0.00     0.102 A 
HETATM   20  C   UNL     1      43.558  -9.454  10.728  1.00  0.00     0.102 A 
HETATM   21  C   UNL     1      43.954  -7.729   9.085  1.00  0.00     0.039 A 
HETATM   22  O   UNL     1      42.824 -10.050  11.718  1.00  0.00    -0.346 OA
HETATM   23  C   UNL     1      44.695 -10.133  10.296  1.00  0.00     0.039 A 
HETATM   24  C   UNL     1      41.946  -9.113  12.343  1.00  0.00     0.209 C 
HETATM   25  C   UNL     1      45.468  -9.606   9.261  1.00  0.00     0.003 A 
HETATM   26  C   UNL     1      45.101  -8.402   8.660  1.00  0.00     0.003 A 
ENDBRANCH  16  17
ENDBRANCH  13  16
ENDBRANCH   3  12
BRANCH   9  27
HETATM   27  C   UNL     1      42.081 -13.353   2.105  1.00  0.00     0.236 C 
BRANCH  27  28
HETATM   28  C   UNL     1      42.991 -14.569   2.323  1.00  0.00     0.240 C 
HETATM   29  N   UNL     1      42.680 -15.352   3.419  1.00  0.00    -0.326 N 
HETATM   30  H   UNL     1      42.015 -14.969   4.081  1.00  0.00     0.169 HD
HETATM   31  O   UNL     1      43.896 -14.790   1.520  1.00  0.00    -0.271 OA
BRANCH  29  32
HETATM   32  C   UNL     1      43.206 -16.621   3.744  1.00  0.00     0.035 A 
HETATM   33  C   UNL     1      43.109 -17.744   2.917  1.00  0.00     0.045 A 
HETATM   34  C   UNL     1      43.621 -18.990   3.322  1.00  0.00     0.050 A 
HETATM   35  C   UNL     1      44.234 -19.099   4.579  1.00  0.00     0.016 A 
HETATM   36  C   UNL     1      44.336 -17.986   5.409  1.00  0.00     0.003 A 
HETATM   37  C   UNL     1      43.825 -16.754   4.993  1.00  0.00     0.029 A 
BRANCH  34  38
HETATM   38  C   UNL     1      43.506 -20.206   2.435  1.00  0.00     0.417 C 
HETATM   39  F   UNL     1      44.379 -20.215   1.391  1.00  0.00    -0.166 F 
HETATM   40  F   UNL     1      43.723 -21.368   3.114  1.00  0.00    -0.166 F 
HETATM   41  F   UNL     1      42.265 -20.325   1.883  1.00  0.00    -0.166 F 
ENDBRANCH  34  38
ENDBRANCH  29  32
ENDBRANCH  27  28
ENDBRANCH   9  27
TORSDOF 7
ENDMDL
MODEL 2
REMARK VINA RESULT:     -10.4      1.755      2.980
REMARK  7 active torsions:
REMARK  status: ('A' for Active; 'I' for Inactive)
REMARK    1  A    between atoms: C_3  and  C_4 
REMARK       I    between atoms: C_4  and  N_5 
REMARK    2  A    between atoms: N_5  and  C_6 
REMARK    3  A    between atoms: C_6  and  C_7 
REMARK    4  A    between atoms: N_23  and  C_24 
REMARK    5  A    between atoms: C_24  and  C_25 
REMARK       I    between atoms: C_25  and  N_26 
REMARK    6  A    between atoms: N_26  and  C_27 
REMARK    7  A    between atoms: C_29  and  C_30 
ROOT
HETATM    1  C   UNL     1      42.995 -10.743   6.751  1.00  0.00     0.051 C 
HETATM    2  C   UNL     1      41.571 -10.616   6.294  1.00  0.00    -0.021 A 
HETATM    3  C   UNL     1      40.600  -9.848   6.936  1.00  0.00     0.081 A 
HETATM    4  S   UNL     1      39.106  -9.890   6.088  1.00  0.00    -0.063 SA
HETATM    5  C   UNL     1      39.713 -10.928   4.893  1.00  0.00     0.116 A 
HETATM    6  C   UNL     1      41.021 -11.284   5.137  1.00  0.00     0.075 A 
HETATM    7  C   UNL     1      41.636 -12.228   4.213  1.00  0.00     0.262 A 
HETATM    8  O   UNL     1      42.752 -12.706   4.389  1.00  0.00    -0.267 OA
HETATM    9  N   UNL     1      40.827 -12.576   3.132  1.00  0.00    -0.299 N 
HETATM   10  C   UNL     1      39.536 -12.095   3.005  1.00  0.00     0.214 A 
HETATM   11  N   UNL     1      38.941 -11.319   3.849  1.00  0.00    -0.235 NA
ENDROOT
BRANCH   3  12
HETATM   12  C   UNL     1      40.728  -9.068   8.172  1.00  0.00     0.259 C 
HETATM   13  N   UNL     1      40.351  -9.717   9.329  1.00  0.00    -0.354 N 
HETATM   14  H   UNL     1      40.137 -10.705   9.248  1.00  0.00     0.162 HD
HETATM   15  O   UNL     1      41.158  -7.917   8.210  1.00  0.00    -0.267 OA
BRANCH  13  16
HETATM   16  C   UNL     1      40.563  -9.147  10.643  1.00  0.00     0.157 C 
BRANCH  16  17
HETATM   17  C   UNL     1      41.504  -9.941  11.570  1.00  0.00     0.171 C 
HETATM   18  O   UNL     1      41.055  -9.875  12.934  1.00  0.00    -0.339 OA
HETATM   19  C   UNL     1      41.678  -8.908  13.678  1.00  0.00     0.102 A 
HETATM   20  C   UNL     1      42.759  -8.153  13.219  1.00  0.00     0.102 A 
HETATM   21  C   UNL     1      41.148  -8.665  14.944  1.00  0.00     0.039 A 
HETATM   22  O   UNL     1      43.308  -8.315  11.975  1.00  0.00    -0.346 OA
HETATM   23  C   UNL     1      43.285  -7.130  14.007  1.00  0.00     0.039 A 
HETATM   24  C   UNL     1      42.987  -9.597  11.435  1.00  0.00     0.209 C 
HETATM   25  C   UNL     1      42.746  -6.880  15.269  1.00  0.00     0.003 A 
HETATM   26  C   UNL     1      41.682  -7.650  15.740  1.00  0.00     0.003 A 
ENDBRANCH  16  17
ENDBRANCH  13  16
ENDBRANCH   3  12
BRANCH   9  27
HETATM   27  C   UNL     1      41.376 -13.427   2.085  1.00  0.00     0.236 C 
BRANCH  27  28
HETATM   28  C   UNL     1      41.536 -14.908   2.454  1.00  0.00     0.240 C 
HETATM   29  N   UNL     1      42.836 -15.328   2.670  1.00  0.00    -0.326 N 
HETATM   30  H   UNL     1      43.574 -14.692   2.391  1.00  0.00     0.169 HD
HETATM   31  O   UNL     1      40.531 -15.608   2.565  1.00  0.00    -0.271 OA
BRANCH  29  32
HETATM   32  C   UNL     1      43.261 -16.560   3.212  1.00  0.00     0.035 A 
HETATM   33  C   UNL     1      43.202 -17.778   2.529  1.00  0.00     0.045 A 
HETATM   34  C   UNL     1      43.605 -18.976   3.146  1.00  0.00     0.050 A 
HETATM   35  C   UNL     1      44.071 -18.939   4.469  1.00  0.00     0.016 A 
HETATM   36  C   UNL     1      44.135 -17.729   5.156  1.00  0.00     0.003 A 
HETATM   37  C   UNL     1      43.733 -16.547   4.531  1.00  0.00     0.029 A 
BRANCH  34  38
HETATM   38  C   UNL     1      43.530 -20.294   2.414  1.00  0.00     0.417 C 
HETATM   39  F   UNL     1      42.316 -20.549   1.854  1.00  0.00    -0.166 F 
HETATM   40  F   UNL     1      44.435 -20.378   1.399  1.00  0.00    -0.166 F 
HETATM   41  F   UNL     1      43.791 -21.353   3.233  1.00  0.00    -0.166 F 
ENDBRANCH  34  38
ENDBRANCH  29  32
ENDBRANCH  27  28
ENDBRANCH   9  27
TORSDOF 7
ENDMDL
MODEL 3
REMARK VINA RESULT:     -10.2      1.684      2.203
REMARK  7 active torsions:
REMARK  status: ('A' for Active; 'I' for Inactive)
REMARK    1  A    between atoms: C_3  and  C_4 
REMARK       I    between atoms: C_4  and  N_5 
REMARK    2  A    between atoms: N_5  and  C_6 
REMARK    3  A    between atoms: C_6  and  C_7 
REMARK    4  A    between atoms: N_23  and  C_24 
REMARK    5  A    between atoms: C_24  and  C_25 
REMARK       I    between atoms: C_25  and  N_26 
REMARK    6  A    between atoms: N_26  and  C_27 
REMARK    7  A    between atoms: C_29  and  C_30 
ROOT
HETATM    1  C   UNL     1      42.512 -10.940   6.381  1.00  0.00     0.051 C 
HETATM    2  C   UNL     1      41.158 -10.729   5.771  1.00  0.00    -0.021 A 
HETATM    3  C   UNL     1      40.171  -9.901   6.304  1.00  0.00     0.081 A 
HETATM    4  S   UNL     1      38.779  -9.856   5.296  1.00  0.00    -0.063 SA
HETATM    5  C   UNL     1      39.450 -10.934   4.173  1.00  0.00     0.116 A 
HETATM    6  C   UNL     1      40.699 -11.367   4.558  1.00  0.00     0.075 A 
HETATM    7  C   UNL     1      41.354 -12.351   3.706  1.00  0.00     0.262 A 
HETATM    8  O   UNL     1      42.413 -12.895   4.003  1.00  0.00    -0.267 OA
HETATM    9  N   UNL     1      40.649 -12.654   2.542  1.00  0.00    -0.299 N 
HETATM   10  C   UNL     1      39.411 -12.097   2.274  1.00  0.00     0.214 A 
HETATM   11  N   UNL     1      38.775 -11.282   3.050  1.00  0.00    -0.235 NA
ENDROOT
BRANCH   3  12
HETATM   12  C   UNL     1      40.209  -9.124   7.548  1.00  0.00     0.259 C 
HETATM   13  N   UNL     1      40.802  -7.882   7.459  1.00  0.00    -0.354 N 
HETATM   14  H   UNL     1      41.049  -7.562   6.530  1.00  0.00     0.162 HD
HETATM   15  O   UNL     1      39.733  -9.517   8.611  1.00  0.00    -0.267 OA
BRANCH  13  16
HETATM   16  C   UNL     1      40.780  -6.932   8.550  1.00  0.00     0.157 C 
BRANCH  16  17
HETATM   17  C   UNL     1      42.136  -6.288   8.901  1.00  0.00     0.171 C 
HETATM   18  O   UNL     1      43.213  -6.969   8.237  1.00  0.00    -0.339 OA
HETATM   19  C   UNL     1      43.837  -7.911   9.011  1.00  0.00     0.102 A 
HETATM   20  C   UNL     1      43.569  -8.098  10.369  1.00  0.00     0.102 A 
HETATM   21  C   UNL     1      44.752  -8.738   8.363  1.00  0.00     0.039 A 
HETATM   22  O   UNL     1      42.659  -7.346  11.061  1.00  0.00    -0.346 OA
HETATM   23  C   UNL     1      44.187  -9.134  11.069  1.00  0.00     0.039 A 
HETATM   24  C   UNL     1      42.401  -6.109  10.394  1.00  0.00     0.209 C 
HETATM   25  C   UNL     1      45.094  -9.968  10.416  1.00  0.00     0.003 A 
HETATM   26  C   UNL     1      45.381  -9.767   9.066  1.00  0.00     0.003 A 
ENDBRANCH  16  17
ENDBRANCH  13  16
ENDBRANCH   3  12
BRANCH   9  27
HETATM   27  C   UNL     1      41.257 -13.542   1.560  1.00  0.00     0.236 C 
BRANCH  27  28
HETATM   28  C   UNL     1      41.449 -14.995   2.013  1.00  0.00     0.240 C 
HETATM   29  N   UNL     1      42.749 -15.354   2.320  1.00  0.00    -0.326 N 
HETATM   30  H   UNL     1      43.478 -14.705   2.048  1.00  0.00     0.169 HD
HETATM   31  O   UNL     1      40.465 -15.727   2.106  1.00  0.00    -0.271 OA
BRANCH  29  32
HETATM   32  C   UNL     1      43.187 -16.540   2.946  1.00  0.00     0.035 A 
HETATM   33  C   UNL     1      43.148 -17.803   2.348  1.00  0.00     0.045 A 
HETATM   34  C   UNL     1      43.563 -18.950   3.048  1.00  0.00     0.050 A 
HETATM   35  C   UNL     1      44.022 -18.816   4.367  1.00  0.00     0.016 A 
HETATM   36  C   UNL     1      44.067 -17.562   4.970  1.00  0.00     0.003 A 
HETATM   37  C   UNL     1      43.652 -16.430   4.263  1.00  0.00     0.029 A 
BRANCH  34  38
HETATM   38  C   UNL     1      43.509 -20.316   2.408  1.00  0.00     0.417 C 
HETATM   39  F   UNL     1      42.318 -20.603   1.812  1.00  0.00    -0.166 F 
HETATM   40  F   UNL     1      44.458 -20.477   1.443  1.00  0.00    -0.166 F 
HETATM   41  F   UNL     1      43.724 -21.316   3.309  1.00  0.00    -0.166 F 
ENDBRANCH  34  38
ENDBRANCH  29  32
ENDBRANCH  27  28
ENDBRANCH   9  27
TORSDOF 7
ENDMDL
MODEL 4
REMARK VINA RESULT:      -9.8      2.060      3.497
REMARK  7 active torsions:
REMARK  status: ('A' for Active; 'I' for Inactive)
REMARK    1  A    between atoms: C_3  and  C_4 
REMARK       I    between atoms: C_4  and  N_5 
REMARK    2  A    between atoms: N_5  and  C_6 
REMARK    3  A    between atoms: C_6  and  C_7 
REMARK    4  A    between atoms: N_23  and  C_24 
REMARK    5  A    between atoms: C_24  and  C_25 
REMARK       I    between atoms: C_25  and  N_26 
REMARK    6  A    between atoms: N_26  and  C_27 
REMARK    7  A    between atoms: C_29  and  C_30 
ROOT
HETATM    1  C   UNL     1      43.827 -10.753   6.884  1.00  0.00     0.051 C 
HETATM    2  C   UNL     1      42.341 -10.617   6.735  1.00  0.00    -0.021 A 
HETATM    3  C   UNL     1      41.530  -9.846   7.568  1.00  0.00     0.081 A 
HETATM    4  S   UNL     1      39.891  -9.876   7.050  1.00  0.00    -0.063 SA
HETATM    5  C   UNL     1      40.229 -10.913   5.752  1.00  0.00     0.116 A 
HETATM    6  C   UNL     1      41.556 -11.277   5.716  1.00  0.00     0.075 A 
HETATM    7  C   UNL     1      41.960 -12.220   4.682  1.00  0.00     0.262 A 
HETATM    8  O   UNL     1      43.085 -12.705   4.620  1.00  0.00    -0.267 OA
HETATM    9  N   UNL     1      40.940 -12.560   3.793  1.00  0.00    -0.299 N 
HETATM   10  C   UNL     1      39.654 -12.072   3.939  1.00  0.00     0.214 A 
HETATM   11  N   UNL     1      39.254 -11.295   4.891  1.00  0.00    -0.235 NA
ENDROOT
BRANCH   3  12
HETATM   12  C   UNL     1      41.917  -9.072   8.752  1.00  0.00     0.259 C 
HETATM   13  N   UNL     1      41.675  -9.678   9.967  1.00  0.00    -0.354 N 
HETATM   14  H   UNL     1      41.368 -10.643   9.941  1.00  0.00     0.162 HD
HETATM   15  O   UNL     1      42.444  -7.962   8.698  1.00  0.00    -0.267 OA
BRANCH  13  16
HETATM   16  C   UNL     1      42.140  -9.119  11.219  1.00  0.00     0.157 C 
BRANCH  16  17
HETATM   17  C   UNL     1      41.378  -9.579  12.477  1.00  0.00     0.171 C 
HETATM   18  O   UNL     1      39.982  -9.250  12.379  1.00  0.00    -0.339 OA
HETATM   19  C   UNL     1      39.641  -8.079  13.005  1.00  0.00     0.102 A 
HETATM   20  C   UNL     1      40.520  -7.342  13.801  1.00  0.00     0.102 A 
HETATM   21  C   UNL     1      38.349  -7.609  12.777  1.00  0.00     0.039 A 
HETATM   22  O   UNL     1      41.812  -7.726  14.040  1.00  0.00    -0.346 OA
HETATM   23  C   UNL     1      40.122  -6.118  14.336  1.00  0.00     0.039 A 
HETATM   24  C   UNL     1      41.985  -9.124  13.804  1.00  0.00     0.209 C 
HETATM   25  C   UNL     1      38.832  -5.642  14.097  1.00  0.00     0.003 A 
HETATM   26  C   UNL     1      37.945  -6.390  13.323  1.00  0.00     0.003 A 
ENDBRANCH  16  17
ENDBRANCH  13  16
ENDBRANCH   3  12
BRANCH   9  27
HETATM   27  C   UNL     1      41.254 -13.410   2.652  1.00  0.00     0.236 C 
BRANCH  27  28
HETATM   28  C   UNL     1      41.436 -14.900   2.969  1.00  0.00     0.240 C 
HETATM   29  N   UNL     1      42.744 -15.351   2.968  1.00  0.00    -0.326 N 
HETATM   30  H   UNL     1      43.442 -14.726   2.583  1.00  0.00     0.169 HD
HETATM   31  O   UNL     1      40.446 -15.581   3.230  1.00  0.00    -0.271 OA
BRANCH  29  32
HETATM   32  C   UNL     1      43.221 -16.601   3.417  1.00  0.00     0.035 A 
HETATM   33  C   UNL     1      43.177 -17.774   2.658  1.00  0.00     0.045 A 
HETATM   34  C   UNL     1      43.634 -18.996   3.185  1.00  0.00     0.050 A 
HETATM   35  C   UNL     1      44.139 -19.029   4.494  1.00  0.00     0.016 A 
HETATM   36  C   UNL     1      44.188 -17.864   5.255  1.00  0.00     0.003 A 
HETATM   37  C   UNL     1      43.732 -16.657   4.720  1.00  0.00     0.029 A 
BRANCH  34  38
HETATM   38  C   UNL     1      43.575 -20.266   2.372  1.00  0.00     0.417 C 
HETATM   39  F   UNL     1      43.920 -21.386   3.066  1.00  0.00    -0.166 F 
HETATM   40  F   UNL     1      42.331 -20.506   1.870  1.00  0.00    -0.166 F 
HETATM   41  F   UNL     1      44.409 -20.226   1.294  1.00  0.00    -0.166 F 
ENDBRANCH  34  38
ENDBRANCH  29  32
ENDBRANCH  27  28
ENDBRANCH   9  27
TORSDOF 7
ENDMDL
MODEL 5
REMARK VINA RESULT:      -9.8      1.730      2.157
REMARK  7 active torsions:
REMARK  status: ('A' for Active; 'I' for Inactive)
REMARK    1  A    between atoms: C_3  and  C_4 
REMARK       I    between atoms: C_4  and  N_5 
REMARK    2  A    between atoms: N_5  and  C_6 
REMARK    3  A    between atoms: C_6  and  C_7 
REMARK    4  A    between atoms: N_23  and  C_24 
REMARK    5  A    between atoms: C_24  and  C_25 
REMARK       I    between atoms: C_25  and  N_26 
REMARK    6  A    between atoms: N_26  and  C_27 
REMARK    7  A    between atoms: C_29  and  C_30 
ROOT
HETATM    1  C   UNL     1      38.515 -11.503   6.479  1.00  0.00     0.051 C 
HETATM    2  C   UNL     1      39.786 -10.765   6.179  1.00  0.00    -0.021 A 
HETATM    3  C   UNL     1      40.373  -9.824   7.025  1.00  0.00     0.081 A 
HETATM    4  S   UNL     1      41.855  -9.239   6.381  1.00  0.00    -0.063 SA
HETATM    5  C   UNL     1      41.725 -10.193   4.986  1.00  0.00     0.116 A 
HETATM    6  C   UNL     1      40.560 -10.925   4.969  1.00  0.00     0.075 A 
HETATM    7  C   UNL     1      40.301 -11.738   3.788  1.00  0.00     0.262 A 
HETATM    8  O   UNL     1      39.248 -12.342   3.608  1.00  0.00    -0.267 OA
HETATM    9  N   UNL     1      41.339 -11.735   2.856  1.00  0.00    -0.299 N 
HETATM   10  C   UNL     1      42.479 -10.971   3.040  1.00  0.00     0.214 A 
HETATM   11  N   UNL     1      42.698 -10.184   4.041  1.00  0.00    -0.235 NA
ENDROOT
BRANCH   3  12
HETATM   12  C   UNL     1      39.880  -9.327   8.314  1.00  0.00     0.259 C 
HETATM   13  N   UNL     1      40.614  -9.703   9.420  1.00  0.00    -0.354 N 
HETATM   14  H   UNL     1      41.489 -10.182   9.243  1.00  0.00     0.162 HD
HETATM   15  O   UNL     1      38.892  -8.604   8.434  1.00  0.00    -0.267 OA
BRANCH  13  16
HETATM   16  C   UNL     1      40.355  -9.171  10.741  1.00  0.00     0.157 C 
BRANCH  16  17
HETATM   17  C   UNL     1      41.390  -8.158  11.266  1.00  0.00     0.171 C 
HETATM   18  O   UNL     1      42.169  -7.615  10.187  1.00  0.00    -0.339 OA
HETATM   19  C   UNL     1      43.371  -8.243   9.998  1.00  0.00     0.102 A 
HETATM   20  C   UNL     1      43.881  -9.216  10.859  1.00  0.00     0.102 A 
HETATM   21  C   UNL     1      44.078  -7.894   8.848  1.00  0.00     0.039 A 
HETATM   22  O   UNL     1      43.225  -9.632  11.987  1.00  0.00    -0.346 OA
HETATM   23  C   UNL     1      45.074  -9.868  10.553  1.00  0.00     0.039 A 
HETATM   24  C   UNL     1      42.266  -8.662  12.411  1.00  0.00     0.209 C 
HETATM   25  C   UNL     1      45.775  -9.526   9.396  1.00  0.00     0.003 A 
HETATM   26  C   UNL     1      45.280  -8.536   8.547  1.00  0.00     0.003 A 
ENDBRANCH  16  17
ENDBRANCH  13  16
ENDBRANCH   3  12
BRANCH   9  27
HETATM   27  C   UNL     1      41.241 -12.598   1.687  1.00  0.00     0.236 C 
BRANCH  27  28
HETATM   28  C   UNL     1      41.397 -14.100   1.960  1.00  0.00     0.240 C 
HETATM   29  N   UNL     1      42.598 -14.476   2.533  1.00  0.00    -0.326 N 
HETATM   30  H   UNL     1      43.334 -13.780   2.552  1.00  0.00     0.169 HD
HETATM   31  O   UNL     1      40.464 -14.855   1.694  1.00  0.00    -0.271 OA
BRANCH  29  32
HETATM   32  C   UNL     1      42.934 -15.736   3.073  1.00  0.00     0.035 A 
HETATM   33  C   UNL     1      42.971 -16.016   4.442  1.00  0.00     0.045 A 
HETATM   34  C   UNL     1      43.355 -17.285   4.912  1.00  0.00     0.050 A 
HETATM   35  C   UNL     1      43.706 -18.279   3.986  1.00  0.00     0.016 A 
HETATM   36  C   UNL     1      43.669 -18.009   2.621  1.00  0.00     0.003 A 
HETATM   37  C   UNL     1      43.285 -16.745   2.167  1.00  0.00     0.029 A 
BRANCH  34  38
HETATM   38  C   UNL     1      43.408 -17.585   6.391  1.00  0.00     0.417 C 
HETATM   39  F   UNL     1      44.516 -17.100   7.016  1.00  0.00    -0.166 F 
HETATM   40  F   UNL     1      42.342 -17.071   7.066  1.00  0.00    -0.166 F 
HETATM   41  F   UNL     1      43.396 -18.925   6.645  1.00  0.00    -0.166 F 
ENDBRANCH  34  38
ENDBRANCH  29  32
ENDBRANCH  27  28
ENDBRANCH   9  27
TORSDOF 7
ENDMDL
MODEL 6
REMARK VINA RESULT:      -9.7      1.729      3.215
REMARK  7 active torsions:
REMARK  status: ('A' for Active; 'I' for Inactive)
REMARK    1  A    between atoms: C_3  and  C_4 
REMARK       I    between atoms: C_4  and  N_5 
REMARK    2  A    between atoms: N_5  and  C_6 
REMARK    3  A    between atoms: C_6  and  C_7 
REMARK    4  A    between atoms: N_23  and  C_24 
REMARK    5  A    between atoms: C_24  and  C_25 
REMARK       I    between atoms: C_25  and  N_26 
REMARK    6  A    between atoms: N_26  and  C_27 
REMARK    7  A    between atoms: C_29  and  C_30 
ROOT
HETATM    1  C   UNL     1      44.557 -10.721   7.264  1.00  0.00     0.051 C 
HETATM    2  C   UNL     1      43.132 -10.321   7.021  1.00  0.00    -0.021 A 
HETATM    3  C   UNL     1      42.442  -9.365   7.766  1.00  0.00     0.081 A 
HETATM    4  S   UNL     1      40.853  -9.123   7.156  1.00  0.00    -0.063 SA
HETATM    5  C   UNL     1      41.052 -10.281   5.934  1.00  0.00     0.116 A 
HETATM    6  C   UNL     1      42.287 -10.885   5.993  1.00  0.00     0.075 A 
HETATM    7  C   UNL     1      42.555 -11.947   5.033  1.00  0.00     0.262 A 
HETATM    8  O   UNL     1      43.571 -12.635   5.061  1.00  0.00    -0.267 OA
HETATM    9  N   UNL     1      41.534 -12.146   4.104  1.00  0.00    -0.299 N 
HETATM   10  C   UNL     1      40.357 -11.420   4.151  1.00  0.00     0.214 A 
HETATM   11  N   UNL     1      40.064 -10.527   5.038  1.00  0.00    -0.235 NA
ENDROOT
BRANCH   3  12
HETATM   12  C   UNL     1      42.911  -8.606   8.930  1.00  0.00     0.259 C 
HETATM   13  N   UNL     1      42.685  -7.247   8.887  1.00  0.00    -0.354 N 
HETATM   14  H   UNL     1      42.113  -6.904   8.123  1.00  0.00     0.162 HD
HETATM   15  O   UNL     1      43.453  -9.121   9.906  1.00  0.00    -0.267 OA
BRANCH  13  16
HETATM   16  C   UNL     1      42.943  -6.381  10.018  1.00  0.00     0.157 C 
BRANCH  16  17
HETATM   17  C   UNL     1      41.705  -5.975  10.842  1.00  0.00     0.171 C 
HETATM   18  O   UNL     1      41.787  -6.495  12.179  1.00  0.00    -0.339 OA
HETATM   19  C   UNL     1      41.110  -7.672  12.360  1.00  0.00     0.102 A 
HETATM   20  C   UNL     1      40.283  -8.247  11.393  1.00  0.00     0.102 A 
HETATM   21  C   UNL     1      41.315  -8.325  13.575  1.00  0.00     0.039 A 
HETATM   22  O   UNL     1      40.063  -7.679  10.167  1.00  0.00    -0.346 OA
HETATM   23  C   UNL     1      39.693  -9.489  11.623  1.00  0.00     0.039 A 
HETATM   24  C   UNL     1      40.361  -6.282  10.186  1.00  0.00     0.209 C 
HETATM   25  C   UNL     1      39.909 -10.147  12.834  1.00  0.00     0.003 A 
HETATM   26  C   UNL     1      40.715  -9.563  13.811  1.00  0.00     0.003 A 
ENDBRANCH  16  17
ENDBRANCH  13  16
ENDBRANCH   3  12
BRANCH   9  27
HETATM   27  C   UNL     1      41.736 -13.106   3.027  1.00  0.00     0.236 C 
BRANCH  27  28
HETATM   28  C   UNL     1      41.778 -14.579   3.455  1.00  0.00     0.240 C 
HETATM   29  N   UNL     1      42.951 -15.248   3.162  1.00  0.00    -0.326 N 
HETATM   30  H   UNL     1      43.599 -14.783   2.537  1.00  0.00     0.169 HD
HETATM   31  O   UNL     1      40.810 -15.057   4.045  1.00  0.00    -0.271 OA
BRANCH  29  32
HETATM   32  C   UNL     1      43.345 -16.527   3.610  1.00  0.00     0.035 A 
HETATM   33  C   UNL     1      43.272 -17.687   2.833  1.00  0.00     0.045 A 
HETATM   34  C   UNL     1      43.644 -18.937   3.360  1.00  0.00     0.050 A 
HETATM   35  C   UNL     1      44.093 -19.013   4.687  1.00  0.00     0.016 A 
HETATM   36  C   UNL     1      44.171 -17.862   5.467  1.00  0.00     0.003 A 
HETATM   37  C   UNL     1      43.799 -16.627   4.932  1.00  0.00     0.029 A 
BRANCH  34  38
HETATM   38  C   UNL     1      43.554 -20.192   2.526  1.00  0.00     0.417 C 
HETATM   39  F   UNL     1      43.663 -21.344   3.243  1.00  0.00    -0.166 F 
HETATM   40  F   UNL     1      42.374 -20.284   1.849  1.00  0.00    -0.166 F 
HETATM   41  F   UNL     1      44.530 -20.251   1.576  1.00  0.00    -0.166 F 
ENDBRANCH  34  38
ENDBRANCH  29  32
ENDBRANCH  27  28
ENDBRANCH   9  27
TORSDOF 7
ENDMDL
MODEL 7
REMARK VINA RESULT:      -9.5      2.146      3.278
REMARK  7 active torsions:
REMARK  status: ('A' for Active; 'I' for Inactive)
REMARK    1  A    between atoms: C_3  and  C_4 
REMARK       I    between atoms: C_4  and  N_5 
REMARK    2  A    between atoms: N_5  and  C_6 
REMARK    3  A    between atoms: C_6  and  C_7 
REMARK    4  A    between atoms: N_23  and  C_24 
REMARK    5  A    between atoms: C_24  and  C_25 
REMARK       I    between atoms: C_25  and  N_26 
REMARK    6  A    between atoms: N_26  and  C_27 
REMARK    7  A    between atoms: C_29  and  C_30 
ROOT
HETATM    1  C   UNL     1      38.442 -11.199   6.455  1.00  0.00     0.051 C 
HETATM    2  C   UNL     1      39.802 -10.599   6.251  1.00  0.00    -0.021 A 
HETATM    3  C   UNL     1      40.456  -9.788   7.178  1.00  0.00     0.081 A 
HETATM    4  S   UNL     1      42.022  -9.343   6.627  1.00  0.00    -0.063 SA
HETATM    5  C   UNL     1      41.843 -10.186   5.167  1.00  0.00     0.116 A 
HETATM    6  C   UNL     1      40.603 -10.773   5.060  1.00  0.00     0.075 A 
HETATM    7  C   UNL     1      40.303 -11.474   3.819  1.00  0.00     0.262 A 
HETATM    8  O   UNL     1      39.196 -11.937   3.561  1.00  0.00    -0.267 OA
HETATM    9  N   UNL     1      41.374 -11.535   2.927  1.00  0.00    -0.299 N 
HETATM   10  C   UNL     1      42.585 -10.924   3.201  1.00  0.00     0.214 A 
HETATM   11  N   UNL     1      42.850 -10.233   4.260  1.00  0.00    -0.235 NA
ENDROOT
BRANCH   3  12
HETATM   12  C   UNL     1      39.968  -9.318   8.479  1.00  0.00     0.259 C 
HETATM   13  N   UNL     1      40.689  -9.743   9.576  1.00  0.00    -0.354 N 
HETATM   14  H   UNL     1      41.554 -10.236   9.388  1.00  0.00     0.162 HD
HETATM   15  O   UNL     1      38.997  -8.576   8.616  1.00  0.00    -0.267 OA
BRANCH  13  16
HETATM   16  C   UNL     1      40.436  -9.244  10.911  1.00  0.00     0.157 C 
BRANCH  16  17
HETATM   17  C   UNL     1      41.095 -10.040  12.055  1.00  0.00     0.171 C 
HETATM   18  O   UNL     1      40.566  -9.638  13.330  1.00  0.00    -0.339 OA
HETATM   19  C   UNL     1      41.331  -8.708  13.981  1.00  0.00     0.102 A 
HETATM   20  C   UNL     1      42.589  -8.293  13.539  1.00  0.00     0.102 A 
HETATM   21  C   UNL     1      40.772  -8.135  15.123  1.00  0.00     0.039 A 
HETATM   22  O   UNL     1      43.184  -8.787  12.410  1.00  0.00    -0.346 OA
HETATM   23  C   UNL     1      43.270  -7.281  14.214  1.00  0.00     0.039 A 
HETATM   24  C   UNL     1      42.622 -10.048  12.043  1.00  0.00     0.209 C 
HETATM   25  C   UNL     1      42.704  -6.700  15.349  1.00  0.00     0.003 A 
HETATM   26  C   UNL     1      41.459  -7.131  15.807  1.00  0.00     0.003 A 
ENDBRANCH  16  17
ENDBRANCH  13  16
ENDBRANCH   3  12
BRANCH   9  27
HETATM   27  C   UNL     1      41.226 -12.306   1.700  1.00  0.00     0.236 C 
BRANCH  27  28
HETATM   28  C   UNL     1      41.356 -13.827   1.856  1.00  0.00     0.240 C 
HETATM   29  N   UNL     1      42.547 -14.267   2.404  1.00  0.00    -0.326 N 
HETATM   30  H   UNL     1      43.293 -13.587   2.481  1.00  0.00     0.169 HD
HETATM   31  O   UNL     1      40.412 -14.543   1.527  1.00  0.00    -0.271 OA
BRANCH  29  32
HETATM   32  C   UNL     1      42.858 -15.571   2.846  1.00  0.00     0.035 A 
HETATM   33  C   UNL     1      42.957 -15.939   4.191  1.00  0.00     0.045 A 
HETATM   34  C   UNL     1      43.312 -17.249   4.560  1.00  0.00     0.050 A 
HETATM   35  C   UNL     1      43.570 -18.195   3.557  1.00  0.00     0.016 A 
HETATM   36  C   UNL     1      43.470 -17.837   2.215  1.00  0.00     0.003 A 
HETATM   37  C   UNL     1      43.116 -16.533   1.862  1.00  0.00     0.029 A 
BRANCH  34  38
HETATM   38  C   UNL     1      43.432 -17.644   6.012  1.00  0.00     0.417 C 
HETATM   39  F   UNL     1      42.398 -17.222   6.790  1.00  0.00    -0.166 F 
HETATM   40  F   UNL     1      43.500 -18.995   6.180  1.00  0.00    -0.166 F 
HETATM   41  F   UNL     1      44.561 -17.142   6.590  1.00  0.00    -0.166 F 
ENDBRANCH  34  38
ENDBRANCH  29  32
ENDBRANCH  27  28
ENDBRANCH   9  27
TORSDOF 7
ENDMDL
MODEL 8
REMARK VINA RESULT:      -9.5      1.771      2.539
REMARK  7 active torsions:
REMARK  status: ('A' for Active; 'I' for Inactive)
REMARK    1  A    between atoms: C_3  and  C_4 
REMARK       I    between atoms: C_4  and  N_5 
REMARK    2  A    between atoms: N_5  and  C_6 
REMARK    3  A    between atoms: C_6  and  C_7 
REMARK    4  A    between atoms: N_23  and  C_24 
REMARK    5  A    between atoms: C_24  and  C_25 
REMARK       I    between atoms: C_25  and  N_26 
REMARK    6  A    between atoms: N_26  and  C_27 
REMARK    7  A    between atoms: C_29  and  C_30 
ROOT
HETATM    1  C   UNL     1      39.509 -11.732   6.547  1.00  0.00     0.051 C 
HETATM    2  C   UNL     1      40.110 -10.757   5.579  1.00  0.00    -0.021 A 
HETATM    3  C   UNL     1      40.272  -9.394   5.828  1.00  0.00     0.081 A 
HETATM    4  S   UNL     1      41.058  -8.607   4.517  1.00  0.00    -0.063 SA
HETATM    5  C   UNL     1      41.169 -10.035   3.612  1.00  0.00     0.116 A 
HETATM    6  C   UNL     1      40.587 -11.102   4.259  1.00  0.00     0.075 A 
HETATM    7  C   UNL     1      40.561 -12.375   3.552  1.00  0.00     0.262 A 
HETATM    8  O   UNL     1      39.972 -13.364   3.976  1.00  0.00    -0.267 OA
HETATM    9  N   UNL     1      41.227 -12.360   2.327  1.00  0.00    -0.299 N 
HETATM   10  C   UNL     1      41.804 -11.206   1.827  1.00  0.00     0.214 A 
HETATM   11  N   UNL     1      41.775 -10.047   2.399  1.00  0.00    -0.235 NA
ENDROOT
BRANCH   3  12
HETATM   12  C   UNL     1      39.865  -8.631   7.013  1.00  0.00     0.259 C 
HETATM   13  N   UNL     1      40.824  -8.498   7.995  1.00  0.00    -0.354 N 
HETATM   14  H   UNL     1      41.756  -8.827   7.769  1.00  0.00     0.162 HD
HETATM   15  O   UNL     1      38.758  -8.113   7.143  1.00  0.00    -0.267 OA
BRANCH  13  16
HETATM   16  C   UNL     1      40.638  -7.647   9.151  1.00  0.00     0.157 C 
BRANCH  16  17
HETATM   17  C   UNL     1      41.831  -6.739   9.510  1.00  0.00     0.171 C 
HETATM   18  O   UNL     1      42.721  -7.400  10.423  1.00  0.00    -0.339 OA
HETATM   19  C   UNL     1      42.509  -7.078  11.738  1.00  0.00     0.102 A 
HETATM   20  C   UNL     1      41.621  -6.086  12.159  1.00  0.00     0.102 A 
HETATM   21  C   UNL     1      43.204  -7.833  12.681  1.00  0.00     0.039 A 
HETATM   22  O   UNL     1      40.881  -5.330  11.291  1.00  0.00    -0.346 OA
HETATM   23  C   UNL     1      41.399  -5.875  13.519  1.00  0.00     0.039 A 
HETATM   24  C   UNL     1      41.457  -5.335   9.984  1.00  0.00     0.209 C 
HETATM   25  C   UNL     1      42.087  -6.640  14.462  1.00  0.00     0.003 A 
HETATM   26  C   UNL     1      42.993  -7.614  14.043  1.00  0.00     0.003 A 
ENDBRANCH  16  17
ENDBRANCH  13  16
ENDBRANCH   3  12
BRANCH   9  27
HETATM   27  C   UNL     1      41.362 -13.604   1.581  1.00  0.00     0.236 C 
BRANCH  27  28
HETATM   28  C   UNL     1      42.477 -14.543   2.060  1.00  0.00     0.240 C 
HETATM   29  N   UNL     1      42.069 -15.578   2.881  1.00  0.00    -0.326 N 
HETATM   30  H   UNL     1      41.125 -15.527   3.245  1.00  0.00     0.169 HD
HETATM   31  O   UNL     1      43.628 -14.348   1.674  1.00  0.00    -0.271 OA
BRANCH  29  32
HETATM   32  C   UNL     1      42.827 -16.692   3.299  1.00  0.00     0.035 A 
HETATM   33  C   UNL     1      42.835 -17.925   2.640  1.00  0.00     0.045 A 
HETATM   34  C   UNL     1      43.584 -19.008   3.136  1.00  0.00     0.050 A 
HETATM   35  C   UNL     1      44.331 -18.839   4.312  1.00  0.00     0.016 A 
HETATM   36  C   UNL     1      44.330 -17.614   4.973  1.00  0.00     0.003 A 
HETATM   37  C   UNL     1      43.582 -16.547   4.469  1.00  0.00     0.029 A 
BRANCH  34  38
HETATM   38  C   UNL     1      43.584 -20.343   2.433  1.00  0.00     0.417 C 
HETATM   39  F   UNL     1      44.547 -20.468   1.478  1.00  0.00    -0.166 F 
HETATM   40  F   UNL     1      43.772 -21.384   3.292  1.00  0.00    -0.166 F 
HETATM   41  F   UNL     1      42.401 -20.593   1.802  1.00  0.00    -0.166 F 
ENDBRANCH  34  38
ENDBRANCH  29  32
ENDBRANCH  27  28
ENDBRANCH   9  27
TORSDOF 7
ENDMDL
MODEL 9
REMARK VINA RESULT:      -9.4      1.964      2.578
REMARK  7 active torsions:
REMARK  status: ('A' for Active; 'I' for Inactive)
REMARK    1  A    between atoms: C_3  and  C_4 
REMARK       I    between atoms: C_4  and  N_5 
REMARK    2  A    between atoms: N_5  and  C_6 
REMARK    3  A    between atoms: C_6  and  C_7 
REMARK    4  A    between atoms: N_23  and  C_24 
REMARK    5  A    between atoms: C_24  and  C_25 
REMARK       I    between atoms: C_25  and  N_26 
REMARK    6  A    between atoms: N_26  and  C_27 
REMARK    7  A    between atoms: C_29  and  C_30 
ROOT
HETATM    1  C   UNL     1      40.211  -8.145   4.277  1.00  0.00     0.051 C 
HETATM    2  C   UNL     1      41.039  -9.014   5.177  1.00  0.00    -0.021 A 
HETATM    3  C   UNL     1      41.673  -8.573   6.338  1.00  0.00     0.081 A 
HETATM    4  S   UNL     1      42.472  -9.863   7.145  1.00  0.00    -0.063 SA
HETATM    5  C   UNL     1      42.014 -10.997   5.972  1.00  0.00     0.116 A 
HETATM    6  C   UNL     1      41.296 -10.418   4.950  1.00  0.00     0.075 A 
HETATM    7  C   UNL     1      40.900 -11.280   3.844  1.00  0.00     0.262 A 
HETATM    8  O   UNL     1      40.359 -10.859   2.827  1.00  0.00    -0.267 OA
HETATM    9  N   UNL     1      41.229 -12.624   4.024  1.00  0.00    -0.299 N 
HETATM   10  C   UNL     1      41.922 -13.060   5.139  1.00  0.00     0.214 A 
HETATM   11  N   UNL     1      42.351 -12.304   6.095  1.00  0.00    -0.235 NA
ENDROOT
BRANCH   3  12
HETATM   12  C   UNL     1      41.717  -7.214   6.890  1.00  0.00     0.259 C 
HETATM   13  N   UNL     1      41.190  -7.068   8.156  1.00  0.00    -0.354 N 
HETATM   14  H   UNL     1      40.933  -7.918   8.644  1.00  0.00     0.162 HD
HETATM   15  O   UNL     1      42.203  -6.253   6.298  1.00  0.00    -0.267 OA
BRANCH  13  16
HETATM   16  C   UNL     1      41.298  -5.832   8.904  1.00  0.00     0.157 C 
BRANCH  16  17
HETATM   17  C   UNL     1      42.556  -5.693   9.784  1.00  0.00     0.171 C 
HETATM   18  O   UNL     1      43.316  -6.913   9.787  1.00  0.00    -0.339 OA
HETATM   19  C   UNL     1      43.060  -7.725  10.860  1.00  0.00     0.102 A 
HETATM   20  C   UNL     1      42.258  -7.351  11.940  1.00  0.00     0.102 A 
HETATM   21  C   UNL     1      43.616  -9.002  10.817  1.00  0.00     0.039 A 
HETATM   22  O   UNL     1      41.654  -6.126  12.033  1.00  0.00    -0.346 OA
HETATM   23  C   UNL     1      41.979  -8.265  12.955  1.00  0.00     0.039 A 
HETATM   24  C   UNL     1      42.303  -5.168  11.196  1.00  0.00     0.209 C 
HETATM   25  C   UNL     1      42.525  -9.548  12.904  1.00  0.00     0.003 A 
HETATM   26  C   UNL     1      43.347  -9.914  11.839  1.00  0.00     0.003 A 
ENDBRANCH  16  17
ENDBRANCH  13  16
ENDBRANCH   3  12
BRANCH   9  27
HETATM   27  C   UNL     1      40.785 -13.597   3.035  1.00  0.00     0.236 C 
BRANCH  27  28
HETATM   28  C   UNL     1      41.141 -15.058   3.341  1.00  0.00     0.240 C 
HETATM   29  N   UNL     1      42.446 -15.421   3.063  1.00  0.00    -0.326 N 
HETATM   30  H   UNL     1      42.996 -14.767   2.519  1.00  0.00     0.169 HD
HETATM   31  O   UNL     1      40.284 -15.792   3.831  1.00  0.00    -0.271 OA
BRANCH  29  32
HETATM   32  C   UNL     1      43.101 -16.617   3.427  1.00  0.00     0.035 A 
HETATM   33  C   UNL     1      42.996 -17.815   2.714  1.00  0.00     0.045 A 
HETATM   34  C   UNL     1      43.644 -18.982   3.157  1.00  0.00     0.050 A 
HETATM   35  C   UNL     1      44.404 -18.935   4.335  1.00  0.00     0.016 A 
HETATM   36  C   UNL     1      44.516 -17.745   5.050  1.00  0.00     0.003 A 
HETATM   37  C   UNL     1      43.868 -16.593   4.598  1.00  0.00     0.029 A 
BRANCH  34  38
HETATM   38  C   UNL     1      43.521 -20.280   2.396  1.00  0.00     0.417 C 
HETATM   39  F   UNL     1      42.300 -20.475   1.825  1.00  0.00    -0.166 F 
HETATM   40  F   UNL     1      44.427 -20.377   1.382  1.00  0.00    -0.166 F 
HETATM   41  F   UNL     1      43.737 -21.366   3.191  1.00  0.00    -0.166 F 
ENDBRANCH  34  38
ENDBRANCH  29  32
ENDBRANCH  27  28
ENDBRANCH   9  27
TORSDOF 7
ENDMDL
MODEL 10
REMARK VINA RESULT:      -9.4      2.033      2.893
REMARK  7 active torsions:
REMARK  status: ('A' for Active; 'I' for Inactive)
REMARK    1  A    between atoms: C_3  and  C_4 
REMARK       I    between atoms: C_4  and  N_5 
REMARK    2  A    between atoms: N_5  and  C_6 
REMARK    3  A    between atoms: C_6  and  C_7 
REMARK    4  A    between atoms: N_23  and  C_24 
REMARK    5  A    between atoms: C_24  and  C_25 
REMARK       I    between atoms: C_25  and  N_26 
REMARK    6  A    between atoms: N_26  and  C_27 
REMARK    7  A    between atoms: C_29  and  C_30 
ROOT
HETATM    1  C   UNL     1      43.285 -11.098   6.824  1.00  0.00     0.051 C 
HETATM    2  C   UNL     1      41.871 -10.831   6.402  1.00  0.00    -0.021 A 
HETATM    3  C   UNL     1      40.983 -10.004   7.090  1.00  0.00     0.081 A 
HETATM    4  S   UNL     1      39.476  -9.884   6.272  1.00  0.00    -0.063 SA
HETATM    5  C   UNL     1      39.968 -10.928   5.031  1.00  0.00     0.116 A 
HETATM    6  C   UNL     1      41.242 -11.406   5.234  1.00  0.00     0.075 A 
HETATM    7  C   UNL     1      41.755 -12.366   4.266  1.00  0.00     0.262 A 
HETATM    8  O   UNL     1      42.828 -12.946   4.402  1.00  0.00    -0.267 OA
HETATM    9  N   UNL     1      40.899 -12.603   3.191  1.00  0.00    -0.299 N 
HETATM   10  C   UNL     1      39.653 -12.006   3.108  1.00  0.00     0.214 A 
HETATM   11  N   UNL     1      39.145 -11.211   3.990  1.00  0.00    -0.235 NA
ENDROOT
BRANCH   3  12
HETATM   12  C   UNL     1      41.202  -9.283   8.349  1.00  0.00     0.259 C 
HETATM   13  N   UNL     1      40.431  -9.697   9.415  1.00  0.00    -0.354 N 
HETATM   14  H   UNL     1      39.874 -10.532   9.277  1.00  0.00     0.162 HD
HETATM   15  O   UNL     1      42.025  -8.379   8.483  1.00  0.00    -0.267 OA
BRANCH  13  16
HETATM   16  C   UNL     1      40.634  -9.199  10.759  1.00  0.00     0.157 C 
BRANCH  16  17
HETATM   17  C   UNL     1      39.662  -8.093  11.214  1.00  0.00     0.171 C 
HETATM   18  O   UNL     1      39.975  -6.842  10.579  1.00  0.00    -0.339 OA
HETATM   19  C   UNL     1      40.753  -6.011  11.339  1.00  0.00     0.102 A 
HETATM   20  C   UNL     1      41.091  -6.268  12.670  1.00  0.00     0.102 A 
HETATM   21  C   UNL     1      41.252  -4.875  10.703  1.00  0.00     0.039 A 
HETATM   22  O   UNL     1      40.665  -7.379  13.346  1.00  0.00    -0.346 OA
HETATM   23  C   UNL     1      41.956  -5.413  13.351  1.00  0.00     0.039 A 
HETATM   24  C   UNL     1      39.510  -7.947  12.727  1.00  0.00     0.209 C 
HETATM   25  C   UNL     1      42.464  -4.283  12.710  1.00  0.00     0.003 A 
HETATM   26  C   UNL     1      42.107  -4.011  11.389  1.00  0.00     0.003 A 
ENDBRANCH  16  17
ENDBRANCH  13  16
ENDBRANCH   3  12
BRANCH   9  27
HETATM   27  C   UNL     1      41.352 -13.461   2.104  1.00  0.00     0.236 C 
BRANCH  27  28
HETATM   28  C   UNL     1      41.525 -14.943   2.461  1.00  0.00     0.240 C 
HETATM   29  N   UNL     1      42.827 -15.350   2.687  1.00  0.00    -0.326 N 
HETATM   30  H   UNL     1      43.561 -14.704   2.421  1.00  0.00     0.169 HD
HETATM   31  O   UNL     1      40.527 -15.655   2.556  1.00  0.00    -0.271 OA
BRANCH  29  32
HETATM   32  C   UNL     1      43.261 -16.582   3.222  1.00  0.00     0.035 A 
HETATM   33  C   UNL     1      43.191 -17.800   2.540  1.00  0.00     0.045 A 
HETATM   34  C   UNL     1      43.604 -18.998   3.150  1.00  0.00     0.050 A 
HETATM   35  C   UNL     1      44.091 -18.961   4.465  1.00  0.00     0.016 A 
HETATM   36  C   UNL     1      44.166 -17.751   5.151  1.00  0.00     0.003 A 
HETATM   37  C   UNL     1      43.754 -16.569   4.533  1.00  0.00     0.029 A 
BRANCH  34  38
HETATM   38  C   UNL     1      43.518 -20.316   2.420  1.00  0.00     0.417 C 
HETATM   39  F   UNL     1      42.300 -20.563   1.863  1.00  0.00    -0.166 F 
HETATM   40  F   UNL     1      44.419 -20.407   1.402  1.00  0.00    -0.166 F 
HETATM   41  F   UNL     1      43.774 -21.376   3.238  1.00  0.00    -0.166 F 
ENDBRANCH  34  38
ENDBRANCH  29  32
ENDBRANCH  27  28
ENDBRANCH   9  27
TORSDOF 7
ENDMDL
