MODEL 1
REMARK VINA RESULT:      -8.2      0.000      0.000
REMARK  6 active torsions:
REMARK  status: ('A' for Active; 'I' for Inactive)
REMARK    1  A    between atoms: C_4  and  C_5 
REMARK    2  A    between atoms: C_5  and  C_6 
REMARK    3  A    between atoms: C_6  and  C_7 
REMARK    4  A    between atoms: C_7  and  N_8 
REMARK    5  A    between atoms: C_11  and  O_12 
REMARK    6  A    between atoms: C_11  and  C_13 
ROOT
HETATM    1  N   UNL     1      40.971 -12.809   6.027  1.00  0.00    -0.314 N 
HETATM    2  C   UNL     1      40.828 -14.160   6.378  1.00  0.00     0.269 A 
HETATM    3  O   UNL     1      39.774 -14.765   6.529  1.00  0.00    -0.269 OA
HETATM    4  C   UNL     1      42.260 -14.734   6.603  1.00  0.00     0.198 A 
HETATM    5  C   UNL     1      43.122 -13.515   6.399  1.00  0.00     0.017 A 
HETATM    6  C   UNL     1      42.317 -12.419   6.072  1.00  0.00     0.047 A 
HETATM    7  C   UNL     1      44.495 -13.364   6.552  1.00  0.00     0.013 A 
HETATM    8  C   UNL     1      45.051 -12.098   6.348  1.00  0.00     0.001 A 
HETATM    9  C   UNL     1      44.237 -11.006   6.007  1.00  0.00     0.002 A 
HETATM   10  C   UNL     1      42.855 -11.160   5.868  1.00  0.00     0.030 A 
ENDROOT
BRANCH   4  11
HETATM   11  O   UNL     1      42.399 -15.212   7.938  1.00  0.00    -0.371 OA
HETATM   12  H   UNL     1      42.922 -16.029   7.847  1.00  0.00     0.212 HD
ENDBRANCH   4  11
BRANCH   4  13
HETATM   13  C   UNL     1      42.682 -15.762   5.582  1.00  0.00     0.018 A 
HETATM   14  C   UNL     1      42.978 -15.590   4.179  1.00  0.00     0.002 A 
HETATM   15  C   UNL     1      43.288 -16.848   3.657  1.00  0.00     0.043 A 
HETATM   16  C   UNL     1      43.006 -14.490   3.292  1.00  0.00     0.014 A 
HETATM   17  C   UNL     1      43.609 -17.062   2.310  1.00  0.00     0.030 A 
HETATM   18  N   UNL     1      43.209 -17.751   4.688  1.00  0.00    -0.365 N 
HETATM   19  C   UNL     1      43.616 -15.956   1.459  1.00  0.00     0.002 A 
HETATM   20  C   UNL     1      43.321 -14.686   1.941  1.00  0.00     0.001 A 
HETATM   21  H   UNL     1      43.390 -18.741   4.597  1.00  0.00     0.165 HD
HETATM   22  C   UNL     1      42.846 -17.118   5.841  1.00  0.00     0.100 A 
ENDBRANCH   4  13
BRANCH   1  23
HETATM   23  C   UNL     1      39.853 -11.916   5.832  1.00  0.00     0.133 C 
BRANCH  23  24
HETATM   24  C   UNL     1      39.081 -12.245   4.556  1.00  0.00     0.025 C 
BRANCH  24  25
HETATM   25  C   UNL     1      39.930 -11.984   3.313  1.00  0.00     0.040 C 
BRANCH  25  26
HETATM   26  C   UNL     1      39.906 -13.165   2.377  1.00  0.00    -0.058 A 
HETATM   27  C   UNL     1      39.685 -14.458   2.871  1.00  0.00     0.007 A 
HETATM   28  C   UNL     1      39.699 -15.556   2.009  1.00  0.00     0.001 A 
HETATM   29  C   UNL     1      39.936 -15.371   0.647  1.00  0.00     0.000 A 
HETATM   30  C   UNL     1      40.160 -14.090   0.148  1.00  0.00     0.001 A 
HETATM   31  C   UNL     1      40.147 -12.991   1.008  1.00  0.00     0.007 A 
ENDBRANCH  25  26
ENDBRANCH  24  25
ENDBRANCH  23  24
ENDBRANCH   1  23
TORSDOF 6
ENDMDL
MODEL 2
REMARK VINA RESULT:      -8.1      1.945      5.860
REMARK  6 active torsions:
REMARK  status: ('A' for Active; 'I' for Inactive)
REMARK    1  A    between atoms: C_4  and  C_5 
REMARK    2  A    between atoms: C_5  and  C_6 
REMARK    3  A    between atoms: C_6  and  C_7 
REMARK    4  A    between atoms: C_7  and  N_8 
REMARK    5  A    between atoms: C_11  and  O_12 
REMARK    6  A    between atoms: C_11  and  C_13 
ROOT
HETATM    1  N   UNL     1      41.382 -15.382   5.074  1.00  0.00    -0.314 N 
HETATM    2  C   UNL     1      40.571 -14.541   5.852  1.00  0.00     0.269 A 
HETATM    3  O   UNL     1      40.014 -14.834   6.902  1.00  0.00    -0.269 OA
HETATM    4  C   UNL     1      40.457 -13.181   5.097  1.00  0.00     0.198 A 
HETATM    5  C   UNL     1      41.233 -13.456   3.834  1.00  0.00     0.017 A 
HETATM    6  C   UNL     1      41.745 -14.758   3.871  1.00  0.00     0.047 A 
HETATM    7  C   UNL     1      41.420 -12.654   2.715  1.00  0.00     0.013 A 
HETATM    8  C   UNL     1      42.150 -13.171   1.642  1.00  0.00     0.001 A 
HETATM    9  C   UNL     1      42.671 -14.474   1.693  1.00  0.00     0.002 A 
HETATM   10  C   UNL     1      42.468 -15.282   2.814  1.00  0.00     0.030 A 
ENDROOT
BRANCH   4  11
HETATM   11  O   UNL     1      39.096 -12.900   4.782  1.00  0.00    -0.371 OA
HETATM   12  H   UNL     1      38.629 -13.734   4.970  1.00  0.00     0.212 HD
ENDBRANCH   4  11
BRANCH   4  13
HETATM   13  C   UNL     1      41.130 -12.026   5.798  1.00  0.00     0.018 A 
HETATM   14  C   UNL     1      42.498 -11.898   6.241  1.00  0.00     0.002 A 
HETATM   15  C   UNL     1      42.623 -10.654   6.866  1.00  0.00     0.043 A 
HETATM   16  C   UNL     1      43.649 -12.717   6.183  1.00  0.00     0.014 A 
HETATM   17  C   UNL     1      43.818 -10.199   7.438  1.00  0.00     0.030 A 
HETATM   18  N   UNL     1      41.400 -10.035   6.795  1.00  0.00    -0.365 N 
HETATM   19  C   UNL     1      44.932 -11.038   7.374  1.00  0.00     0.002 A 
HETATM   20  C   UNL     1      44.851 -12.280   6.754  1.00  0.00     0.001 A 
HETATM   21  H   UNL     1      41.200  -9.116   7.165  1.00  0.00     0.165 HD
HETATM   22  C   UNL     1      40.499 -10.843   6.164  1.00  0.00     0.100 A 
ENDBRANCH   4  13
BRANCH   1  23
HETATM   23  C   UNL     1      41.641 -16.764   5.404  1.00  0.00     0.133 C 
BRANCH  23  24
HETATM   24  C   UNL     1      42.902 -16.917   6.253  1.00  0.00     0.025 C 
BRANCH  24  25
HETATM   25  C   UNL     1      44.133 -17.144   5.376  1.00  0.00     0.040 C 
BRANCH  25  26
HETATM   26  C   UNL     1      44.036 -18.450   4.629  1.00  0.00    -0.058 A 
HETATM   27  C   UNL     1      43.911 -18.464   3.234  1.00  0.00     0.007 A 
HETATM   28  C   UNL     1      43.786 -19.672   2.547  1.00  0.00     0.001 A 
HETATM   29  C   UNL     1      43.782 -20.877   3.249  1.00  0.00     0.000 A 
HETATM   30  C   UNL     1      43.902 -20.874   4.636  1.00  0.00     0.001 A 
HETATM   31  C   UNL     1      44.026 -19.666   5.326  1.00  0.00     0.007 A 
ENDBRANCH  25  26
ENDBRANCH  24  25
ENDBRANCH  23  24
ENDBRANCH   1  23
TORSDOF 6
ENDMDL
MODEL 3
REMARK VINA RESULT:      -8.0      2.305      6.524
REMARK  6 active torsions:
REMARK  status: ('A' for Active; 'I' for Inactive)
REMARK    1  A    between atoms: C_4  and  C_5 
REMARK    2  A    between atoms: C_5  and  C_6 
REMARK    3  A    between atoms: C_6  and  C_7 
REMARK    4  A    between atoms: C_7  and  N_8 
REMARK    5  A    between atoms: C_11  and  O_12 
REMARK    6  A    between atoms: C_11  and  C_13 
ROOT
HETATM    1  N   UNL     1      41.618 -14.000   4.650  1.00  0.00    -0.314 N 
HETATM    2  C   UNL     1      40.496 -13.471   3.994  1.00  0.00     0.269 A 
HETATM    3  O   UNL     1      39.768 -12.576   4.404  1.00  0.00    -0.269 OA
HETATM    4  C   UNL     1      40.308 -14.278   2.673  1.00  0.00     0.198 A 
HETATM    5  C   UNL     1      41.405 -15.306   2.775  1.00  0.00     0.017 A 
HETATM    6  C   UNL     1      42.135 -15.101   3.951  1.00  0.00     0.047 A 
HETATM    7  C   UNL     1      41.700 -16.375   1.937  1.00  0.00     0.013 A 
HETATM    8  C   UNL     1      42.755 -17.222   2.287  1.00  0.00     0.001 A 
HETATM    9  C   UNL     1      43.490 -17.001   3.463  1.00  0.00     0.002 A 
HETATM   10  C   UNL     1      43.180 -15.934   4.310  1.00  0.00     0.030 A 
ENDROOT
BRANCH   4  11
HETATM   11  O   UNL     1      39.037 -14.921   2.660  1.00  0.00    -0.371 OA
HETATM   12  H   UNL     1      38.630 -14.666   3.508  1.00  0.00     0.212 HD
ENDBRANCH   4  11
BRANCH   4  13
HETATM   13  C   UNL     1      40.554 -13.477   1.418  1.00  0.00     0.018 A 
HETATM   14  C   UNL     1      40.192 -13.780   0.054  1.00  0.00     0.002 A 
HETATM   15  C   UNL     1      40.671 -12.742  -0.750  1.00  0.00     0.043 A 
HETATM   16  C   UNL     1      39.510 -14.839  -0.587  1.00  0.00     0.014 A 
HETATM   17  C   UNL     1      40.517 -12.714  -2.142  1.00  0.00     0.030 A 
HETATM   18  N   UNL     1      41.280 -11.831   0.078  1.00  0.00    -0.365 N 
HETATM   19  C   UNL     1      39.849 -13.782  -2.744  1.00  0.00     0.002 A 
HETATM   20  C   UNL     1      39.350 -14.831  -1.979  1.00  0.00     0.001 A 
HETATM   21  H   UNL     1      41.714 -10.974  -0.235  1.00  0.00     0.165 HD
HETATM   22  C   UNL     1      41.221 -12.258   1.372  1.00  0.00     0.100 A 
ENDBRANCH   4  13
BRANCH   1  23
HETATM   23  C   UNL     1      42.051 -13.569   5.958  1.00  0.00     0.133 C 
BRANCH  23  24
HETATM   24  C   UNL     1      43.062 -12.427   5.873  1.00  0.00     0.025 C 
BRANCH  24  25
HETATM   25  C   UNL     1      44.297 -12.719   6.724  1.00  0.00     0.040 C 
BRANCH  25  26
HETATM   26  C   UNL     1      44.764 -11.481   7.448  1.00  0.00    -0.058 A 
HETATM   27  C   UNL     1      45.986 -10.881   7.114  1.00  0.00     0.007 A 
HETATM   28  C   UNL     1      46.434  -9.757   7.809  1.00  0.00     0.001 A 
HETATM   29  C   UNL     1      45.668  -9.225   8.845  1.00  0.00     0.000 A 
HETATM   30  C   UNL     1      44.454  -9.817   9.187  1.00  0.00     0.001 A 
HETATM   31  C   UNL     1      44.004 -10.942   8.494  1.00  0.00     0.007 A 
ENDBRANCH  25  26
ENDBRANCH  24  25
ENDBRANCH  23  24
ENDBRANCH   1  23
TORSDOF 6
ENDMDL
MODEL 4
REMARK VINA RESULT:      -7.9      2.813      5.917
REMARK  6 active torsions:
REMARK  status: ('A' for Active; 'I' for Inactive)
REMARK    1  A    between atoms: C_4  and  C_5 
REMARK    2  A    between atoms: C_5  and  C_6 
REMARK    3  A    between atoms: C_6  and  C_7 
REMARK    4  A    between atoms: C_7  and  N_8 
REMARK    5  A    between atoms: C_11  and  O_12 
REMARK    6  A    between atoms: C_11  and  C_13 
ROOT
HETATM    1  N   UNL     1      42.149 -13.799   3.862  1.00  0.00    -0.314 N 
HETATM    2  C   UNL     1      42.827 -13.155   2.815  1.00  0.00     0.269 A 
HETATM    3  O   UNL     1      43.848 -13.543   2.262  1.00  0.00    -0.269 OA
HETATM    4  C   UNL     1      42.074 -11.820   2.527  1.00  0.00     0.198 A 
HETATM    5  C   UNL     1      40.999 -11.832   3.584  1.00  0.00     0.017 A 
HETATM    6  C   UNL     1      41.094 -13.006   4.339  1.00  0.00     0.047 A 
HETATM    7  C   UNL     1      40.055 -10.863   3.901  1.00  0.00     0.013 A 
HETATM    8  C   UNL     1      39.193 -11.101   4.973  1.00  0.00     0.001 A 
HETATM    9  C   UNL     1      39.287 -12.287   5.718  1.00  0.00     0.002 A 
HETATM   10  C   UNL     1      40.247 -13.254   5.405  1.00  0.00     0.030 A 
ENDROOT
BRANCH   4  11
HETATM   11  O   UNL     1      42.941 -10.708   2.726  1.00  0.00    -0.371 OA
HETATM   12  H   UNL     1      42.438  -9.947   2.384  1.00  0.00     0.212 HD
ENDBRANCH   4  11
BRANCH   4  13
HETATM   13  C   UNL     1      41.386 -11.775   1.184  1.00  0.00     0.018 A 
HETATM   14  C   UNL     1      40.717 -12.832   0.464  1.00  0.00     0.002 A 
HETATM   15  C   UNL     1      40.273 -12.299  -0.749  1.00  0.00     0.043 A 
HETATM   16  C   UNL     1      40.448 -14.197   0.713  1.00  0.00     0.014 A 
HETATM   17  C   UNL     1      39.595 -13.052  -1.716  1.00  0.00     0.030 A 
HETATM   18  N   UNL     1      40.631 -10.974  -0.770  1.00  0.00    -0.365 N 
HETATM   19  C   UNL     1      39.356 -14.400  -1.443  1.00  0.00     0.002 A 
HETATM   20  C   UNL     1      39.774 -14.966  -0.244  1.00  0.00     0.001 A 
HETATM   21  H   UNL     1      40.431 -10.338  -1.529  1.00  0.00     0.165 HD
HETATM   22  C   UNL     1      41.297 -10.648   0.375  1.00  0.00     0.100 A 
ENDBRANCH   4  13
BRANCH   1  23
HETATM   23  C   UNL     1      42.609 -15.024   4.472  1.00  0.00     0.133 C 
BRANCH  23  24
HETATM   24  C   UNL     1      42.033 -16.255   3.774  1.00  0.00     0.025 C 
BRANCH  24  25
HETATM   25  C   UNL     1      43.018 -16.824   2.754  1.00  0.00     0.040 C 
BRANCH  25  26
HETATM   26  C   UNL     1      43.394 -18.244   3.093  1.00  0.00    -0.058 A 
HETATM   27  C   UNL     1      43.222 -19.268   2.152  1.00  0.00     0.007 A 
HETATM   28  C   UNL     1      43.537 -20.588   2.479  1.00  0.00     0.001 A 
HETATM   29  C   UNL     1      44.022 -20.896   3.748  1.00  0.00     0.000 A 
HETATM   30  C   UNL     1      44.193 -19.886   4.692  1.00  0.00     0.001 A 
HETATM   31  C   UNL     1      43.878 -18.565   4.368  1.00  0.00     0.007 A 
ENDBRANCH  25  26
ENDBRANCH  24  25
ENDBRANCH  23  24
ENDBRANCH   1  23
TORSDOF 6
ENDMDL
MODEL 5
REMARK VINA RESULT:      -7.7      2.645      5.737
REMARK  6 active torsions:
REMARK  status: ('A' for Active; 'I' for Inactive)
REMARK    1  A    between atoms: C_4  and  C_5 
REMARK    2  A    between atoms: C_5  and  C_6 
REMARK    3  A    between atoms: C_6  and  C_7 
REMARK    4  A    between atoms: C_7  and  N_8 
REMARK    5  A    between atoms: C_11  and  O_12 
REMARK    6  A    between atoms: C_11  and  C_13 
ROOT
HETATM    1  N   UNL     1      41.587 -15.095   4.227  1.00  0.00    -0.314 N 
HETATM    2  C   UNL     1      41.294 -15.325   2.873  1.00  0.00     0.269 A 
HETATM    3  O   UNL     1      40.770 -16.327   2.403  1.00  0.00    -0.269 OA
HETATM    4  C   UNL     1      41.819 -14.096   2.070  1.00  0.00     0.198 A 
HETATM    5  C   UNL     1      42.464 -13.267   3.151  1.00  0.00     0.017 A 
HETATM    6  C   UNL     1      42.304 -13.900   4.388  1.00  0.00     0.047 A 
HETATM    7  C   UNL     1      43.189 -12.086   3.050  1.00  0.00     0.013 A 
HETATM    8  C   UNL     1      43.732 -11.537   4.215  1.00  0.00     0.001 A 
HETATM    9  C   UNL     1      43.556 -12.173   5.454  1.00  0.00     0.002 A 
HETATM   10  C   UNL     1      42.839 -13.369   5.549  1.00  0.00     0.030 A 
ENDROOT
BRANCH   4  11
HETATM   11  O   UNL     1      42.798 -14.505   1.120  1.00  0.00    -0.371 OA
HETATM   12  H   UNL     1      43.221 -15.281   1.529  1.00  0.00     0.212 HD
ENDBRANCH   4  11
BRANCH   4  13
HETATM   13  C   UNL     1      40.732 -13.256   1.445  1.00  0.00     0.018 A 
HETATM   14  C   UNL     1      39.966 -13.499   0.245  1.00  0.00     0.002 A 
HETATM   15  C   UNL     1      39.105 -12.412   0.069  1.00  0.00     0.043 A 
HETATM   16  C   UNL     1      39.919 -14.531  -0.719  1.00  0.00     0.014 A 
HETATM   17  C   UNL     1      38.222 -12.300  -1.013  1.00  0.00     0.030 A 
HETATM   18  N   UNL     1      39.313 -11.550   1.117  1.00  0.00    -0.365 N 
HETATM   19  C   UNL     1      38.210 -13.331  -1.953  1.00  0.00     0.002 A 
HETATM   20  C   UNL     1      39.045 -14.433  -1.810  1.00  0.00     0.001 A 
HETATM   21  H   UNL     1      38.820 -10.678   1.248  1.00  0.00     0.165 HD
HETATM   22  C   UNL     1      40.282 -12.039   1.944  1.00  0.00     0.100 A 
ENDBRANCH   4  13
BRANCH   1  23
HETATM   23  C   UNL     1      41.335 -16.061   5.270  1.00  0.00     0.133 C 
BRANCH  23  24
HETATM   24  C   UNL     1      42.616 -16.764   5.712  1.00  0.00     0.025 C 
BRANCH  24  25
HETATM   25  C   UNL     1      43.601 -16.898   4.551  1.00  0.00     0.040 C 
BRANCH  25  26
HETATM   26  C   UNL     1      43.722 -18.332   4.101  1.00  0.00    -0.058 A 
HETATM   27  C   UNL     1      43.474 -18.681   2.767  1.00  0.00     0.007 A 
HETATM   28  C   UNL     1      43.552 -20.013   2.359  1.00  0.00     0.001 A 
HETATM   29  C   UNL     1      43.874 -21.008   3.281  1.00  0.00     0.000 A 
HETATM   30  C   UNL     1      44.118 -20.672   4.611  1.00  0.00     0.001 A 
HETATM   31  C   UNL     1      44.040 -19.339   5.021  1.00  0.00     0.007 A 
ENDBRANCH  25  26
ENDBRANCH  24  25
ENDBRANCH  23  24
ENDBRANCH   1  23
TORSDOF 6
ENDMDL
MODEL 6
REMARK VINA RESULT:      -7.6      2.437      5.987
REMARK  6 active torsions:
REMARK  status: ('A' for Active; 'I' for Inactive)
REMARK    1  A    between atoms: C_4  and  C_5 
REMARK    2  A    between atoms: C_5  and  C_6 
REMARK    3  A    between atoms: C_6  and  C_7 
REMARK    4  A    between atoms: C_7  and  N_8 
REMARK    5  A    between atoms: C_11  and  O_12 
REMARK    6  A    between atoms: C_11  and  C_13 
ROOT
HETATM    1  N   UNL     1      41.973 -13.779   4.178  1.00  0.00    -0.314 N 
HETATM    2  C   UNL     1      42.024 -13.656   5.575  1.00  0.00     0.269 A 
HETATM    3  O   UNL     1      42.022 -14.573   6.387  1.00  0.00    -0.269 OA
HETATM    4  C   UNL     1      42.018 -12.133   5.907  1.00  0.00     0.198 A 
HETATM    5  C   UNL     1      41.886 -11.514   4.538  1.00  0.00     0.017 A 
HETATM    6  C   UNL     1      41.858 -12.521   3.568  1.00  0.00     0.047 A 
HETATM    7  C   UNL     1      41.738 -10.181   4.178  1.00  0.00     0.013 A 
HETATM    8  C   UNL     1      41.583  -9.871   2.824  1.00  0.00     0.001 A 
HETATM    9  C   UNL     1      41.569 -10.887   1.856  1.00  0.00     0.002 A 
HETATM   10  C   UNL     1      41.704 -12.229   2.224  1.00  0.00     0.030 A 
ENDROOT
BRANCH   4  11
HETATM   11  O   UNL     1      40.884 -11.802   6.702  1.00  0.00    -0.371 OA
HETATM   12  H   UNL     1      40.144 -12.268   6.273  1.00  0.00     0.212 HD
ENDBRANCH   4  11
BRANCH   4  13
HETATM   13  C   UNL     1      43.305 -11.626   6.510  1.00  0.00     0.018 A 
HETATM   14  C   UNL     1      43.554 -10.406   7.240  1.00  0.00     0.002 A 
HETATM   15  C   UNL     1      44.915 -10.377   7.560  1.00  0.00     0.043 A 
HETATM   16  C   UNL     1      42.763  -9.312   7.659  1.00  0.00     0.014 A 
HETATM   17  C   UNL     1      45.517  -9.321   8.255  1.00  0.00     0.030 A 
HETATM   18  N   UNL     1      45.475 -11.530   7.070  1.00  0.00    -0.365 N 
HETATM   19  C   UNL     1      44.709  -8.251   8.644  1.00  0.00     0.002 A 
HETATM   20  C   UNL     1      43.350  -8.246   8.352  1.00  0.00     0.001 A 
HETATM   21  H   UNL     1      46.451 -11.777   7.162  1.00  0.00     0.165 HD
HETATM   22  C   UNL     1      44.528 -12.283   6.439  1.00  0.00     0.100 A 
ENDBRANCH   4  13
BRANCH   1  23
HETATM   23  C   UNL     1      41.867 -15.047   3.495  1.00  0.00     0.133 C 
BRANCH  23  24
HETATM   24  C   UNL     1      43.237 -15.678   3.257  1.00  0.00     0.025 C 
BRANCH  24  25
HETATM   25  C   UNL     1      43.155 -16.807   2.230  1.00  0.00     0.040 C 
BRANCH  25  26
HETATM   26  C   UNL     1      43.425 -18.145   2.869  1.00  0.00    -0.058 A 
HETATM   27  C   UNL     1      43.831 -18.225   4.207  1.00  0.00     0.007 A 
HETATM   28  C   UNL     1      44.116 -19.463   4.787  1.00  0.00     0.001 A 
HETATM   29  C   UNL     1      44.000 -20.630   4.033  1.00  0.00     0.000 A 
HETATM   30  C   UNL     1      43.600 -20.561   2.700  1.00  0.00     0.001 A 
HETATM   31  C   UNL     1      43.316 -19.324   2.118  1.00  0.00     0.007 A 
ENDBRANCH  25  26
ENDBRANCH  24  25
ENDBRANCH  23  24
ENDBRANCH   1  23
TORSDOF 6
ENDMDL
MODEL 7
REMARK VINA RESULT:      -7.6      2.110      3.118
REMARK  6 active torsions:
REMARK  status: ('A' for Active; 'I' for Inactive)
REMARK    1  A    between atoms: C_4  and  C_5 
REMARK    2  A    between atoms: C_5  and  C_6 
REMARK    3  A    between atoms: C_6  and  C_7 
REMARK    4  A    between atoms: C_7  and  N_8 
REMARK    5  A    between atoms: C_11  and  O_12 
REMARK    6  A    between atoms: C_11  and  C_13 
ROOT
HETATM    1  N   UNL     1      40.666 -14.144   3.359  1.00  0.00    -0.314 N 
HETATM    2  C   UNL     1      40.616 -15.039   4.439  1.00  0.00     0.269 A 
HETATM    3  O   UNL     1      39.762 -15.893   4.637  1.00  0.00    -0.269 OA
HETATM    4  C   UNL     1      41.816 -14.701   5.376  1.00  0.00     0.198 A 
HETATM    5  C   UNL     1      42.423 -13.504   4.690  1.00  0.00     0.017 A 
HETATM    6  C   UNL     1      41.708 -13.219   3.522  1.00  0.00     0.047 A 
HETATM    7  C   UNL     1      43.477 -12.692   5.091  1.00  0.00     0.013 A 
HETATM    8  C   UNL     1      43.816 -11.600   4.288  1.00  0.00     0.001 A 
HETATM    9  C   UNL     1      43.101 -11.328   3.110  1.00  0.00     0.002 A 
HETATM   10  C   UNL     1      42.033 -12.140   2.719  1.00  0.00     0.030 A 
ENDROOT
BRANCH   4  11
HETATM   11  O   UNL     1      41.349 -14.336   6.671  1.00  0.00    -0.371 OA
HETATM   12  H   UNL     1      40.493 -13.902   6.503  1.00  0.00     0.212 HD
ENDBRANCH   4  11
BRANCH   4  13
HETATM   13  C   UNL     1      42.876 -15.774   5.434  1.00  0.00     0.018 A 
HETATM   14  C   UNL     1      43.204 -16.789   4.461  1.00  0.00     0.002 A 
HETATM   15  C   UNL     1      44.238 -17.564   4.993  1.00  0.00     0.043 A 
HETATM   16  C   UNL     1      42.721 -17.138   3.179  1.00  0.00     0.014 A 
HETATM   17  C   UNL     1      44.798 -18.661   4.324  1.00  0.00     0.030 A 
HETATM   18  N   UNL     1      44.549 -17.042   6.224  1.00  0.00    -0.365 N 
HETATM   19  C   UNL     1      44.289 -18.984   3.065  1.00  0.00     0.002 A 
HETATM   20  C   UNL     1      43.266 -18.233   2.497  1.00  0.00     0.001 A 
HETATM   21  H   UNL     1      45.269 -17.405   6.834  1.00  0.00     0.165 HD
HETATM   22  C   UNL     1      43.744 -15.977   6.501  1.00  0.00     0.100 A 
ENDBRANCH   4  13
BRANCH   1  23
HETATM   23  C   UNL     1      39.658 -14.087   2.327  1.00  0.00     0.133 C 
BRANCH  23  24
HETATM   24  C   UNL     1      40.017 -14.970   1.135  1.00  0.00     0.025 C 
BRANCH  24  25
HETATM   25  C   UNL     1      40.539 -14.135  -0.034  1.00  0.00     0.040 C 
BRANCH  25  26
HETATM   26  C   UNL     1      39.463 -13.910  -1.066  1.00  0.00    -0.058 A 
HETATM   27  C   UNL     1      38.662 -12.761  -1.018  1.00  0.00     0.007 A 
HETATM   28  C   UNL     1      37.643 -12.571  -1.953  1.00  0.00     0.001 A 
HETATM   29  C   UNL     1      37.415 -13.528  -2.941  1.00  0.00     0.000 A 
HETATM   30  C   UNL     1      38.203 -14.675  -2.994  1.00  0.00     0.001 A 
HETATM   31  C   UNL     1      39.222 -14.868  -2.060  1.00  0.00     0.007 A 
ENDBRANCH  25  26
ENDBRANCH  24  25
ENDBRANCH  23  24
ENDBRANCH   1  23
TORSDOF 6
ENDMDL
MODEL 8
REMARK VINA RESULT:      -7.5      2.435      5.412
REMARK  6 active torsions:
REMARK  status: ('A' for Active; 'I' for Inactive)
REMARK    1  A    between atoms: C_4  and  C_5 
REMARK    2  A    between atoms: C_5  and  C_6 
REMARK    3  A    between atoms: C_6  and  C_7 
REMARK    4  A    between atoms: C_7  and  N_8 
REMARK    5  A    between atoms: C_11  and  O_12 
REMARK    6  A    between atoms: C_11  and  C_13 
ROOT
HETATM    1  N   UNL     1      40.892 -12.424   4.377  1.00  0.00    -0.314 N 
HETATM    2  C   UNL     1      41.555 -11.190   4.459  1.00  0.00     0.269 A 
HETATM    3  O   UNL     1      41.243 -10.156   3.881  1.00  0.00    -0.269 OA
HETATM    4  C   UNL     1      42.801 -11.394   5.373  1.00  0.00     0.198 A 
HETATM    5  C   UNL     1      42.730 -12.869   5.677  1.00  0.00     0.017 A 
HETATM    6  C   UNL     1      41.599 -13.421   5.065  1.00  0.00     0.047 A 
HETATM    7  C   UNL     1      43.618 -13.674   6.378  1.00  0.00     0.013 A 
HETATM    8  C   UNL     1      43.342 -15.040   6.476  1.00  0.00     0.001 A 
HETATM    9  C   UNL     1      42.198 -15.584   5.869  1.00  0.00     0.002 A 
HETATM   10  C   UNL     1      41.315 -14.772   5.152  1.00  0.00     0.030 A 
ENDROOT
BRANCH   4  11
HETATM   11  O   UNL     1      43.997 -11.102   4.656  1.00  0.00    -0.371 OA
HETATM   12  H   UNL     1      44.677 -11.016   5.347  1.00  0.00     0.212 HD
ENDBRANCH   4  11
BRANCH   4  13
HETATM   13  C   UNL     1      42.731 -10.658   6.689  1.00  0.00     0.018 A 
HETATM   14  C   UNL     1      43.779 -10.395   7.646  1.00  0.00     0.002 A 
HETATM   15  C   UNL     1      43.206  -9.707   8.719  1.00  0.00     0.043 A 
HETATM   16  C   UNL     1      45.162 -10.678   7.718  1.00  0.00     0.014 A 
HETATM   17  C   UNL     1      43.931  -9.305   9.848  1.00  0.00     0.030 A 
HETATM   18  N   UNL     1      41.875  -9.534   8.431  1.00  0.00    -0.365 N 
HETATM   19  C   UNL     1      45.292  -9.611   9.891  1.00  0.00     0.002 A 
HETATM   20  C   UNL     1      45.902 -10.287   8.841  1.00  0.00     0.001 A 
HETATM   21  H   UNL     1      41.215  -9.062   9.033  1.00  0.00     0.165 HD
HETATM   22  C   UNL     1      41.577 -10.099   7.225  1.00  0.00     0.100 A 
ENDBRANCH   4  13
BRANCH   1  23
HETATM   23  C   UNL     1      39.738 -12.652   3.538  1.00  0.00     0.133 C 
BRANCH  23  24
HETATM   24  C   UNL     1      40.121 -12.746   2.062  1.00  0.00     0.025 C 
BRANCH  24  25
HETATM   25  C   UNL     1      39.882 -14.153   1.518  1.00  0.00     0.040 C 
BRANCH  25  26
HETATM   26  C   UNL     1      41.088 -15.032   1.731  1.00  0.00    -0.058 A 
HETATM   27  C   UNL     1      40.933 -16.376   2.096  1.00  0.00     0.007 A 
HETATM   28  C   UNL     1      42.051 -17.179   2.328  1.00  0.00     0.001 A 
HETATM   29  C   UNL     1      43.332 -16.645   2.200  1.00  0.00     0.000 A 
HETATM   30  C   UNL     1      43.497 -15.310   1.841  1.00  0.00     0.001 A 
HETATM   31  C   UNL     1      42.380 -14.504   1.610  1.00  0.00     0.007 A 
ENDBRANCH  25  26
ENDBRANCH  24  25
ENDBRANCH  23  24
ENDBRANCH   1  23
TORSDOF 6
ENDMDL
MODEL 9
REMARK VINA RESULT:      -7.2      2.517      5.569
REMARK  6 active torsions:
REMARK  status: ('A' for Active; 'I' for Inactive)
REMARK    1  A    between atoms: C_4  and  C_5 
REMARK    2  A    between atoms: C_5  and  C_6 
REMARK    3  A    between atoms: C_6  and  C_7 
REMARK    4  A    between atoms: C_7  and  N_8 
REMARK    5  A    between atoms: C_11  and  O_12 
REMARK    6  A    between atoms: C_11  and  C_13 
ROOT
HETATM    1  N   UNL     1      42.864 -13.344   3.517  1.00  0.00    -0.314 N 
HETATM    2  C   UNL     1      43.112 -14.461   2.703  1.00  0.00     0.269 A 
HETATM    3  O   UNL     1      43.821 -14.492   1.706  1.00  0.00    -0.269 OA
HETATM    4  C   UNL     1      42.265 -15.642   3.269  1.00  0.00     0.198 A 
HETATM    5  C   UNL     1      41.519 -14.981   4.399  1.00  0.00     0.017 A 
HETATM    6  C   UNL     1      41.902 -13.639   4.494  1.00  0.00     0.047 A 
HETATM    7  C   UNL     1      40.535 -15.496   5.235  1.00  0.00     0.013 A 
HETATM    8  C   UNL     1      39.959 -14.648   6.184  1.00  0.00     0.001 A 
HETATM    9  C   UNL     1      40.359 -13.305   6.281  1.00  0.00     0.002 A 
HETATM   10  C   UNL     1      41.338 -12.788   5.428  1.00  0.00     0.030 A 
ENDROOT
BRANCH   4  11
HETATM   11  O   UNL     1      41.346 -16.110   2.286  1.00  0.00    -0.371 OA
HETATM   12  H   UNL     1      40.551 -16.351   2.795  1.00  0.00     0.212 HD
ENDBRANCH   4  11
BRANCH   4  13
HETATM   13  C   UNL     1      43.084 -16.762   3.863  1.00  0.00     0.018 A 
HETATM   14  C   UNL     1      43.288 -18.105   3.373  1.00  0.00     0.002 A 
HETATM   15  C   UNL     1      44.100 -18.770   4.295  1.00  0.00     0.043 A 
HETATM   16  C   UNL     1      42.857 -18.832   2.240  1.00  0.00     0.014 A 
HETATM   17  C   UNL     1      44.488 -20.109   4.151  1.00  0.00     0.030 A 
HETATM   18  N   UNL     1      44.401 -17.879   5.294  1.00  0.00    -0.365 N 
HETATM   19  C   UNL     1      44.035 -20.800   3.026  1.00  0.00     0.002 A 
HETATM   20  C   UNL     1      43.232 -20.172   2.081  1.00  0.00     0.001 A 
HETATM   21  H   UNL     1      44.981 -18.090   6.095  1.00  0.00     0.165 HD
HETATM   22  C   UNL     1      43.800 -16.678   5.051  1.00  0.00     0.100 A 
ENDBRANCH   4  13
BRANCH   1  23
HETATM   23  C   UNL     1      43.402 -12.031   3.248  1.00  0.00     0.133 C 
BRANCH  23  24
HETATM   24  C   UNL     1      43.652 -11.247   4.534  1.00  0.00     0.025 C 
BRANCH  24  25
HETATM   25  C   UNL     1      44.879 -11.778   5.275  1.00  0.00     0.040 C 
BRANCH  25  26
HETATM   26  C   UNL     1      44.962 -11.211   6.669  1.00  0.00    -0.058 A 
HETATM   27  C   UNL     1      43.827 -11.177   7.491  1.00  0.00     0.007 A 
HETATM   28  C   UNL     1      43.897 -10.620   8.768  1.00  0.00     0.001 A 
HETATM   29  C   UNL     1      45.099 -10.090   9.234  1.00  0.00     0.000 A 
HETATM   30  C   UNL     1      46.231 -10.116   8.424  1.00  0.00     0.001 A 
HETATM   31  C   UNL     1      46.164 -10.672   7.145  1.00  0.00     0.007 A 
ENDBRANCH  25  26
ENDBRANCH  24  25
ENDBRANCH  23  24
ENDBRANCH   1  23
TORSDOF 6
ENDMDL
MODEL 10
REMARK VINA RESULT:      -7.1      2.796      6.103
REMARK  6 active torsions:
REMARK  status: ('A' for Active; 'I' for Inactive)
REMARK    1  A    between atoms: C_4  and  C_5 
REMARK    2  A    between atoms: C_5  and  C_6 
REMARK    3  A    between atoms: C_6  and  C_7 
REMARK    4  A    between atoms: C_7  and  N_8 
REMARK    5  A    between atoms: C_11  and  O_12 
REMARK    6  A    between atoms: C_11  and  C_13 
ROOT
HETATM    1  N   UNL     1      42.162 -12.687   2.639  1.00  0.00    -0.314 N 
HETATM    2  C   UNL     1      40.887 -12.217   2.289  1.00  0.00     0.269 A 
HETATM    3  O   UNL     1      40.506 -11.053   2.321  1.00  0.00    -0.269 OA
HETATM    4  C   UNL     1      40.023 -13.459   1.913  1.00  0.00     0.198 A 
HETATM    5  C   UNL     1      40.975 -14.596   2.180  1.00  0.00     0.017 A 
HETATM    6  C   UNL     1      42.206 -14.088   2.608  1.00  0.00     0.047 A 
HETATM    7  C   UNL     1      40.759 -15.967   2.116  1.00  0.00     0.013 A 
HETATM    8  C   UNL     1      41.807 -16.822   2.467  1.00  0.00     0.001 A 
HETATM    9  C   UNL     1      43.044 -16.304   2.883  1.00  0.00     0.002 A 
HETATM   10  C   UNL     1      43.252 -14.924   2.960  1.00  0.00     0.030 A 
ENDROOT
BRANCH   4  11
HETATM   11  O   UNL     1      38.892 -13.557   2.774  1.00  0.00    -0.371 OA
HETATM   12  H   UNL     1      38.498 -12.666   2.756  1.00  0.00     0.212 HD
ENDBRANCH   4  11
BRANCH   4  13
HETATM   13  C   UNL     1      39.637 -13.526   0.455  1.00  0.00     0.018 A 
HETATM   14  C   UNL     1      38.756 -12.664  -0.298  1.00  0.00     0.002 A 
HETATM   15  C   UNL     1      38.698 -13.160  -1.603  1.00  0.00     0.043 A 
HETATM   16  C   UNL     1      37.991 -11.513  -0.002  1.00  0.00     0.014 A 
HETATM   17  C   UNL     1      37.916 -12.579  -2.610  1.00  0.00     0.030 A 
HETATM   18  N   UNL     1      39.518 -14.259  -1.661  1.00  0.00    -0.365 N 
HETATM   19  C   UNL     1      37.163 -11.450  -2.281  1.00  0.00     0.002 A 
HETATM   20  C   UNL     1      37.200 -10.922  -0.996  1.00  0.00     0.001 A 
HETATM   21  H   UNL     1      39.671 -14.816  -2.490  1.00  0.00     0.165 HD
HETATM   22  C   UNL     1      40.082 -14.491  -0.441  1.00  0.00     0.100 A 
ENDBRANCH   4  13
BRANCH   1  23
HETATM   23  C   UNL     1      43.214 -11.833   3.138  1.00  0.00     0.133 C 
BRANCH  23  24
HETATM   24  C   UNL     1      43.512 -12.104   4.612  1.00  0.00     0.025 C 
BRANCH  24  25
HETATM   25  C   UNL     1      42.232 -12.091   5.446  1.00  0.00     0.040 C 
BRANCH  25  26
HETATM   26  C   UNL     1      41.912 -13.466   5.975  1.00  0.00    -0.058 A 
HETATM   27  C   UNL     1      42.917 -14.258   6.547  1.00  0.00     0.007 A 
HETATM   28  C   UNL     1      42.627 -15.545   7.004  1.00  0.00     0.001 A 
HETATM   29  C   UNL     1      41.333 -16.051   6.891  1.00  0.00     0.000 A 
HETATM   30  C   UNL     1      40.329 -15.273   6.320  1.00  0.00     0.001 A 
HETATM   31  C   UNL     1      40.616 -13.986   5.862  1.00  0.00     0.007 A 
ENDBRANCH  25  26
ENDBRANCH  24  25
ENDBRANCH  23  24
ENDBRANCH   1  23
TORSDOF 6
ENDMDL
