MODEL 1
REMARK VINA RESULT:      -8.8      0.000      0.000
REMARK  6 active torsions:
REMARK  status: ('A' for Active; 'I' for Inactive)
REMARK    1  A    between atoms: C_5  and  C_6 
REMARK    2  A    between atoms: C_12  and  C_13 
REMARK       I    between atoms: C_13  and  N_14 
REMARK    3  A    between atoms: N_14  and  C_15 
REMARK    4  A    between atoms: C_18  and  C_19 
REMARK    5  A    between atoms: C_19  and  O_20 
REMARK    6  A    between atoms: C_25  and  C_26 
ROOT
HETATM    1  C   UNL     1      41.211 -11.476   0.093  1.00  0.00     0.118 C 
HETATM    2  N   UNL     1      41.632 -12.207   1.302  1.00  0.00    -0.365 N 
HETATM    3  C   UNL     1      40.826 -12.222   2.403  1.00  0.00     0.138 A 
HETATM    4  N   UNL     1      39.746 -11.378   2.511  1.00  0.00    -0.240 N 
HETATM    5  N   UNL     1      39.145 -11.420   3.709  1.00  0.00    -0.181 NA
HETATM    6  C   UNL     1      39.794 -12.403   4.342  1.00  0.00     0.160 A 
HETATM    7  C   UNL     1      40.856 -12.949   3.580  1.00  0.00     0.096 A 
HETATM    8  C   UNL     1      39.375 -10.375   1.531  1.00  0.00     0.221 C 
HETATM    9  C   UNL     1      40.515 -10.170   0.517  1.00  0.00     0.066 C 
HETATM   10  H   UNL     1      42.639 -12.129   1.462  1.00  0.00     0.161 HD
ENDROOT
BRANCH   7  11
HETATM   11  C   UNL     1      41.745 -14.024   4.001  1.00  0.00     0.261 C 
HETATM   12  N   UNL     1      41.490 -15.232   3.381  1.00  0.00    -0.323 N 
HETATM   13  H   UNL     1      40.685 -15.241   2.765  1.00  0.00     0.169 HD
HETATM   14  O   UNL     1      42.627 -13.809   4.824  1.00  0.00    -0.267 OA
BRANCH  12  15
HETATM   15  C   UNL     1      42.231 -16.425   3.472  1.00  0.00     0.035 A 
HETATM   16  C   UNL     1      42.529 -17.243   2.383  1.00  0.00     0.030 A 
HETATM   17  C   UNL     1      43.234 -18.442   2.560  1.00  0.00     0.012 A 
HETATM   18  C   UNL     1      43.662 -18.854   3.829  1.00  0.00    -0.030 A 
HETATM   19  C   UNL     1      43.358 -18.020   4.917  1.00  0.00     0.012 A 
HETATM   20  C   UNL     1      42.667 -16.815   4.740  1.00  0.00     0.030 A 
BRANCH  18  21
HETATM   21  C   UNL     1      44.351 -20.187   4.065  1.00  0.00     0.147 C 
HETATM   22  C   UNL     1      44.097 -20.835   5.424  1.00  0.00     0.044 C 
BRANCH  21  23
HETATM   23  O   UNL     1      43.939 -21.116   3.057  1.00  0.00    -0.391 OA
HETATM   24  H   UNL     1      44.116 -20.701   2.196  1.00  0.00     0.210 HD
ENDBRANCH  21  23
ENDBRANCH  18  21
ENDBRANCH  12  15
ENDBRANCH   7  11
BRANCH   1  25
HETATM   25  C   UNL     1      40.424 -12.348  -0.876  1.00  0.00    -0.035 A 
HETATM   26  C   UNL     1      40.102 -13.687  -0.596  1.00  0.00     0.010 A 
HETATM   27  C   UNL     1      39.354 -14.457  -1.492  1.00  0.00     0.007 A 
HETATM   28  C   UNL     1      38.911 -13.910  -2.697  1.00  0.00    -0.062 A 
HETATM   29  C   UNL     1      38.105 -14.732  -3.659  1.00  0.00     0.048 C 
HETATM   30  C   UNL     1      39.270 -12.597  -3.014  1.00  0.00     0.007 A 
HETATM   31  C   UNL     1      40.021 -11.829  -2.118  1.00  0.00     0.010 A 
ENDBRANCH   1  25
BRANCH   8  32
HETATM   32  C   UNL     1      38.038 -10.716   0.911  1.00  0.00     0.409 C 
HETATM   33  F   UNL     1      37.790 -12.035   0.827  1.00  0.00    -0.169 F 
HETATM   34  F   UNL     1      37.009 -10.152   1.587  1.00  0.00    -0.169 F 
HETATM   35  F   UNL     1      37.973 -10.215  -0.352  1.00  0.00    -0.169 F 
ENDBRANCH   8  32
TORSDOF 6
ENDMDL
MODEL 2
REMARK VINA RESULT:      -8.6      3.136      5.733
REMARK  6 active torsions:
REMARK  status: ('A' for Active; 'I' for Inactive)
REMARK    1  A    between atoms: C_5  and  C_6 
REMARK    2  A    between atoms: C_12  and  C_13 
REMARK       I    between atoms: C_13  and  N_14 
REMARK    3  A    between atoms: N_14  and  C_15 
REMARK    4  A    between atoms: C_18  and  C_19 
REMARK    5  A    between atoms: C_19  and  O_20 
REMARK    6  A    between atoms: C_25  and  C_26 
ROOT
HETATM    1  C   UNL     1      40.500 -11.621   6.163  1.00  0.00     0.118 C 
HETATM    2  N   UNL     1      40.458 -12.810   5.292  1.00  0.00    -0.365 N 
HETATM    3  C   UNL     1      40.503 -12.662   3.936  1.00  0.00     0.138 A 
HETATM    4  N   UNL     1      40.342 -11.430   3.345  1.00  0.00    -0.240 N 
HETATM    5  N   UNL     1      40.273 -11.478   2.007  1.00  0.00    -0.181 NA
HETATM    6  C   UNL     1      40.510 -12.765   1.735  1.00  0.00     0.160 A 
HETATM    7  C   UNL     1      40.666 -13.560   2.897  1.00  0.00     0.096 A 
HETATM    8  C   UNL     1      40.067 -10.198   4.058  1.00  0.00     0.221 C 
HETATM    9  C   UNL     1      39.671 -10.498   5.515  1.00  0.00     0.066 C 
HETATM   10  H   UNL     1      39.833 -13.530   5.662  1.00  0.00     0.161 HD
ENDROOT
BRANCH   7  11
HETATM   11  C   UNL     1      40.927 -14.994   2.923  1.00  0.00     0.261 C 
HETATM   12  N   UNL     1      42.260 -15.313   3.088  1.00  0.00    -0.323 N 
HETATM   13  H   UNL     1      42.896 -14.524   3.106  1.00  0.00     0.169 HD
HETATM   14  O   UNL     1      40.003 -15.791   2.817  1.00  0.00    -0.267 OA
BRANCH  12  15
HETATM   15  C   UNL     1      42.829 -16.587   3.274  1.00  0.00     0.035 A 
HETATM   16  C   UNL     1      42.925 -17.553   2.273  1.00  0.00     0.030 A 
HETATM   17  C   UNL     1      43.463 -18.818   2.548  1.00  0.00     0.012 A 
HETATM   18  C   UNL     1      43.922 -19.151   3.830  1.00  0.00    -0.030 A 
HETATM   19  C   UNL     1      43.822 -18.169   4.828  1.00  0.00     0.012 A 
HETATM   20  C   UNL     1      43.298 -16.901   4.552  1.00  0.00     0.030 A 
BRANCH  18  21
HETATM   21  C   UNL     1      44.430 -20.539   4.179  1.00  0.00     0.147 C 
HETATM   22  C   UNL     1      43.978 -21.092   5.530  1.00  0.00     0.044 C 
BRANCH  21  23
HETATM   23  O   UNL     1      44.011 -21.463   3.170  1.00  0.00    -0.391 OA
HETATM   24  H   UNL     1      44.135 -21.024   2.312  1.00  0.00     0.210 HD
ENDBRANCH  21  23
ENDBRANCH  18  21
ENDBRANCH  12  15
ENDBRANCH   7  11
BRANCH   1  25
HETATM   25  C   UNL     1      41.918 -11.238   6.562  1.00  0.00    -0.035 A 
HETATM   26  C   UNL     1      43.041 -11.992   6.181  1.00  0.00     0.010 A 
HETATM   27  C   UNL     1      44.335 -11.600   6.538  1.00  0.00     0.007 A 
HETATM   28  C   UNL     1      44.542 -10.444   7.292  1.00  0.00    -0.062 A 
HETATM   29  C   UNL     1      45.930 -10.020   7.675  1.00  0.00     0.048 C 
HETATM   30  C   UNL     1      43.433  -9.714   7.726  1.00  0.00     0.007 A 
HETATM   31  C   UNL     1      42.139 -10.109   7.371  1.00  0.00     0.010 A 
ENDBRANCH   1  25
BRANCH   8  32
HETATM   32  C   UNL     1      41.223  -9.234   3.907  1.00  0.00     0.409 C 
HETATM   33  F   UNL     1      41.151  -8.454   2.813  1.00  0.00    -0.169 F 
HETATM   34  F   UNL     1      41.344  -8.417   4.980  1.00  0.00    -0.169 F 
HETATM   35  F   UNL     1      42.392  -9.925   3.831  1.00  0.00    -0.169 F 
ENDBRANCH   8  32
TORSDOF 6
ENDMDL
MODEL 3
REMARK VINA RESULT:      -8.5      4.563      8.296
REMARK  6 active torsions:
REMARK  status: ('A' for Active; 'I' for Inactive)
REMARK    1  A    between atoms: C_5  and  C_6 
REMARK    2  A    between atoms: C_12  and  C_13 
REMARK       I    between atoms: C_13  and  N_14 
REMARK    3  A    between atoms: N_14  and  C_15 
REMARK    4  A    between atoms: C_18  and  C_19 
REMARK    5  A    between atoms: C_19  and  O_20 
REMARK    6  A    between atoms: C_25  and  C_26 
ROOT
HETATM    1  C   UNL     1      43.270 -14.638   2.690  1.00  0.00     0.118 C 
HETATM    2  N   UNL     1      43.121 -13.588   3.714  1.00  0.00    -0.365 N 
HETATM    3  C   UNL     1      41.877 -13.252   4.167  1.00  0.00     0.138 A 
HETATM    4  N   UNL     1      40.741 -13.688   3.527  1.00  0.00    -0.240 N 
HETATM    5  N   UNL     1      39.610 -13.156   4.014  1.00  0.00    -0.181 NA
HETATM    6  C   UNL     1      40.033 -12.450   5.066  1.00  0.00     0.160 A 
HETATM    7  C   UNL     1      41.440 -12.469   5.221  1.00  0.00     0.096 A 
HETATM    8  C   UNL     1      40.724 -14.483   2.314  1.00  0.00     0.221 C 
HETATM    9  C   UNL     1      42.123 -14.509   1.672  1.00  0.00     0.066 C 
HETATM   10  H   UNL     1      43.789 -12.826   3.578  1.00  0.00     0.161 HD
ENDROOT
BRANCH   7  11
HETATM   11  C   UNL     1      42.195 -11.792   6.267  1.00  0.00     0.261 C 
HETATM   12  N   UNL     1      41.594 -10.636   6.727  1.00  0.00    -0.323 N 
HETATM   13  H   UNL     1      40.744 -10.368   6.244  1.00  0.00     0.169 HD
HETATM   14  O   UNL     1      43.254 -12.261   6.667  1.00  0.00    -0.267 OA
BRANCH  12  15
HETATM   15  C   UNL     1      41.995  -9.821   7.802  1.00  0.00     0.035 A 
HETATM   16  C   UNL     1      43.318  -9.472   8.066  1.00  0.00     0.030 A 
HETATM   17  C   UNL     1      43.643  -8.692   9.185  1.00  0.00     0.012 A 
HETATM   18  C   UNL     1      42.654  -8.238  10.068  1.00  0.00    -0.030 A 
HETATM   19  C   UNL     1      41.325  -8.594   9.790  1.00  0.00     0.012 A 
HETATM   20  C   UNL     1      40.997  -9.360   8.665  1.00  0.00     0.030 A 
BRANCH  18  21
HETATM   21  C   UNL     1      42.983  -7.466  11.335  1.00  0.00     0.147 C 
HETATM   22  C   UNL     1      41.790  -6.874  12.082  1.00  0.00     0.044 C 
BRANCH  21  23
HETATM   23  O   UNL     1      43.682  -8.323  12.243  1.00  0.00    -0.391 OA
HETATM   24  H   UNL     1      43.036  -8.628  12.902  1.00  0.00     0.210 HD
ENDBRANCH  21  23
ENDBRANCH  18  21
ENDBRANCH  12  15
ENDBRANCH   7  11
BRANCH   1  25
HETATM   25  C   UNL     1      43.454 -16.023   3.293  1.00  0.00    -0.035 A 
HETATM   26  C   UNL     1      43.517 -17.187   2.508  1.00  0.00     0.010 A 
HETATM   27  C   UNL     1      43.715 -18.444   3.088  1.00  0.00     0.007 A 
HETATM   28  C   UNL     1      43.851 -18.573   4.471  1.00  0.00    -0.062 A 
HETATM   29  C   UNL     1      44.066 -19.920   5.095  1.00  0.00     0.048 C 
HETATM   30  C   UNL     1      43.735 -17.432   5.269  1.00  0.00     0.007 A 
HETATM   31  C   UNL     1      43.534 -16.176   4.689  1.00  0.00     0.010 A 
ENDBRANCH   1  25
BRANCH   8  32
HETATM   32  C   UNL     1      40.134 -15.848   2.589  1.00  0.00     0.409 C 
HETATM   33  F   UNL     1      40.390 -16.321   3.822  1.00  0.00    -0.169 F 
HETATM   34  F   UNL     1      38.790 -15.861   2.421  1.00  0.00    -0.169 F 
HETATM   35  F   UNL     1      40.629 -16.752   1.701  1.00  0.00    -0.169 F 
ENDBRANCH   8  32
TORSDOF 6
ENDMDL
MODEL 4
REMARK VINA RESULT:      -8.5     16.261     18.361
REMARK  6 active torsions:
REMARK  status: ('A' for Active; 'I' for Inactive)
REMARK    1  A    between atoms: C_5  and  C_6 
REMARK    2  A    between atoms: C_12  and  C_13 
REMARK       I    between atoms: C_13  and  N_14 
REMARK    3  A    between atoms: N_14  and  C_15 
REMARK    4  A    between atoms: C_18  and  C_19 
REMARK    5  A    between atoms: C_19  and  O_20 
REMARK    6  A    between atoms: C_25  and  C_26 
ROOT
HETATM    1  C   UNL     1      46.924 -28.184   2.088  1.00  0.00     0.118 C 
HETATM    2  N   UNL     1      45.508 -28.548   1.892  1.00  0.00    -0.365 N 
HETATM    3  C   UNL     1      45.147 -29.323   0.828  1.00  0.00     0.138 A 
HETATM    4  N   UNL     1      46.021 -29.577  -0.203  1.00  0.00    -0.240 N 
HETATM    5  N   UNL     1      45.466 -30.236  -1.231  1.00  0.00    -0.181 NA
HETATM    6  C   UNL     1      44.234 -30.507  -0.791  1.00  0.00     0.160 A 
HETATM    7  C   UNL     1      43.969 -29.967   0.492  1.00  0.00     0.096 A 
HETATM    8  C   UNL     1      47.361 -29.033  -0.307  1.00  0.00     0.221 C 
HETATM    9  C   UNL     1      47.561 -27.900   0.715  1.00  0.00     0.066 C 
HETATM   10  H   UNL     1      44.880 -27.782   2.145  1.00  0.00     0.161 HD
ENDROOT
BRANCH   7  11
HETATM   11  C   UNL     1      42.719 -30.090   1.230  1.00  0.00     0.261 C 
HETATM   12  N   UNL     1      42.588 -31.286   1.908  1.00  0.00    -0.323 N 
HETATM   13  H   UNL     1      43.338 -31.951   1.761  1.00  0.00     0.169 HD
HETATM   14  O   UNL     1      41.904 -29.175   1.220  1.00  0.00    -0.267 OA
BRANCH  12  15
HETATM   15  C   UNL     1      41.569 -31.668   2.801  1.00  0.00     0.035 A 
HETATM   16  C   UNL     1      41.304 -31.019   4.006  1.00  0.00     0.030 A 
HETATM   17  C   UNL     1      40.300 -31.488   4.865  1.00  0.00     0.012 A 
HETATM   18  C   UNL     1      39.534 -32.617   4.543  1.00  0.00    -0.030 A 
HETATM   19  C   UNL     1      39.810 -33.260   3.326  1.00  0.00     0.012 A 
HETATM   20  C   UNL     1      40.801 -32.784   2.459  1.00  0.00     0.030 A 
BRANCH  18  21
HETATM   21  C   UNL     1      38.500 -33.200   5.491  1.00  0.00     0.147 C 
HETATM   22  C   UNL     1      38.750 -32.955   6.978  1.00  0.00     0.044 C 
BRANCH  21  23
HETATM   23  O   UNL     1      37.212 -32.664   5.174  1.00  0.00    -0.391 OA
HETATM   24  H   UNL     1      37.160 -32.600   4.205  1.00  0.00     0.210 HD
ENDBRANCH  21  23
ENDBRANCH  18  21
ENDBRANCH  12  15
ENDBRANCH   7  11
BRANCH   1  25
HETATM   25  C   UNL     1      47.671 -29.184   2.958  1.00  0.00    -0.035 A 
HETATM   26  C   UNL     1      47.073 -30.361   3.440  1.00  0.00     0.010 A 
HETATM   27  C   UNL     1      47.792 -31.276   4.215  1.00  0.00     0.007 A 
HETATM   28  C   UNL     1      49.130 -31.038   4.534  1.00  0.00    -0.062 A 
HETATM   29  C   UNL     1      49.905 -32.019   5.363  1.00  0.00     0.048 C 
HETATM   30  C   UNL     1      49.722 -29.845   4.109  1.00  0.00     0.007 A 
HETATM   31  C   UNL     1      49.000 -28.929   3.337  1.00  0.00     0.010 A 
ENDBRANCH   1  25
BRANCH   8  32
HETATM   32  C   UNL     1      48.386 -30.143  -0.223  1.00  0.00     0.409 C 
HETATM   33  F   UNL     1      49.554 -29.772   0.330  1.00  0.00    -0.169 F 
HETATM   34  F   UNL     1      47.924 -31.205   0.478  1.00  0.00    -0.169 F 
HETATM   35  F   UNL     1      48.662 -30.611  -1.470  1.00  0.00    -0.169 F 
ENDBRANCH   8  32
TORSDOF 6
ENDMDL
MODEL 5
REMARK VINA RESULT:      -8.3      4.020      8.436
REMARK  6 active torsions:
REMARK  status: ('A' for Active; 'I' for Inactive)
REMARK    1  A    between atoms: C_5  and  C_6 
REMARK    2  A    between atoms: C_12  and  C_13 
REMARK       I    between atoms: C_13  and  N_14 
REMARK    3  A    between atoms: N_14  and  C_15 
REMARK    4  A    between atoms: C_18  and  C_19 
REMARK    5  A    between atoms: C_19  and  O_20 
REMARK    6  A    between atoms: C_25  and  C_26 
ROOT
HETATM    1  C   UNL     1      40.298 -13.926   3.374  1.00  0.00     0.118 C 
HETATM    2  N   UNL     1      39.923 -13.281   2.103  1.00  0.00    -0.365 N 
HETATM    3  C   UNL     1      40.670 -12.247   1.618  1.00  0.00     0.138 A 
HETATM    4  N   UNL     1      41.621 -11.625   2.394  1.00  0.00    -0.240 N 
HETATM    5  N   UNL     1      42.165 -10.543   1.818  1.00  0.00    -0.181 NA
HETATM    6  C   UNL     1      41.625 -10.544   0.595  1.00  0.00     0.160 A 
HETATM    7  C   UNL     1      40.684 -11.585   0.403  1.00  0.00     0.096 A 
HETATM    8  C   UNL     1      41.899 -11.946   3.781  1.00  0.00     0.221 C 
HETATM    9  C   UNL     1      40.790 -12.847   4.355  1.00  0.00     0.066 C 
HETATM   10  H   UNL     1      38.908 -13.212   1.996  1.00  0.00     0.161 HD
ENDROOT
BRANCH   7  11
HETATM   11  C   UNL     1      39.929 -11.840  -0.817  1.00  0.00     0.261 C 
HETATM   12  N   UNL     1      38.565 -11.680  -0.671  1.00  0.00    -0.323 N 
HETATM   13  H   UNL     1      38.252 -11.470   0.270  1.00  0.00     0.169 HD
HETATM   14  O   UNL     1      40.511 -12.152  -1.849  1.00  0.00    -0.267 OA
BRANCH  12  15
HETATM   15  C   UNL     1      37.575 -11.732  -1.670  1.00  0.00     0.035 A 
HETATM   16  C   UNL     1      36.832 -10.630  -2.091  1.00  0.00     0.030 A 
HETATM   17  C   UNL     1      35.829 -10.771  -3.061  1.00  0.00     0.012 A 
HETATM   18  C   UNL     1      35.544 -12.016  -3.638  1.00  0.00    -0.030 A 
HETATM   19  C   UNL     1      36.301 -13.117  -3.207  1.00  0.00     0.012 A 
HETATM   20  C   UNL     1      37.313 -12.976  -2.250  1.00  0.00     0.030 A 
BRANCH  18  21
HETATM   21  C   UNL     1      34.408 -12.217  -4.626  1.00  0.00     0.147 C 
HETATM   22  C   UNL     1      33.863 -10.948  -5.278  1.00  0.00     0.044 C 
BRANCH  21  23
HETATM   23  O   UNL     1      34.841 -13.091  -5.672  1.00  0.00    -0.391 OA
HETATM   24  H   UNL     1      34.079 -13.232  -6.260  1.00  0.00     0.210 HD
ENDBRANCH  21  23
ENDBRANCH  18  21
ENDBRANCH  12  15
ENDBRANCH   7  11
BRANCH   1  25
HETATM   25  C   UNL     1      41.240 -15.106   3.177  1.00  0.00    -0.035 A 
HETATM   26  C   UNL     1      41.760 -15.455   1.919  1.00  0.00     0.010 A 
HETATM   27  C   UNL     1      42.646 -16.527   1.772  1.00  0.00     0.007 A 
HETATM   28  C   UNL     1      43.032 -17.284   2.879  1.00  0.00    -0.062 A 
HETATM   29  C   UNL     1      43.985 -18.433   2.725  1.00  0.00     0.048 C 
HETATM   30  C   UNL     1      42.481 -16.983   4.128  1.00  0.00     0.007 A 
HETATM   31  C   UNL     1      41.592 -15.913   4.273  1.00  0.00     0.010 A 
ENDBRANCH   1  25
BRANCH   8  32
HETATM   32  C   UNL     1      43.298 -12.505   3.920  1.00  0.00     0.409 C 
HETATM   33  F   UNL     1      44.239 -11.577   4.166  1.00  0.00    -0.169 F 
HETATM   34  F   UNL     1      43.375 -13.432   4.904  1.00  0.00    -0.169 F 
HETATM   35  F   UNL     1      43.655 -13.146   2.775  1.00  0.00    -0.169 F 
ENDBRANCH   8  32
TORSDOF 6
ENDMDL
MODEL 6
REMARK VINA RESULT:      -8.2      4.250      8.653
REMARK  6 active torsions:
REMARK  status: ('A' for Active; 'I' for Inactive)
REMARK    1  A    between atoms: C_5  and  C_6 
REMARK    2  A    between atoms: C_12  and  C_13 
REMARK       I    between atoms: C_13  and  N_14 
REMARK    3  A    between atoms: N_14  and  C_15 
REMARK    4  A    between atoms: C_18  and  C_19 
REMARK    5  A    between atoms: C_19  and  O_20 
REMARK    6  A    between atoms: C_25  and  C_26 
ROOT
HETATM    1  C   UNL     1      43.313 -14.469   3.302  1.00  0.00     0.118 C 
HETATM    2  N   UNL     1      42.700 -13.292   3.944  1.00  0.00    -0.365 N 
HETATM    3  C   UNL     1      41.364 -13.055   3.795  1.00  0.00     0.138 A 
HETATM    4  N   UNL     1      40.615 -13.741   2.867  1.00  0.00    -0.240 N 
HETATM    5  N   UNL     1      39.356 -13.292   2.752  1.00  0.00    -0.181 NA
HETATM    6  C   UNL     1      39.271 -12.368   3.714  1.00  0.00     0.160 A 
HETATM    7  C   UNL     1      40.491 -12.172   4.406  1.00  0.00     0.096 A 
HETATM    8  C   UNL     1      41.140 -14.723   1.939  1.00  0.00     0.221 C 
HETATM    9  C   UNL     1      42.678 -14.668   1.915  1.00  0.00     0.066 C 
HETATM   10  H   UNL     1      43.322 -12.480   3.925  1.00  0.00     0.161 HD
ENDROOT
BRANCH   7  11
HETATM   11  C   UNL     1      40.713 -11.233   5.498  1.00  0.00     0.261 C 
HETATM   12  N   UNL     1      39.552 -10.677   5.999  1.00  0.00    -0.323 N 
HETATM   13  H   UNL     1      38.702 -10.937   5.510  1.00  0.00     0.169 HD
HETATM   14  O   UNL     1      41.849 -11.010   5.899  1.00  0.00    -0.267 OA
BRANCH  12  15
HETATM   15  C   UNL     1      39.406  -9.837   7.118  1.00  0.00     0.035 A 
HETATM   16  C   UNL     1      39.535  -8.450   7.075  1.00  0.00     0.030 A 
HETATM   17  C   UNL     1      39.421  -7.683   8.243  1.00  0.00     0.012 A 
HETATM   18  C   UNL     1      39.174  -8.282   9.486  1.00  0.00    -0.030 A 
HETATM   19  C   UNL     1      39.044  -9.680   9.516  1.00  0.00     0.012 A 
HETATM   20  C   UNL     1      39.142 -10.445   8.348  1.00  0.00     0.030 A 
BRANCH  18  21
HETATM   21  C   UNL     1      39.132  -7.489  10.781  1.00  0.00     0.147 C 
HETATM   22  C   UNL     1      38.639  -6.049  10.662  1.00  0.00     0.044 C 
BRANCH  21  23
HETATM   23  O   UNL     1      38.287  -8.161  11.719  1.00  0.00    -0.391 OA
HETATM   24  H   UNL     1      38.865  -8.536  12.406  1.00  0.00     0.210 HD
ENDBRANCH  21  23
ENDBRANCH  18  21
ENDBRANCH  12  15
ENDBRANCH   7  11
BRANCH   1  25
HETATM   25  C   UNL     1      43.310 -15.696   4.203  1.00  0.00    -0.035 A 
HETATM   26  C   UNL     1      42.776 -15.678   5.503  1.00  0.00     0.010 A 
HETATM   27  C   UNL     1      42.760 -16.827   6.298  1.00  0.00     0.007 A 
HETATM   28  C   UNL     1      43.284 -18.028   5.817  1.00  0.00    -0.062 A 
HETATM   29  C   UNL     1      43.266 -19.265   6.667  1.00  0.00     0.048 C 
HETATM   30  C   UNL     1      43.868 -18.049   4.548  1.00  0.00     0.007 A 
HETATM   31  C   UNL     1      43.886 -16.897   3.755  1.00  0.00     0.010 A 
ENDBRANCH   1  25
BRANCH   8  32
HETATM   32  C   UNL     1      40.565 -16.090   2.239  1.00  0.00     0.409 C 
HETATM   33  F   UNL     1      41.411 -17.107   2.002  1.00  0.00    -0.169 F 
HETATM   34  F   UNL     1      40.154 -16.194   3.525  1.00  0.00    -0.169 F 
HETATM   35  F   UNL     1      39.459 -16.302   1.476  1.00  0.00    -0.169 F 
ENDBRANCH   8  32
TORSDOF 6
ENDMDL
MODEL 7
REMARK VINA RESULT:      -8.2      3.585      5.580
REMARK  6 active torsions:
REMARK  status: ('A' for Active; 'I' for Inactive)
REMARK    1  A    between atoms: C_5  and  C_6 
REMARK    2  A    between atoms: C_12  and  C_13 
REMARK       I    between atoms: C_13  and  N_14 
REMARK    3  A    between atoms: N_14  and  C_15 
REMARK    4  A    between atoms: C_18  and  C_19 
REMARK    5  A    between atoms: C_19  and  O_20 
REMARK    6  A    between atoms: C_25  and  C_26 
ROOT
HETATM    1  C   UNL     1      38.632 -11.037  -0.108  1.00  0.00     0.118 C 
HETATM    2  N   UNL     1      39.105 -11.704   1.119  1.00  0.00    -0.365 N 
HETATM    3  C   UNL     1      39.687 -12.936   1.042  1.00  0.00     0.138 A 
HETATM    4  N   UNL     1      39.629 -13.684  -0.111  1.00  0.00    -0.240 N 
HETATM    5  N   UNL     1      40.125 -14.923   0.024  1.00  0.00    -0.181 NA
HETATM    6  C   UNL     1      40.616 -14.922   1.267  1.00  0.00     0.160 A 
HETATM    7  C   UNL     1      40.378 -13.709   1.959  1.00  0.00     0.096 A 
HETATM    8  C   UNL     1      38.928 -13.294  -1.318  1.00  0.00     0.221 C 
HETATM    9  C   UNL     1      38.008 -12.091  -1.040  1.00  0.00     0.066 C 
HETATM   10  H   UNL     1      38.481 -11.532   1.911  1.00  0.00     0.161 HD
ENDROOT
BRANCH   7  11
HETATM   11  C   UNL     1      40.786 -13.409   3.325  1.00  0.00     0.261 C 
HETATM   12  N   UNL     1      42.149 -13.244   3.475  1.00  0.00    -0.323 N 
HETATM   13  H   UNL     1      42.700 -13.412   2.641  1.00  0.00     0.169 HD
HETATM   14  O   UNL     1      39.947 -13.313   4.213  1.00  0.00    -0.267 OA
BRANCH  12  15
HETATM   15  C   UNL     1      42.850 -12.834   4.625  1.00  0.00     0.035 A 
HETATM   16  C   UNL     1      43.147 -13.672   5.698  1.00  0.00     0.030 A 
HETATM   17  C   UNL     1      43.810 -13.177   6.831  1.00  0.00     0.012 A 
HETATM   18  C   UNL     1      44.196 -11.833   6.919  1.00  0.00    -0.030 A 
HETATM   19  C   UNL     1      43.893 -11.000   5.831  1.00  0.00     0.012 A 
HETATM   20  C   UNL     1      43.245 -11.495   4.693  1.00  0.00     0.030 A 
BRANCH  18  21
HETATM   21  C   UNL     1      44.837 -11.248   8.166  1.00  0.00     0.147 C 
HETATM   22  C   UNL     1      45.333  -9.809   8.046  1.00  0.00     0.044 C 
BRANCH  21  23
HETATM   23  O   UNL     1      43.899 -11.296   9.246  1.00  0.00    -0.391 OA
HETATM   24  H   UNL     1      43.489 -12.177   9.231  1.00  0.00     0.210 HD
ENDBRANCH  21  23
ENDBRANCH  18  21
ENDBRANCH  12  15
ENDBRANCH   7  11
BRANCH   1  25
HETATM   25  C   UNL     1      39.697 -10.154  -0.743  1.00  0.00    -0.035 A 
HETATM   26  C   UNL     1      40.978  -9.996  -0.188  1.00  0.00     0.010 A 
HETATM   27  C   UNL     1      41.946  -9.201  -0.808  1.00  0.00     0.007 A 
HETATM   28  C   UNL     1      41.657  -8.535  -2.000  1.00  0.00    -0.062 A 
HETATM   29  C   UNL     1      42.695  -7.682  -2.670  1.00  0.00     0.048 C 
HETATM   30  C   UNL     1      40.371  -8.637  -2.535  1.00  0.00     0.007 A 
HETATM   31  C   UNL     1      39.402  -9.431  -1.912  1.00  0.00     0.010 A 
ENDBRANCH   1  25
BRANCH   8  32
HETATM   32  C   UNL     1      39.910 -13.084  -2.450  1.00  0.00     0.409 C 
HETATM   33  F   UNL     1      39.483 -12.233  -3.399  1.00  0.00    -0.169 F 
HETATM   34  F   UNL     1      41.105 -12.630  -2.005  1.00  0.00    -0.169 F 
HETATM   35  F   UNL     1      40.167 -14.271  -3.063  1.00  0.00    -0.169 F 
ENDBRANCH   8  32
TORSDOF 6
ENDMDL
MODEL 8
REMARK VINA RESULT:      -8.1     15.840     18.834
REMARK  6 active torsions:
REMARK  status: ('A' for Active; 'I' for Inactive)
REMARK    1  A    between atoms: C_5  and  C_6 
REMARK    2  A    between atoms: C_12  and  C_13 
REMARK       I    between atoms: C_13  and  N_14 
REMARK    3  A    between atoms: N_14  and  C_15 
REMARK    4  A    between atoms: C_18  and  C_19 
REMARK    5  A    between atoms: C_19  and  O_20 
REMARK    6  A    between atoms: C_25  and  C_26 
ROOT
HETATM    1  C   UNL     1      46.684 -28.125  -1.794  1.00  0.00     0.118 C 
HETATM    2  N   UNL     1      47.900 -28.666  -1.161  1.00  0.00    -0.365 N 
HETATM    3  C   UNL     1      47.795 -29.469  -0.062  1.00  0.00     0.138 A 
HETATM    4  N   UNL     1      46.608 -29.596   0.621  1.00  0.00    -0.240 N 
HETATM    5  N   UNL     1      46.710 -30.308   1.753  1.00  0.00    -0.181 NA
HETATM    6  C   UNL     1      47.974 -30.742   1.728  1.00  0.00     0.160 A 
HETATM    7  C   UNL     1      48.708 -30.256   0.618  1.00  0.00     0.096 A 
HETATM    8  C   UNL     1      45.387 -28.882   0.302  1.00  0.00     0.221 C 
HETATM    9  C   UNL     1      45.676 -27.745  -0.695  1.00  0.00     0.066 C 
HETATM   10  H   UNL     1      48.668 -27.991  -1.173  1.00  0.00     0.161 HD
ENDROOT
BRANCH   7  11
HETATM   11  C   UNL     1      50.104 -30.548   0.322  1.00  0.00     0.261 C 
HETATM   12  N   UNL     1      50.277 -31.494  -0.669  1.00  0.00    -0.323 N 
HETATM   13  H   UNL     1      49.424 -31.913  -1.021  1.00  0.00     0.169 HD
HETATM   14  O   UNL     1      50.998 -29.964   0.924  1.00  0.00    -0.267 OA
BRANCH  12  15
HETATM   15  C   UNL     1      51.481 -31.910  -1.269  1.00  0.00     0.035 A 
HETATM   16  C   UNL     1      51.859 -31.580  -2.569  1.00  0.00     0.030 A 
HETATM   17  C   UNL     1      53.054 -32.072  -3.114  1.00  0.00     0.012 A 
HETATM   18  C   UNL     1      53.904 -32.903  -2.372  1.00  0.00    -0.030 A 
HETATM   19  C   UNL     1      53.513 -33.226  -1.063  1.00  0.00     0.012 A 
HETATM   20  C   UNL     1      52.327 -32.724  -0.513  1.00  0.00     0.030 A 
BRANCH  18  21
HETATM   21  C   UNL     1      55.160 -33.521  -2.962  1.00  0.00     0.147 C 
HETATM   22  C   UNL     1      55.594 -32.975  -4.321  1.00  0.00     0.044 C 
BRANCH  21  23
HETATM   23  O   UNL     1      56.250 -33.335  -2.053  1.00  0.00    -0.391 OA
HETATM   24  H   UNL     1      56.458 -34.206  -1.675  1.00  0.00     0.210 HD
ENDBRANCH  21  23
ENDBRANCH  18  21
ENDBRANCH  12  15
ENDBRANCH   7  11
BRANCH   1  25
HETATM   25  C   UNL     1      46.141 -29.031  -2.891  1.00  0.00    -0.035 A 
HETATM   26  C   UNL     1      46.665 -30.310  -3.143  1.00  0.00     0.010 A 
HETATM   27  C   UNL     1      46.129 -31.132  -4.138  1.00  0.00     0.007 A 
HETATM   28  C   UNL     1      45.054 -30.695  -4.914  1.00  0.00    -0.062 A 
HETATM   29  C   UNL     1      44.474 -31.576  -5.982  1.00  0.00     0.048 C 
HETATM   30  C   UNL     1      44.557 -29.405  -4.713  1.00  0.00     0.007 A 
HETATM   31  C   UNL     1      45.097 -28.582  -3.719  1.00  0.00     0.010 A 
ENDBRANCH   1  25
BRANCH   8  32
HETATM   32  C   UNL     1      44.314 -29.851  -0.145  1.00  0.00     0.409 C 
HETATM   33  F   UNL     1      44.788 -30.981  -0.698  1.00  0.00    -0.169 F 
HETATM   34  F   UNL     1      43.501 -30.210   0.876  1.00  0.00    -0.169 F 
HETATM   35  F   UNL     1      43.512 -29.257  -1.069  1.00  0.00    -0.169 F 
ENDBRANCH   8  32
TORSDOF 6
ENDMDL
MODEL 9
REMARK VINA RESULT:      -8.0     16.166     17.869
REMARK  6 active torsions:
REMARK  status: ('A' for Active; 'I' for Inactive)
REMARK    1  A    between atoms: C_5  and  C_6 
REMARK    2  A    between atoms: C_12  and  C_13 
REMARK       I    between atoms: C_13  and  N_14 
REMARK    3  A    between atoms: N_14  and  C_15 
REMARK    4  A    between atoms: C_18  and  C_19 
REMARK    5  A    between atoms: C_19  and  O_20 
REMARK    6  A    between atoms: C_25  and  C_26 
ROOT
HETATM    1  C   UNL     1      47.095 -31.561  -0.789  1.00  0.00     0.118 C 
HETATM    2  N   UNL     1      46.296 -31.690   0.443  1.00  0.00    -0.365 N 
HETATM    3  C   UNL     1      46.040 -30.587   1.206  1.00  0.00     0.138 A 
HETATM    4  N   UNL     1      46.705 -29.402   0.996  1.00  0.00    -0.240 N 
HETATM    5  N   UNL     1      46.439 -28.464   1.917  1.00  0.00    -0.181 NA
HETATM    6  C   UNL     1      45.492 -29.033   2.669  1.00  0.00     0.160 A 
HETATM    7  C   UNL     1      45.193 -30.361   2.276  1.00  0.00     0.096 A 
HETATM    8  C   UNL     1      47.751 -29.200   0.013  1.00  0.00     0.221 C 
HETATM    9  C   UNL     1      48.232 -30.553  -0.543  1.00  0.00     0.066 C 
HETATM   10  H   UNL     1      46.496 -32.562   0.937  1.00  0.00     0.161 HD
ENDROOT
BRANCH   7  11
HETATM   11  C   UNL     1      44.213 -31.238   2.904  1.00  0.00     0.261 C 
HETATM   12  N   UNL     1      43.043 -30.597   3.264  1.00  0.00    -0.323 N 
HETATM   13  H   UNL     1      43.033 -29.596   3.110  1.00  0.00     0.169 HD
HETATM   14  O   UNL     1      44.459 -32.428   3.058  1.00  0.00    -0.267 OA
BRANCH  12  15
HETATM   15  C   UNL     1      41.864 -31.171   3.776  1.00  0.00     0.035 A 
HETATM   16  C   UNL     1      41.492 -31.124   5.118  1.00  0.00     0.030 A 
HETATM   17  C   UNL     1      40.323 -31.760   5.559  1.00  0.00     0.012 A 
HETATM   18  C   UNL     1      39.493 -32.457   4.670  1.00  0.00    -0.030 A 
HETATM   19  C   UNL     1      39.878 -32.494   3.321  1.00  0.00     0.012 A 
HETATM   20  C   UNL     1      41.037 -31.847   2.876  1.00  0.00     0.030 A 
BRANCH  18  21
HETATM   21  C   UNL     1      38.268 -33.228   5.132  1.00  0.00     0.147 C 
HETATM   22  C   UNL     1      38.145 -33.439   6.639  1.00  0.00     0.044 C 
BRANCH  21  23
HETATM   23  O   UNL     1      37.089 -32.548   4.691  1.00  0.00    -0.391 OA
HETATM   24  H   UNL     1      36.453 -32.573   5.426  1.00  0.00     0.210 HD
ENDBRANCH  21  23
ENDBRANCH  18  21
ENDBRANCH  12  15
ENDBRANCH   7  11
BRANCH   1  25
HETATM   25  C   UNL     1      46.239 -31.291  -2.018  1.00  0.00    -0.035 A 
HETATM   26  C   UNL     1      44.869 -30.988  -1.933  1.00  0.00     0.010 A 
HETATM   27  C   UNL     1      44.113 -30.716  -3.077  1.00  0.00     0.007 A 
HETATM   28  C   UNL     1      44.705 -30.744  -4.341  1.00  0.00    -0.062 A 
HETATM   29  C   UNL     1      43.896 -30.450  -5.570  1.00  0.00     0.048 C 
HETATM   30  C   UNL     1      46.052 -31.097  -4.446  1.00  0.00     0.007 A 
HETATM   31  C   UNL     1      46.807 -31.372  -3.301  1.00  0.00     0.010 A 
ENDBRANCH   1  25
BRANCH   8  32
HETATM   32  C   UNL     1      47.299 -28.213  -1.041  1.00  0.00     0.409 C 
HETATM   33  F   UNL     1      45.967 -28.168  -1.217  1.00  0.00    -0.169 F 
HETATM   34  F   UNL     1      47.714 -26.954  -0.765  1.00  0.00    -0.169 F 
HETATM   35  F   UNL     1      47.853 -28.534  -2.241  1.00  0.00    -0.169 F 
ENDBRANCH   8  32
TORSDOF 6
ENDMDL
MODEL 10
REMARK VINA RESULT:      -7.9      6.580      9.764
REMARK  6 active torsions:
REMARK  status: ('A' for Active; 'I' for Inactive)
REMARK    1  A    between atoms: C_5  and  C_6 
REMARK    2  A    between atoms: C_12  and  C_13 
REMARK       I    between atoms: C_13  and  N_14 
REMARK    3  A    between atoms: N_14  and  C_15 
REMARK    4  A    between atoms: C_18  and  C_19 
REMARK    5  A    between atoms: C_19  and  O_20 
REMARK    6  A    between atoms: C_25  and  C_26 
ROOT
HETATM    1  C   UNL     1      43.116  -7.957   8.345  1.00  0.00     0.118 C 
HETATM    2  N   UNL     1      42.864  -8.859   7.207  1.00  0.00    -0.365 N 
HETATM    3  C   UNL     1      43.442 -10.095   7.178  1.00  0.00     0.138 A 
HETATM    4  N   UNL     1      44.444 -10.438   8.055  1.00  0.00    -0.240 N 
HETATM    5  N   UNL     1      44.997 -11.634   7.803  1.00  0.00    -0.181 NA
HETATM    6  C   UNL     1      44.246 -12.113   6.806  1.00  0.00     0.160 A 
HETATM    7  C   UNL     1      43.254 -11.202   6.369  1.00  0.00     0.096 A 
HETATM    8  C   UNL     1      45.021  -9.548   9.044  1.00  0.00     0.221 C 
HETATM    9  C   UNL     1      44.588  -8.095   8.776  1.00  0.00     0.066 C 
HETATM   10  H   UNL     1      42.811  -8.349   6.322  1.00  0.00     0.161 HD
ENDROOT
BRANCH   7  11
HETATM   11  C   UNL     1      42.291 -11.434   5.300  1.00  0.00     0.261 C 
HETATM   12  N   UNL     1      42.873 -11.687   4.073  1.00  0.00    -0.323 N 
HETATM   13  H   UNL     1      43.884 -11.617   4.050  1.00  0.00     0.169 HD
HETATM   14  O   UNL     1      41.089 -11.408   5.535  1.00  0.00    -0.267 OA
BRANCH  12  15
HETATM   15  C   UNL     1      42.238 -12.065   2.875  1.00  0.00     0.035 A 
HETATM   16  C   UNL     1      41.674 -11.166   1.972  1.00  0.00     0.030 A 
HETATM   17  C   UNL     1      41.017 -11.623   0.821  1.00  0.00     0.012 A 
HETATM   18  C   UNL     1      40.909 -12.992   0.540  1.00  0.00    -0.030 A 
HETATM   19  C   UNL     1      41.483 -13.888   1.456  1.00  0.00     0.012 A 
HETATM   20  C   UNL     1      42.152 -13.432   2.598  1.00  0.00     0.030 A 
BRANCH  18  21
HETATM   21  C   UNL     1      40.129 -13.521  -0.651  1.00  0.00     0.147 C 
HETATM   22  C   UNL     1      38.892 -12.717  -1.047  1.00  0.00     0.044 C 
BRANCH  21  23
HETATM   23  O   UNL     1      40.992 -13.579  -1.792  1.00  0.00    -0.391 OA
HETATM   24  H   UNL     1      41.791 -13.071  -1.572  1.00  0.00     0.210 HD
ENDBRANCH  21  23
ENDBRANCH  18  21
ENDBRANCH  12  15
ENDBRANCH   7  11
BRANCH   1  25
HETATM   25  C   UNL     1      42.093  -8.121   9.461  1.00  0.00    -0.035 A 
HETATM   26  C   UNL     1      41.099  -9.113   9.434  1.00  0.00     0.010 A 
HETATM   27  C   UNL     1      40.189  -9.259  10.486  1.00  0.00     0.007 A 
HETATM   28  C   UNL     1      40.246  -8.411  11.593  1.00  0.00    -0.062 A 
HETATM   29  C   UNL     1      39.273  -8.567  12.725  1.00  0.00     0.048 C 
HETATM   30  C   UNL     1      41.194  -7.385  11.610  1.00  0.00     0.007 A 
HETATM   31  C   UNL     1      42.101  -7.238  10.555  1.00  0.00     0.010 A 
ENDBRANCH   1  25
BRANCH   8  32
HETATM   32  C   UNL     1      44.717 -10.047  10.440  1.00  0.00     0.409 C 
HETATM   33  F   UNL     1      43.583 -10.763  10.534  1.00  0.00    -0.169 F 
HETATM   34  F   UNL     1      45.720 -10.810  10.934  1.00  0.00    -0.169 F 
HETATM   35  F   UNL     1      44.598  -8.992  11.290  1.00  0.00    -0.169 F 
ENDBRANCH   8  32
TORSDOF 6
ENDMDL
