MODEL 1
REMARK VINA RESULT:      -9.0      0.000      0.000
REMARK  5 active torsions:
REMARK  status: ('A' for Active; 'I' for Inactive)
REMARK    1  A    between atoms: C_5  and  C_6 
REMARK    2  A    between atoms: C_14  and  C_15 
REMARK       I    between atoms: C_15  and  N_16 
REMARK    3  A    between atoms: N_16  and  C_17 
REMARK    4  A    between atoms: C_20  and  C_21 
REMARK    5  A    between atoms: C_23  and  N_24 
ROOT
HETATM    1  C   UNL     1      39.954 -13.356  -0.193  1.00  0.00     0.262 C 
HETATM    2  N   UNL     1      39.673 -14.365   0.700  1.00  0.00    -0.301 N 
HETATM    3  O   UNL     1      40.998 -12.713  -0.204  1.00  0.00    -0.267 OA
HETATM    4  H   UNL     1      38.972 -15.055   0.485  1.00  0.00     0.171 HD
ENDROOT
BRANCH   1   5
HETATM    5  C   UNL     1      38.940 -13.114  -1.213  1.00  0.00     0.095 A 
HETATM    6  C   UNL     1      38.457 -13.946  -2.209  1.00  0.00     0.093 A 
HETATM    7  C   UNL     1      38.705 -15.333  -2.651  1.00  0.00     0.080 C 
HETATM    8  O   UNL     1      37.499 -13.291  -2.917  1.00  0.00    -0.217 OA
HETATM    9  N   UNL     1      37.304 -12.035  -2.396  1.00  0.00    -0.127 NA
HETATM   10  C   UNL     1      38.152 -11.925  -1.364  1.00  0.00     0.117 A 
BRANCH  10  11
HETATM   11  C   UNL     1      38.182 -10.712  -0.560  1.00  0.00     0.056 A 
HETATM   12  C   UNL     1      38.955  -9.598  -0.909  1.00  0.00     0.049 A 
HETATM   13 CL   UNL     1      39.939  -9.561  -2.333  1.00  0.00    -0.083 Cl
HETATM   14  C   UNL     1      38.978  -8.465  -0.082  1.00  0.00     0.025 A 
HETATM   15  C   UNL     1      38.238  -8.441   1.102  1.00  0.00     0.005 A 
HETATM   16  C   UNL     1      37.467  -9.544   1.456  1.00  0.00     0.043 A 
HETATM   17  C   UNL     1      37.438 -10.663   0.624  1.00  0.00     0.130 A 
HETATM   18  F   UNL     1      36.682 -11.709   0.994  1.00  0.00    -0.205 F 
ENDBRANCH  10  11
ENDBRANCH   1   5
BRANCH   2  19
HETATM   19  C   UNL     1      40.398 -14.658   1.830  1.00  0.00     0.173 A 
HETATM   20  S   UNL     1      40.265 -13.743   3.264  1.00  0.00    -0.061 SA
HETATM   21  C   UNL     1      41.370 -14.795   4.033  1.00  0.00     0.085 A 
HETATM   22  C   UNL     1      41.752 -15.793   3.157  1.00  0.00     0.076 A 
HETATM   23  N   UNL     1      41.173 -15.715   1.896  1.00  0.00    -0.223 NA
BRANCH  22  24
HETATM   24  C   UNL     1      42.716 -16.836   3.491  1.00  0.00    -0.004 A 
HETATM   25  C   UNL     1      42.759 -18.048   2.788  1.00  0.00     0.050 A 
HETATM   26  C   UNL     1      43.677 -19.041   3.164  1.00  0.00     0.103 A 
HETATM   27  C   UNL     1      44.556 -18.838   4.233  1.00  0.00     0.036 A 
HETATM   28  C   UNL     1      44.523 -17.627   4.923  1.00  0.00     0.003 A 
HETATM   29  C   UNL     1      43.612 -16.634   4.551  1.00  0.00     0.014 A 
BRANCH  26  30
HETATM   30  N   UNL     1      43.708 -20.312   2.428  1.00  0.00    -0.116 N 
HETATM   31  O   UNL     1      43.471 -20.280   1.212  1.00  0.00    -0.532 OA
HETATM   32  O   UNL     1      43.965 -21.342   3.068  1.00  0.00    -0.532 OA
ENDBRANCH  26  30
ENDBRANCH  22  24
ENDBRANCH   2  19
TORSDOF 5
ENDMDL
MODEL 2
REMARK VINA RESULT:      -8.9      1.855      2.236
REMARK  5 active torsions:
REMARK  status: ('A' for Active; 'I' for Inactive)
REMARK    1  A    between atoms: C_5  and  C_6 
REMARK    2  A    between atoms: C_14  and  C_15 
REMARK       I    between atoms: C_15  and  N_16 
REMARK    3  A    between atoms: N_16  and  C_17 
REMARK    4  A    between atoms: C_20  and  C_21 
REMARK    5  A    between atoms: C_23  and  N_24 
ROOT
HETATM    1  C   UNL     1      40.005 -13.804   0.036  1.00  0.00     0.262 C 
HETATM    2  N   UNL     1      41.349 -14.057   0.194  1.00  0.00    -0.301 N 
HETATM    3  O   UNL     1      39.217 -13.655   0.963  1.00  0.00    -0.267 OA
HETATM    4  H   UNL     1      41.995 -13.862  -0.554  1.00  0.00     0.171 HD
ENDROOT
BRANCH   1   5
HETATM    5  C   UNL     1      39.548 -13.651  -1.340  1.00  0.00     0.095 A 
HETATM    6  C   UNL     1      39.038 -14.588  -2.223  1.00  0.00     0.093 A 
HETATM    7  C   UNL     1      38.732 -16.032  -2.182  1.00  0.00     0.080 C 
HETATM    8  O   UNL     1      38.731 -13.980  -3.399  1.00  0.00    -0.217 OA
HETATM    9  N   UNL     1      38.999 -12.635  -3.317  1.00  0.00    -0.127 NA
HETATM   10  C   UNL     1      39.474 -12.425  -2.081  1.00  0.00     0.117 A 
BRANCH  10  11
HETATM   11  C   UNL     1      39.832 -11.083  -1.646  1.00  0.00     0.056 A 
HETATM   12  C   UNL     1      38.894 -10.191  -1.111  1.00  0.00     0.049 A 
HETATM   13 CL   UNL     1      37.226 -10.609  -0.913  1.00  0.00    -0.083 Cl
HETATM   14  C   UNL     1      39.283  -8.896  -0.739  1.00  0.00     0.025 A 
HETATM   15  C   UNL     1      40.604  -8.480  -0.907  1.00  0.00     0.005 A 
HETATM   16  C   UNL     1      41.542  -9.360  -1.438  1.00  0.00     0.043 A 
HETATM   17  C   UNL     1      41.155 -10.650  -1.795  1.00  0.00     0.130 A 
HETATM   18  F   UNL     1      42.085 -11.475  -2.302  1.00  0.00    -0.205 F 
ENDBRANCH  10  11
ENDBRANCH   1   5
BRANCH   2  19
HETATM   19  C   UNL     1      41.966 -14.395   1.374  1.00  0.00     0.173 A 
HETATM   20  S   UNL     1      42.324 -13.245   2.581  1.00  0.00    -0.061 SA
HETATM   21  C   UNL     1      42.948 -14.489   3.574  1.00  0.00     0.085 A 
HETATM   22  C   UNL     1      42.821 -15.706   2.934  1.00  0.00     0.076 A 
HETATM   23  N   UNL     1      42.239 -15.644   1.674  1.00  0.00    -0.223 NA
BRANCH  22  24
HETATM   24  C   UNL     1      43.290 -16.967   3.497  1.00  0.00    -0.004 A 
HETATM   25  C   UNL     1      43.329 -18.143   2.734  1.00  0.00     0.050 A 
HETATM   26  C   UNL     1      43.751 -19.345   3.322  1.00  0.00     0.103 A 
HETATM   27  C   UNL     1      44.140 -19.387   4.666  1.00  0.00     0.036 A 
HETATM   28  C   UNL     1      44.114 -18.216   5.422  1.00  0.00     0.003 A 
HETATM   29  C   UNL     1      43.696 -17.016   4.839  1.00  0.00     0.014 A 
BRANCH  26  30
HETATM   30  N   UNL     1      43.779 -20.573   2.518  1.00  0.00    -0.116 N 
HETATM   31  O   UNL     1      44.112 -21.625   3.084  1.00  0.00    -0.532 OA
HETATM   32  O   UNL     1      43.472 -20.485   1.321  1.00  0.00    -0.532 OA
ENDBRANCH  26  30
ENDBRANCH  22  24
ENDBRANCH   2  19
TORSDOF 5
ENDMDL
MODEL 3
REMARK VINA RESULT:      -8.8      6.468      8.270
REMARK  5 active torsions:
REMARK  status: ('A' for Active; 'I' for Inactive)
REMARK    1  A    between atoms: C_5  and  C_6 
REMARK    2  A    between atoms: C_14  and  C_15 
REMARK       I    between atoms: C_15  and  N_16 
REMARK    3  A    between atoms: N_16  and  C_17 
REMARK    4  A    between atoms: C_20  and  C_21 
REMARK    5  A    between atoms: C_23  and  N_24 
ROOT
HETATM    1  C   UNL     1      43.845 -11.196   7.508  1.00  0.00     0.262 C 
HETATM    2  N   UNL     1      43.336 -11.283   6.232  1.00  0.00    -0.301 N 
HETATM    3  O   UNL     1      43.931 -12.141   8.283  1.00  0.00    -0.267 OA
HETATM    4  H   UNL     1      43.568 -10.586   5.542  1.00  0.00     0.171 HD
ENDROOT
BRANCH   1   5
HETATM    5  C   UNL     1      44.359  -9.887   7.895  1.00  0.00     0.095 A 
HETATM    6  C   UNL     1      45.656  -9.403   7.906  1.00  0.00     0.093 A 
HETATM    7  C   UNL     1      46.990  -9.927   7.550  1.00  0.00     0.080 C 
HETATM    8  O   UNL     1      45.652  -8.113   8.333  1.00  0.00    -0.217 OA
HETATM    9  N   UNL     1      44.365  -7.704   8.585  1.00  0.00    -0.127 NA
HETATM   10  C   UNL     1      43.581  -8.756   8.310  1.00  0.00     0.117 A 
BRANCH  10  11
HETATM   11  C   UNL     1      42.135  -8.652   8.442  1.00  0.00     0.056 A 
HETATM   12  C   UNL     1      41.452  -9.085   9.586  1.00  0.00     0.049 A 
HETATM   13 CL   UNL     1      42.268  -9.775  10.947  1.00  0.00    -0.083 Cl
HETATM   14  C   UNL     1      40.054  -8.996   9.650  1.00  0.00     0.025 A 
HETATM   15  C   UNL     1      39.329  -8.485   8.573  1.00  0.00     0.005 A 
HETATM   16  C   UNL     1      40.000  -8.053   7.433  1.00  0.00     0.043 A 
HETATM   17  C   UNL     1      41.390  -8.131   7.378  1.00  0.00     0.130 A 
HETATM   18  F   UNL     1      42.007  -7.704   6.264  1.00  0.00    -0.205 F 
ENDBRANCH  10  11
ENDBRANCH   1   5
BRANCH   2  19
HETATM   19  C   UNL     1      42.656 -12.358   5.713  1.00  0.00     0.173 A 
HETATM   20  S   UNL     1      40.955 -12.400   5.607  1.00  0.00    -0.061 SA
HETATM   21  C   UNL     1      41.043 -13.932   4.854  1.00  0.00     0.085 A 
HETATM   22  C   UNL     1      42.365 -14.304   4.707  1.00  0.00     0.076 A 
HETATM   23  N   UNL     1      43.287 -13.383   5.190  1.00  0.00    -0.223 NA
BRANCH  22  24
HETATM   24  C   UNL     1      42.786 -15.576   4.130  1.00  0.00    -0.004 A 
HETATM   25  C   UNL     1      43.086 -16.684   4.936  1.00  0.00     0.050 A 
HETATM   26  C   UNL     1      43.524 -17.879   4.344  1.00  0.00     0.103 A 
HETATM   27  C   UNL     1      43.663 -17.984   2.956  1.00  0.00     0.036 A 
HETATM   28  C   UNL     1      43.352 -16.887   2.154  1.00  0.00     0.003 A 
HETATM   29  C   UNL     1      42.913 -15.695   2.738  1.00  0.00     0.014 A 
BRANCH  26  30
HETATM   30  N   UNL     1      43.846 -19.032   5.196  1.00  0.00    -0.116 N 
HETATM   31  O   UNL     1      44.479 -19.967   4.685  1.00  0.00    -0.532 OA
HETATM   32  O   UNL     1      43.462 -19.003   6.374  1.00  0.00    -0.532 OA
ENDBRANCH  26  30
ENDBRANCH  22  24
ENDBRANCH   2  19
TORSDOF 5
ENDMDL
MODEL 4
REMARK VINA RESULT:      -8.6      6.358      8.959
REMARK  5 active torsions:
REMARK  status: ('A' for Active; 'I' for Inactive)
REMARK    1  A    between atoms: C_5  and  C_6 
REMARK    2  A    between atoms: C_14  and  C_15 
REMARK       I    between atoms: C_15  and  N_16 
REMARK    3  A    between atoms: N_16  and  C_17 
REMARK    4  A    between atoms: C_20  and  C_21 
REMARK    5  A    between atoms: C_23  and  N_24 
ROOT
HETATM    1  C   UNL     1      41.929 -13.218   3.647  1.00  0.00     0.262 C 
HETATM    2  N   UNL     1      41.261 -12.620   4.692  1.00  0.00    -0.301 N 
HETATM    3  O   UNL     1      43.080 -12.952   3.320  1.00  0.00    -0.267 OA
HETATM    4  H   UNL     1      40.466 -13.071   5.114  1.00  0.00     0.171 HD
ENDROOT
BRANCH   1   5
HETATM    5  C   UNL     1      41.200 -14.273   2.953  1.00  0.00     0.095 A 
HETATM    6  C   UNL     1      40.316 -14.200   1.890  1.00  0.00     0.093 A 
HETATM    7  C   UNL     1      39.765 -13.128   1.036  1.00  0.00     0.080 C 
HETATM    8  O   UNL     1      39.893 -15.451   1.568  1.00  0.00    -0.217 OA
HETATM    9  N   UNL     1      40.502 -16.377   2.380  1.00  0.00    -0.127 NA
HETATM   10  C   UNL     1      41.299 -15.683   3.203  1.00  0.00     0.117 A 
BRANCH  10  11
HETATM   11  C   UNL     1      42.125 -16.370   4.185  1.00  0.00     0.056 A 
HETATM   12  C   UNL     1      41.769 -16.459   5.537  1.00  0.00     0.049 A 
HETATM   13 CL   UNL     1      40.311 -15.765   6.159  1.00  0.00    -0.083 Cl
HETATM   14  C   UNL     1      42.617 -17.103   6.450  1.00  0.00     0.025 A 
HETATM   15  C   UNL     1      43.827 -17.652   6.023  1.00  0.00     0.005 A 
HETATM   16  C   UNL     1      44.188 -17.568   4.682  1.00  0.00     0.043 A 
HETATM   17  C   UNL     1      43.337 -16.939   3.776  1.00  0.00     0.130 A 
HETATM   18  F   UNL     1      43.714 -16.876   2.488  1.00  0.00    -0.205 F 
ENDBRANCH  10  11
ENDBRANCH   1   5
BRANCH   2  19
HETATM   19  C   UNL     1      41.682 -11.505   5.376  1.00  0.00     0.173 A 
HETATM   20  S   UNL     1      41.134  -9.936   4.992  1.00  0.00    -0.061 SA
HETATM   21  C   UNL     1      42.055  -9.303   6.285  1.00  0.00     0.085 A 
HETATM   22  C   UNL     1      42.701 -10.329   6.945  1.00  0.00     0.076 A 
HETATM   23  N   UNL     1      42.467 -11.596   6.424  1.00  0.00    -0.223 NA
BRANCH  22  24
HETATM   24  C   UNL     1      43.598 -10.124   8.078  1.00  0.00    -0.004 A 
HETATM   25  C   UNL     1      43.107  -9.924   9.376  1.00  0.00     0.050 A 
HETATM   26  C   UNL     1      44.000  -9.692  10.433  1.00  0.00     0.103 A 
HETATM   27  C   UNL     1      45.382  -9.663  10.211  1.00  0.00     0.036 A 
HETATM   28  C   UNL     1      45.871  -9.876   8.923  1.00  0.00     0.003 A 
HETATM   29  C   UNL     1      44.984 -10.108   7.867  1.00  0.00     0.014 A 
BRANCH  26  30
HETATM   30  N   UNL     1      43.477  -9.473  11.788  1.00  0.00    -0.116 N 
HETATM   31  O   UNL     1      43.554  -8.328  12.256  1.00  0.00    -0.532 OA
HETATM   32  O   UNL     1      42.994 -10.446  12.383  1.00  0.00    -0.532 OA
ENDBRANCH  26  30
ENDBRANCH  22  24
ENDBRANCH   2  19
TORSDOF 5
ENDMDL
MODEL 5
REMARK VINA RESULT:      -8.5      6.544      8.422
REMARK  5 active torsions:
REMARK  status: ('A' for Active; 'I' for Inactive)
REMARK    1  A    between atoms: C_5  and  C_6 
REMARK    2  A    between atoms: C_14  and  C_15 
REMARK       I    between atoms: C_15  and  N_16 
REMARK    3  A    between atoms: N_16  and  C_17 
REMARK    4  A    between atoms: C_20  and  C_21 
REMARK    5  A    between atoms: C_23  and  N_24 
ROOT
HETATM    1  C   UNL     1      41.597  -9.697   6.715  1.00  0.00     0.262 C 
HETATM    2  N   UNL     1      42.474 -10.418   5.937  1.00  0.00    -0.301 N 
HETATM    3  O   UNL     1      40.538 -10.136   7.150  1.00  0.00    -0.267 OA
HETATM    4  H   UNL     1      43.441 -10.143   5.869  1.00  0.00     0.171 HD
ENDROOT
BRANCH   1   5
HETATM    5  C   UNL     1      42.027  -8.350   7.069  1.00  0.00     0.095 A 
HETATM    6  C   UNL     1      41.799  -7.142   6.432  1.00  0.00     0.093 A 
HETATM    7  C   UNL     1      41.072  -6.694   5.227  1.00  0.00     0.080 C 
HETATM    8  O   UNL     1      42.386  -6.141   7.140  1.00  0.00    -0.217 OA
HETATM    9  N   UNL     1      42.986  -6.650   8.266  1.00  0.00    -0.127 NA
HETATM   10  C   UNL     1      42.763  -7.972   8.241  1.00  0.00     0.117 A 
BRANCH  10  11
HETATM   11  C   UNL     1      43.244  -8.822   9.320  1.00  0.00     0.056 A 
HETATM   12  C   UNL     1      44.576  -9.245   9.407  1.00  0.00     0.049 A 
HETATM   13 CL   UNL     1      45.772  -8.788   8.242  1.00  0.00    -0.083 Cl
HETATM   14  C   UNL     1      44.982 -10.093  10.448  1.00  0.00     0.025 A 
HETATM   15  C   UNL     1      44.061 -10.532  11.400  1.00  0.00     0.005 A 
HETATM   16  C   UNL     1      42.735 -10.116  11.321  1.00  0.00     0.043 A 
HETATM   17  C   UNL     1      42.339  -9.263  10.292  1.00  0.00     0.130 A 
HETATM   18  F   UNL     1      41.053  -8.879  10.246  1.00  0.00    -0.205 F 
ENDBRANCH  10  11
ENDBRANCH   1   5
BRANCH   2  19
HETATM   19  C   UNL     1      42.212 -11.634   5.352  1.00  0.00     0.173 A 
HETATM   20  S   UNL     1      40.977 -11.845   4.196  1.00  0.00    -0.061 SA
HETATM   21  C   UNL     1      41.420 -13.487   4.028  1.00  0.00     0.085 A 
HETATM   22  C   UNL     1      42.499 -13.765   4.844  1.00  0.00     0.076 A 
HETATM   23  N   UNL     1      42.959 -12.687   5.591  1.00  0.00    -0.223 NA
BRANCH  22  24
HETATM   24  C   UNL     1      43.103 -15.088   4.962  1.00  0.00    -0.004 A 
HETATM   25  C   UNL     1      43.022 -16.027   3.924  1.00  0.00     0.050 A 
HETATM   26  C   UNL     1      43.583 -17.303   4.091  1.00  0.00     0.103 A 
HETATM   27  C   UNL     1      44.230 -17.652   5.282  1.00  0.00     0.036 A 
HETATM   28  C   UNL     1      44.322 -16.713   6.309  1.00  0.00     0.003 A 
HETATM   29  C   UNL     1      43.766 -15.441   6.146  1.00  0.00     0.014 A 
BRANCH  26  30
HETATM   30  N   UNL     1      43.485 -18.284   3.002  1.00  0.00    -0.116 N 
HETATM   31  O   UNL     1      42.528 -18.183   2.221  1.00  0.00    -0.532 OA
HETATM   32  O   UNL     1      44.361 -19.158   2.933  1.00  0.00    -0.532 OA
ENDBRANCH  26  30
ENDBRANCH  22  24
ENDBRANCH   2  19
TORSDOF 5
ENDMDL
MODEL 6
REMARK VINA RESULT:      -8.3      6.313      8.115
REMARK  5 active torsions:
REMARK  status: ('A' for Active; 'I' for Inactive)
REMARK    1  A    between atoms: C_5  and  C_6 
REMARK    2  A    between atoms: C_14  and  C_15 
REMARK       I    between atoms: C_15  and  N_16 
REMARK    3  A    between atoms: N_16  and  C_17 
REMARK    4  A    between atoms: C_20  and  C_21 
REMARK    5  A    between atoms: C_23  and  N_24 
ROOT
HETATM    1  C   UNL     1      42.937 -10.709   6.803  1.00  0.00     0.262 C 
HETATM    2  N   UNL     1      42.722 -12.042   7.075  1.00  0.00    -0.301 N 
HETATM    3  O   UNL     1      42.511 -10.129   5.811  1.00  0.00    -0.267 OA
HETATM    4  H   UNL     1      42.811 -12.390   8.015  1.00  0.00     0.171 HD
ENDROOT
BRANCH   1   5
HETATM    5  C   UNL     1      43.672  -9.967   7.821  1.00  0.00     0.095 A 
HETATM    6  C   UNL     1      45.027  -9.939   8.103  1.00  0.00     0.093 A 
HETATM    7  C   UNL     1      46.243 -10.570   7.551  1.00  0.00     0.080 C 
HETATM    8  O   UNL     1      45.255  -9.086   9.136  1.00  0.00    -0.217 OA
HETATM    9  N   UNL     1      44.074  -8.511   9.541  1.00  0.00    -0.127 NA
HETATM   10  C   UNL     1      43.122  -9.021   8.748  1.00  0.00     0.117 A 
BRANCH  10  11
HETATM   11  C   UNL     1      41.737  -8.594   8.889  1.00  0.00     0.056 A 
HETATM   12  C   UNL     1      41.149  -7.656   8.032  1.00  0.00     0.049 A 
HETATM   13 CL   UNL     1      42.015  -6.925   6.723  1.00  0.00    -0.083 Cl
HETATM   14  C   UNL     1      39.821  -7.251   8.231  1.00  0.00     0.025 A 
HETATM   15  C   UNL     1      39.076  -7.772   9.290  1.00  0.00     0.005 A 
HETATM   16  C   UNL     1      39.653  -8.705  10.146  1.00  0.00     0.043 A 
HETATM   17  C   UNL     1      40.969  -9.114   9.937  1.00  0.00     0.130 A 
HETATM   18  F   UNL     1      41.495 -10.017  10.780  1.00  0.00    -0.205 F 
ENDBRANCH  10  11
ENDBRANCH   1   5
BRANCH   2  19
HETATM   19  C   UNL     1      42.203 -12.963   6.198  1.00  0.00     0.173 A 
HETATM   20  S   UNL     1      40.654 -12.795   5.505  1.00  0.00    -0.061 SA
HETATM   21  C   UNL     1      40.904 -14.228   4.609  1.00  0.00     0.085 A 
HETATM   22  C   UNL     1      42.162 -14.731   4.873  1.00  0.00     0.076 A 
HETATM   23  N   UNL     1      42.910 -13.986   5.777  1.00  0.00    -0.223 NA
BRANCH  22  24
HETATM   24  C   UNL     1      42.676 -15.968   4.293  1.00  0.00    -0.004 A 
HETATM   25  C   UNL     1      43.015 -17.068   5.093  1.00  0.00     0.050 A 
HETATM   26  C   UNL     1      43.541 -18.227   4.501  1.00  0.00     0.103 A 
HETATM   27  C   UNL     1      43.731 -18.302   3.116  1.00  0.00     0.036 A 
HETATM   28  C   UNL     1      43.381 -17.212   2.320  1.00  0.00     0.003 A 
HETATM   29  C   UNL     1      42.855 -16.057   2.905  1.00  0.00     0.014 A 
BRANCH  26  30
HETATM   30  N   UNL     1      43.903 -19.371   5.347  1.00  0.00    -0.116 N 
HETATM   31  O   UNL     1      44.638 -20.241   4.857  1.00  0.00    -0.532 OA
HETATM   32  O   UNL     1      43.449 -19.402   6.500  1.00  0.00    -0.532 OA
ENDBRANCH  26  30
ENDBRANCH  22  24
ENDBRANCH   2  19
TORSDOF 5
ENDMDL
MODEL 7
REMARK VINA RESULT:      -8.3      6.424      8.984
REMARK  5 active torsions:
REMARK  status: ('A' for Active; 'I' for Inactive)
REMARK    1  A    between atoms: C_5  and  C_6 
REMARK    2  A    between atoms: C_14  and  C_15 
REMARK       I    between atoms: C_15  and  N_16 
REMARK    3  A    between atoms: N_16  and  C_17 
REMARK    4  A    between atoms: C_20  and  C_21 
REMARK    5  A    between atoms: C_23  and  N_24 
ROOT
HETATM    1  C   UNL     1      41.720 -12.962   3.944  1.00  0.00     0.262 C 
HETATM    2  N   UNL     1      41.022 -12.280   4.915  1.00  0.00    -0.301 N 
HETATM    3  O   UNL     1      42.911 -12.799   3.706  1.00  0.00    -0.267 OA
HETATM    4  H   UNL     1      40.162 -12.653   5.283  1.00  0.00     0.171 HD
ENDROOT
BRANCH   1   5
HETATM    5  C   UNL     1      40.965 -13.978   3.220  1.00  0.00     0.095 A 
HETATM    6  C   UNL     1      40.016 -13.845   2.221  1.00  0.00     0.093 A 
HETATM    7  C   UNL     1      39.398 -12.726   1.483  1.00  0.00     0.080 C 
HETATM    8  O   UNL     1      39.592 -15.077   1.835  1.00  0.00    -0.217 OA
HETATM    9  N   UNL     1      40.264 -16.048   2.539  1.00  0.00    -0.127 NA
HETATM   10  C   UNL     1      41.100 -15.400   3.361  1.00  0.00     0.117 A 
BRANCH  10  11
HETATM   11  C   UNL     1      41.995 -16.140   4.238  1.00  0.00     0.056 A 
HETATM   12  C   UNL     1      43.093 -16.863   3.754  1.00  0.00     0.049 A 
HETATM   13 CL   UNL     1      43.487 -16.933   2.070  1.00  0.00    -0.083 Cl
HETATM   14  C   UNL     1      43.905 -17.589   4.637  1.00  0.00     0.025 A 
HETATM   15  C   UNL     1      43.622 -17.607   6.003  1.00  0.00     0.005 A 
HETATM   16  C   UNL     1      42.534 -16.892   6.492  1.00  0.00     0.043 A 
HETATM   17  C   UNL     1      41.736 -16.161   5.613  1.00  0.00     0.130 A 
HETATM   18  F   UNL     1      40.694 -15.481   6.117  1.00  0.00    -0.205 F 
ENDBRANCH  10  11
ENDBRANCH   1   5
BRANCH   2  19
HETATM   19  C   UNL     1      41.476 -11.180   5.603  1.00  0.00     0.173 A 
HETATM   20  S   UNL     1      40.995  -9.592   5.208  1.00  0.00    -0.061 SA
HETATM   21  C   UNL     1      41.922  -8.992   6.512  1.00  0.00     0.085 A 
HETATM   22  C   UNL     1      42.519 -10.040   7.183  1.00  0.00     0.076 A 
HETATM   23  N   UNL     1      42.242 -11.299   6.662  1.00  0.00    -0.223 NA
BRANCH  22  24
HETATM   24  C   UNL     1      43.407  -9.867   8.328  1.00  0.00    -0.004 A 
HETATM   25  C   UNL     1      42.906  -9.671   9.623  1.00  0.00     0.050 A 
HETATM   26  C   UNL     1      43.793  -9.471  10.692  1.00  0.00     0.103 A 
HETATM   27  C   UNL     1      45.177  -9.467  10.485  1.00  0.00     0.036 A 
HETATM   28  C   UNL     1      45.676  -9.676   9.199  1.00  0.00     0.003 A 
HETATM   29  C   UNL     1      44.796  -9.878   8.132  1.00  0.00     0.014 A 
BRANCH  26  30
HETATM   30  N   UNL     1      43.260  -9.255  12.043  1.00  0.00    -0.116 N 
HETATM   31  O   UNL     1      43.639  -8.248  12.658  1.00  0.00    -0.532 OA
HETATM   32  O   UNL     1      42.466 -10.095  12.490  1.00  0.00    -0.532 OA
ENDBRANCH  26  30
ENDBRANCH  22  24
ENDBRANCH   2  19
TORSDOF 5
ENDMDL
MODEL 8
REMARK VINA RESULT:      -8.1      4.297      9.170
REMARK  5 active torsions:
REMARK  status: ('A' for Active; 'I' for Inactive)
REMARK    1  A    between atoms: C_5  and  C_6 
REMARK    2  A    between atoms: C_14  and  C_15 
REMARK       I    between atoms: C_15  and  N_16 
REMARK    3  A    between atoms: N_16  and  C_17 
REMARK    4  A    between atoms: C_20  and  C_21 
REMARK    5  A    between atoms: C_23  and  N_24 
ROOT
HETATM    1  C   UNL     1      40.985 -13.011   3.009  1.00  0.00     0.262 C 
HETATM    2  N   UNL     1      39.988 -13.166   2.073  1.00  0.00    -0.301 N 
HETATM    3  O   UNL     1      42.074 -12.496   2.781  1.00  0.00    -0.267 OA
HETATM    4  H   UNL     1      39.033 -13.295   2.362  1.00  0.00     0.171 HD
ENDROOT
BRANCH   1   5
HETATM    5  C   UNL     1      40.655 -13.446   4.362  1.00  0.00     0.095 A 
HETATM    6  C   UNL     1      39.856 -12.850   5.323  1.00  0.00     0.093 A 
HETATM    7  C   UNL     1      39.034 -11.627   5.415  1.00  0.00     0.080 C 
HETATM    8  O   UNL     1      39.830 -13.632   6.434  1.00  0.00    -0.217 OA
HETATM    9  N   UNL     1      40.577 -14.767   6.230  1.00  0.00    -0.127 NA
HETATM   10  C   UNL     1      41.063 -14.672   4.985  1.00  0.00     0.117 A 
BRANCH  10  11
HETATM   11  C   UNL     1      41.883 -15.739   4.429  1.00  0.00     0.056 A 
HETATM   12  C   UNL     1      43.157 -16.043   4.925  1.00  0.00     0.049 A 
HETATM   13 CL   UNL     1      43.867 -15.180   6.247  1.00  0.00    -0.083 Cl
HETATM   14  C   UNL     1      43.922 -17.058   4.333  1.00  0.00     0.025 A 
HETATM   15  C   UNL     1      43.427 -17.768   3.238  1.00  0.00     0.005 A 
HETATM   16  C   UNL     1      42.162 -17.473   2.740  1.00  0.00     0.043 A 
HETATM   17  C   UNL     1      41.399 -16.472   3.339  1.00  0.00     0.130 A 
HETATM   18  F   UNL     1      40.182 -16.213   2.835  1.00  0.00    -0.205 F 
ENDBRANCH  10  11
ENDBRANCH   1   5
BRANCH   2  19
HETATM   19  C   UNL     1      40.128 -12.981   0.718  1.00  0.00     0.173 A 
HETATM   20  S   UNL     1      40.008 -14.265  -0.397  1.00  0.00    -0.061 SA
HETATM   21  C   UNL     1      40.227 -13.162  -1.684  1.00  0.00     0.085 A 
HETATM   22  C   UNL     1      40.352 -11.881  -1.185  1.00  0.00     0.076 A 
HETATM   23  N   UNL     1      40.276 -11.784   0.200  1.00  0.00    -0.223 NA
BRANCH  22  24
HETATM   24  C   UNL     1      40.586 -10.707  -2.020  1.00  0.00    -0.004 A 
HETATM   25  C   UNL     1      41.581  -9.770  -1.707  1.00  0.00     0.050 A 
HETATM   26  C   UNL     1      41.750  -8.635  -2.515  1.00  0.00     0.103 A 
HETATM   27  C   UNL     1      40.939  -8.425  -3.636  1.00  0.00     0.036 A 
HETATM   28  C   UNL     1      39.959  -9.363  -3.954  1.00  0.00     0.003 A 
HETATM   29  C   UNL     1      39.788 -10.497  -3.154  1.00  0.00     0.014 A 
BRANCH  26  30
HETATM   30  N   UNL     1      42.788  -7.653  -2.174  1.00  0.00    -0.116 N 
HETATM   31  O   UNL     1      43.499  -7.887  -1.186  1.00  0.00    -0.532 OA
HETATM   32  O   UNL     1      42.889  -6.649  -2.892  1.00  0.00    -0.532 OA
ENDBRANCH  26  30
ENDBRANCH  22  24
ENDBRANCH   2  19
TORSDOF 5
ENDMDL
MODEL 9
REMARK VINA RESULT:      -8.1      6.892      9.523
REMARK  5 active torsions:
REMARK  status: ('A' for Active; 'I' for Inactive)
REMARK    1  A    between atoms: C_5  and  C_6 
REMARK    2  A    between atoms: C_14  and  C_15 
REMARK       I    between atoms: C_15  and  N_16 
REMARK    3  A    between atoms: N_16  and  C_17 
REMARK    4  A    between atoms: C_20  and  C_21 
REMARK    5  A    between atoms: C_23  and  N_24 
ROOT
HETATM    1  C   UNL     1      41.107 -12.897   5.369  1.00  0.00     0.262 C 
HETATM    2  N   UNL     1      42.270 -12.177   5.211  1.00  0.00    -0.301 N 
HETATM    3  O   UNL     1      40.498 -13.001   6.428  1.00  0.00    -0.267 OA
HETATM    4  H   UNL     1      42.555 -11.863   4.298  1.00  0.00     0.171 HD
ENDROOT
BRANCH   1   5
HETATM    5  C   UNL     1      40.571 -13.504   4.157  1.00  0.00     0.095 A 
HETATM    6  C   UNL     1      39.669 -13.008   3.231  1.00  0.00     0.093 A 
HETATM    7  C   UNL     1      38.918 -11.750   3.046  1.00  0.00     0.080 C 
HETATM    8  O   UNL     1      39.476 -13.930   2.251  1.00  0.00    -0.217 OA
HETATM    9  N   UNL     1      40.258 -15.035   2.484  1.00  0.00    -0.127 NA
HETATM   10  C   UNL     1      40.930 -14.784   3.616  1.00  0.00     0.117 A 
BRANCH  10  11
HETATM   11  C   UNL     1      41.884 -15.751   4.138  1.00  0.00     0.056 A 
HETATM   12  C   UNL     1      43.065 -16.082   3.461  1.00  0.00     0.049 A 
HETATM   13 CL   UNL     1      43.496 -15.366   1.945  1.00  0.00    -0.083 Cl
HETATM   14  C   UNL     1      43.935 -17.046   3.989  1.00  0.00     0.025 A 
HETATM   15  C   UNL     1      43.630 -17.692   5.188  1.00  0.00     0.005 A 
HETATM   16  C   UNL     1      42.460 -17.368   5.867  1.00  0.00     0.043 A 
HETATM   17  C   UNL     1      41.603 -16.400   5.345  1.00  0.00     0.130 A 
HETATM   18  F   UNL     1      40.483 -16.109   6.026  1.00  0.00    -0.205 F 
ENDBRANCH  10  11
ENDBRANCH   1   5
BRANCH   2  19
HETATM   19  C   UNL     1      43.035 -11.661   6.229  1.00  0.00     0.173 A 
HETATM   20  S   UNL     1      44.596 -12.248   6.587  1.00  0.00    -0.061 SA
HETATM   21  C   UNL     1      44.752 -11.072   7.817  1.00  0.00     0.085 A 
HETATM   22  C   UNL     1      43.615 -10.288   7.861  1.00  0.00     0.076 A 
HETATM   23  N   UNL     1      42.639 -10.625   6.930  1.00  0.00    -0.223 NA
BRANCH  22  24
HETATM   24  C   UNL     1      43.413  -9.211   8.824  1.00  0.00    -0.004 A 
HETATM   25  C   UNL     1      43.367  -9.458  10.203  1.00  0.00     0.050 A 
HETATM   26  C   UNL     1      43.133  -8.400  11.095  1.00  0.00     0.103 A 
HETATM   27  C   UNL     1      42.948  -7.094  10.626  1.00  0.00     0.036 A 
HETATM   28  C   UNL     1      43.008  -6.846   9.256  1.00  0.00     0.003 A 
HETATM   29  C   UNL     1      43.243  -7.897   8.363  1.00  0.00     0.014 A 
BRANCH  26  30
HETATM   30  N   UNL     1      43.076  -8.670  12.538  1.00  0.00    -0.116 N 
HETATM   31  O   UNL     1      42.667  -9.783  12.899  1.00  0.00    -0.532 OA
HETATM   32  O   UNL     1      43.434  -7.768  13.307  1.00  0.00    -0.532 OA
ENDBRANCH  26  30
ENDBRANCH  22  24
ENDBRANCH   2  19
TORSDOF 5
ENDMDL
MODEL 10
REMARK VINA RESULT:      -7.9      6.243      9.631
REMARK  5 active torsions:
REMARK  status: ('A' for Active; 'I' for Inactive)
REMARK    1  A    between atoms: C_5  and  C_6 
REMARK    2  A    between atoms: C_14  and  C_15 
REMARK       I    between atoms: C_15  and  N_16 
REMARK    3  A    between atoms: N_16  and  C_17 
REMARK    4  A    between atoms: C_20  and  C_21 
REMARK    5  A    between atoms: C_23  and  N_24 
ROOT
HETATM    1  C   UNL     1      42.339 -13.123   4.092  1.00  0.00     0.262 C 
HETATM    2  N   UNL     1      42.162 -12.974   5.449  1.00  0.00    -0.301 N 
HETATM    3  O   UNL     1      43.273 -12.642   3.460  1.00  0.00    -0.267 OA
HETATM    4  H   UNL     1      41.587 -13.622   5.962  1.00  0.00     0.171 HD
ENDROOT
BRANCH   1   5
HETATM    5  C   UNL     1      41.361 -13.967   3.416  1.00  0.00     0.095 A 
HETATM    6  C   UNL     1      40.337 -13.631   2.547  1.00  0.00     0.093 A 
HETATM    7  C   UNL     1      39.818 -12.387   1.945  1.00  0.00     0.080 C 
HETATM    8  O   UNL     1      39.690 -14.760   2.155  1.00  0.00    -0.217 OA
HETATM    9  N   UNL     1      40.279 -15.863   2.724  1.00  0.00    -0.127 NA
HETATM   10  C   UNL     1      41.292 -15.400   3.469  1.00  0.00     0.117 A 
BRANCH  10  11
HETATM   11  C   UNL     1      42.156 -16.320   4.194  1.00  0.00     0.056 A 
HETATM   12  C   UNL     1      41.960 -16.629   5.545  1.00  0.00     0.049 A 
HETATM   13 CL   UNL     1      40.667 -15.948   6.473  1.00  0.00    -0.083 Cl
HETATM   14  C   UNL     1      42.841 -17.495   6.208  1.00  0.00     0.025 A 
HETATM   15  C   UNL     1      43.928 -18.050   5.530  1.00  0.00     0.005 A 
HETATM   16  C   UNL     1      44.130 -17.748   4.187  1.00  0.00     0.043 A 
HETATM   17  C   UNL     1      43.245 -16.897   3.529  1.00  0.00     0.130 A 
HETATM   18  F   UNL     1      43.467 -16.628   2.232  1.00  0.00    -0.205 F 
ENDBRANCH  10  11
ENDBRANCH   1   5
BRANCH   2  19
HETATM   19  C   UNL     1      42.856 -12.104   6.255  1.00  0.00     0.173 A 
HETATM   20  S   UNL     1      44.455 -12.407   6.765  1.00  0.00    -0.061 SA
HETATM   21  C   UNL     1      44.476 -10.903   7.576  1.00  0.00     0.085 A 
HETATM   22  C   UNL     1      43.273 -10.252   7.386  1.00  0.00     0.076 A 
HETATM   23  N   UNL     1      42.352 -10.945   6.609  1.00  0.00    -0.223 NA
BRANCH  22  24
HETATM   24  C   UNL     1      42.953  -8.956   7.976  1.00  0.00    -0.004 A 
HETATM   25  C   UNL     1      41.657  -8.425   7.921  1.00  0.00     0.050 A 
HETATM   26  C   UNL     1      41.398  -7.159   8.468  1.00  0.00     0.103 A 
HETATM   27  C   UNL     1      42.418  -6.416   9.073  1.00  0.00     0.036 A 
HETATM   28  C   UNL     1      43.703  -6.951   9.140  1.00  0.00     0.003 A 
HETATM   29  C   UNL     1      43.966  -8.213   8.599  1.00  0.00     0.014 A 
BRANCH  26  30
HETATM   30  N   UNL     1      40.039  -6.605   8.396  1.00  0.00    -0.116 N 
HETATM   31  O   UNL     1      39.899  -5.393   8.620  1.00  0.00    -0.532 OA
HETATM   32  O   UNL     1      39.114  -7.381   8.120  1.00  0.00    -0.532 OA
ENDBRANCH  26  30
ENDBRANCH  22  24
ENDBRANCH   2  19
TORSDOF 5
ENDMDL
