MODEL 1
REMARK VINA RESULT:      -7.6      0.000      0.000
REMARK  9 active torsions:
REMARK  status: ('A' for Active; 'I' for Inactive)
REMARK    1  A    between atoms: C_2  and  C_3 
REMARK    2  A    between atoms: C_7  and  C_8 
REMARK    3  A    between atoms: C_8  and  C_9 
REMARK       I    between atoms: C_9  and  N_10 
REMARK    4  A    between atoms: N_10  and  C_11 
REMARK    5  A    between atoms: C_11  and  C_12 
REMARK    6  A    between atoms: C_12  and  N_13 
REMARK    7  A    between atoms: C_21  and  C_22 
REMARK    8  A    between atoms: C_32  and  C_33 
REMARK    9  A    between atoms: C_33  and  O_34 
ROOT
HETATM    1  C   UNL     1      42.660  -8.231  10.600  1.00  0.00     0.051 C 
HETATM    2  N   UNL     1      43.945  -8.215  10.101  1.00  0.00    -0.228 NA
HETATM    3  C   UNL     1      44.240  -8.992   9.122  1.00  0.00     0.170 C 
HETATM    4  N   UNL     1      43.228  -9.842   8.312  1.00  0.00    -0.318 N 
HETATM    5  C   UNL     1      43.824 -10.498   7.369  1.00  0.00     0.011 C 
HETATM    6  C   UNL     1      41.805  -9.591   8.662  1.00  0.00     0.166 C 
HETATM    7  S   UNL     1      45.857  -9.151   8.520  1.00  0.00    -0.086 SA
HETATM    8  C   UNL     1      45.335 -10.462   7.390  1.00  0.00     0.135 C 
HETATM    9  C   UNL     1      41.669  -8.945  10.021  1.00  0.00     0.069 C 
ENDROOT
BRANCH   5  10
HETATM   10  C   UNL     1      43.084 -11.200   6.269  1.00  0.00     0.156 C 
BRANCH  10  11
HETATM   11  C   UNL     1      43.014 -12.694   6.452  1.00  0.00     0.223 C 
HETATM   12  N   UNL     1      41.749 -13.234   6.445  1.00  0.00    -0.359 N 
HETATM   13  H   UNL     1      40.990 -12.687   6.047  1.00  0.00     0.162 HD
HETATM   14  O   UNL     1      44.027 -13.356   6.636  1.00  0.00    -0.273 OA
BRANCH  12  15
HETATM   15  C   UNL     1      41.550 -14.688   6.477  1.00  0.00     0.150 C 
BRANCH  15  16
HETATM   16  C   UNL     1      41.050 -15.282   5.144  1.00  0.00     0.254 C 
BRANCH  16  17
HETATM   17  N   UNL     1      42.156 -16.057   4.434  1.00  0.00    -0.070 N 
HETATM   18  H   UNL     1      42.869 -15.353   4.206  1.00  0.00     0.279 HD
HETATM   19  C   UNL     1      42.812 -17.121   5.285  1.00  0.00     0.235 C 
HETATM   20  C   UNL     1      44.018 -17.674   4.538  1.00  0.00     0.028 C 
HETATM   21  C   UNL     1      43.626 -18.234   3.175  1.00  0.00     0.003 C 
HETATM   22  C   UNL     1      42.852 -17.209   2.354  1.00  0.00     0.028 C 
HETATM   23  C   UNL     1      41.665 -16.640   3.122  1.00  0.00     0.235 C 
ENDBRANCH  16  17
ENDBRANCH  15  16
ENDBRANCH  12  15
ENDBRANCH  10  11
ENDBRANCH   5  10
BRANCH   6  24
HETATM   24  C   UNL     1      41.151  -8.769   7.537  1.00  0.00    -0.024 A 
HETATM   25  C   UNL     1      40.020  -9.217   6.810  1.00  0.00    -0.053 A 
HETATM   26  C   UNL     1      39.245 -10.474   7.118  1.00  0.00     0.049 C 
HETATM   27  C   UNL     1      39.505  -8.408   5.779  1.00  0.00     0.008 A 
HETATM   28  C   UNL     1      40.095  -7.192   5.442  1.00  0.00     0.007 A 
HETATM   29  C   UNL     1      41.207  -6.736   6.141  1.00  0.00    -0.061 A 
HETATM   30  C   UNL     1      41.799  -5.391   5.827  1.00  0.00     0.048 C 
HETATM   31  C   UNL     1      41.708  -7.509   7.195  1.00  0.00     0.017 A 
ENDBRANCH   6  24
BRANCH   9  32
HETATM   32  C   UNL     1      40.373  -9.247  10.683  1.00  0.00     0.293 C 
HETATM   33  O   UNL     1      39.310  -8.820  10.269  1.00  0.00    -0.259 OA
BRANCH  32  34
HETATM   34  O   UNL     1      40.536 -10.199  11.626  1.00  0.00    -0.323 OA
HETATM   35  C   UNL     1      39.662 -10.098  12.754  1.00  0.00     0.213 C 
ENDBRANCH  32  34
ENDBRANCH   9  32
BRANCH   1  36
HETATM   36  C   UNL     1      42.504  -7.356  11.840  1.00  0.00     0.056 C 
HETATM   37  C   UNL     1      43.204  -7.921  13.074  1.00  0.00     0.011 C 
ENDBRANCH   1  36
TORSDOF 9
ENDMDL
MODEL 2
REMARK VINA RESULT:      -7.5      2.350      4.699
REMARK  9 active torsions:
REMARK  status: ('A' for Active; 'I' for Inactive)
REMARK    1  A    between atoms: C_2  and  C_3 
REMARK    2  A    between atoms: C_7  and  C_8 
REMARK    3  A    between atoms: C_8  and  C_9 
REMARK       I    between atoms: C_9  and  N_10 
REMARK    4  A    between atoms: N_10  and  C_11 
REMARK    5  A    between atoms: C_11  and  C_12 
REMARK    6  A    between atoms: C_12  and  N_13 
REMARK    7  A    between atoms: C_21  and  C_22 
REMARK    8  A    between atoms: C_32  and  C_33 
REMARK    9  A    between atoms: C_33  and  O_34 
ROOT
HETATM    1  C   UNL     1      39.672  -7.427   7.670  1.00  0.00     0.051 C 
HETATM    2  N   UNL     1      39.034  -8.616   7.384  1.00  0.00    -0.228 NA
HETATM    3  C   UNL     1      39.740  -9.627   7.028  1.00  0.00     0.170 C 
HETATM    4  N   UNL     1      41.288  -9.699   7.055  1.00  0.00    -0.318 N 
HETATM    5  C   UNL     1      41.705 -10.861   6.666  1.00  0.00     0.011 C 
HETATM    6  C   UNL     1      41.941  -8.517   7.677  1.00  0.00     0.166 C 
HETATM    7  S   UNL     1      39.025 -11.118   6.510  1.00  0.00    -0.086 SA
HETATM    8  C   UNL     1      40.654 -11.786   6.095  1.00  0.00     0.135 C 
HETATM    9  C   UNL     1      41.019  -7.321   7.707  1.00  0.00     0.069 C 
ENDROOT
BRANCH   5  10
HETATM   10  C   UNL     1      43.125 -11.315   6.828  1.00  0.00     0.156 C 
BRANCH  10  11
HETATM   11  C   UNL     1      43.337 -12.761   6.461  1.00  0.00     0.223 C 
HETATM   12  N   UNL     1      43.139 -13.666   7.478  1.00  0.00    -0.359 N 
HETATM   13  H   UNL     1      42.606 -13.372   8.293  1.00  0.00     0.162 HD
HETATM   14  O   UNL     1      43.702 -13.081   5.338  1.00  0.00    -0.273 OA
BRANCH  12  15
HETATM   15  C   UNL     1      43.178 -15.111   7.220  1.00  0.00     0.150 C 
BRANCH  15  16
HETATM   16  C   UNL     1      41.848 -15.692   6.699  1.00  0.00     0.254 C 
BRANCH  16  17
HETATM   17  N   UNL     1      42.042 -16.420   5.373  1.00  0.00    -0.070 N 
HETATM   18  H   UNL     1      41.505 -17.291   5.468  1.00  0.00     0.279 HD
HETATM   19  C   UNL     1      41.507 -15.674   4.171  1.00  0.00     0.235 C 
HETATM   20  C   UNL     1      41.578 -16.586   2.954  1.00  0.00     0.028 C 
HETATM   21  C   UNL     1      43.000 -17.074   2.701  1.00  0.00     0.003 C 
HETATM   22  C   UNL     1      43.597 -17.719   3.947  1.00  0.00     0.028 C 
HETATM   23  C   UNL     1      43.494 -16.810   5.165  1.00  0.00     0.235 C 
ENDBRANCH  16  17
ENDBRANCH  15  16
ENDBRANCH  12  15
ENDBRANCH  10  11
ENDBRANCH   5  10
BRANCH   6  24
HETATM   24  C   UNL     1      42.463  -8.909   9.071  1.00  0.00    -0.024 A 
HETATM   25  C   UNL     1      43.842  -8.949   9.396  1.00  0.00    -0.053 A 
HETATM   26  C   UNL     1      44.953  -8.499   8.481  1.00  0.00     0.049 C 
HETATM   27  C   UNL     1      44.228  -9.345  10.691  1.00  0.00     0.008 A 
HETATM   28  C   UNL     1      43.290  -9.722  11.649  1.00  0.00     0.007 A 
HETATM   29  C   UNL     1      41.932  -9.693  11.348  1.00  0.00    -0.061 A 
HETATM   30  C   UNL     1      40.916 -10.029  12.403  1.00  0.00     0.048 C 
HETATM   31  C   UNL     1      41.528  -9.264  10.078  1.00  0.00     0.017 A 
ENDBRANCH   6  24
BRANCH   9  32
HETATM   32  C   UNL     1      41.746  -6.024   7.696  1.00  0.00     0.293 C 
HETATM   33  O   UNL     1      41.965  -5.386   8.710  1.00  0.00    -0.259 OA
BRANCH  32  34
HETATM   34  O   UNL     1      42.287  -5.798   6.479  1.00  0.00    -0.323 OA
HETATM   35  C   UNL     1      41.601  -4.833   5.676  1.00  0.00     0.213 C 
ENDBRANCH  32  34
ENDBRANCH   9  32
BRANCH   1  36
HETATM   36  C   UNL     1      38.693  -6.289   7.946  1.00  0.00     0.056 C 
HETATM   37  C   UNL     1      37.786  -5.969   6.760  1.00  0.00     0.011 C 
ENDBRANCH   1  36
TORSDOF 9
ENDMDL
MODEL 3
REMARK VINA RESULT:      -7.5      3.038      5.206
REMARK  9 active torsions:
REMARK  status: ('A' for Active; 'I' for Inactive)
REMARK    1  A    between atoms: C_2  and  C_3 
REMARK    2  A    between atoms: C_7  and  C_8 
REMARK    3  A    between atoms: C_8  and  C_9 
REMARK       I    between atoms: C_9  and  N_10 
REMARK    4  A    between atoms: N_10  and  C_11 
REMARK    5  A    between atoms: C_11  and  C_12 
REMARK    6  A    between atoms: C_12  and  N_13 
REMARK    7  A    between atoms: C_21  and  C_22 
REMARK    8  A    between atoms: C_32  and  C_33 
REMARK    9  A    between atoms: C_33  and  O_34 
ROOT
HETATM    1  C   UNL     1      40.322  -9.696   7.232  1.00  0.00     0.051 C 
HETATM    2  N   UNL     1      39.440  -9.869   6.186  1.00  0.00    -0.228 NA
HETATM    3  C   UNL     1      39.904 -10.167   5.027  1.00  0.00     0.170 C 
HETATM    4  N   UNL     1      41.378 -10.531   4.714  1.00  0.00    -0.318 N 
HETATM    5  C   UNL     1      41.530 -10.812   3.459  1.00  0.00     0.011 C 
HETATM    6  C   UNL     1      42.243 -10.654   5.917  1.00  0.00     0.166 C 
HETATM    7  S   UNL     1      38.895 -10.263   3.622  1.00  0.00    -0.086 SA
HETATM    8  C   UNL     1      40.340 -10.535   2.569  1.00  0.00     0.135 C 
HETATM    9  C   UNL     1      41.645  -9.947   7.110  1.00  0.00     0.069 C 
ENDROOT
BRANCH   5  10
HETATM   10  C   UNL     1      42.774 -11.443   2.909  1.00  0.00     0.156 C 
BRANCH  10  11
HETATM   11  C   UNL     1      42.530 -12.782   2.261  1.00  0.00     0.223 C 
HETATM   12  N   UNL     1      43.445 -13.764   2.566  1.00  0.00    -0.359 N 
HETATM   13  H   UNL     1      44.031 -13.642   3.387  1.00  0.00     0.162 HD
HETATM   14  O   UNL     1      41.598 -12.948   1.486  1.00  0.00    -0.273 OA
BRANCH  12  15
HETATM   15  C   UNL     1      43.247 -15.145   2.111  1.00  0.00     0.150 C 
BRANCH  15  16
HETATM   16  C   UNL     1      42.649 -16.079   3.184  1.00  0.00     0.254 C 
BRANCH  16  17
HETATM   17  N   UNL     1      43.367 -17.424   3.211  1.00  0.00    -0.070 N 
HETATM   18  H   UNL     1      44.304 -17.232   2.836  1.00  0.00     0.279 HD
HETATM   19  C   UNL     1      43.533 -18.010   4.595  1.00  0.00     0.235 C 
HETATM   20  C   UNL     1      44.432 -19.236   4.506  1.00  0.00     0.028 C 
HETATM   21  C   UNL     1      43.872 -20.274   3.541  1.00  0.00     0.003 C 
HETATM   22  C   UNL     1      43.581 -19.663   2.173  1.00  0.00     0.028 C 
HETATM   23  C   UNL     1      42.706 -18.421   2.277  1.00  0.00     0.235 C 
ENDBRANCH  16  17
ENDBRANCH  15  16
ENDBRANCH  12  15
ENDBRANCH  10  11
ENDBRANCH   5  10
BRANCH   6  24
HETATM   24  C   UNL     1      42.524 -12.145   6.180  1.00  0.00    -0.024 A 
HETATM   25  C   UNL     1      43.829 -12.661   6.379  1.00  0.00    -0.053 A 
HETATM   26  C   UNL     1      45.077 -11.821   6.484  1.00  0.00     0.049 C 
HETATM   27  C   UNL     1      43.993 -14.043   6.587  1.00  0.00     0.008 A 
HETATM   28  C   UNL     1      42.907 -14.917   6.578  1.00  0.00     0.007 A 
HETATM   29  C   UNL     1      41.620 -14.431   6.381  1.00  0.00    -0.061 A 
HETATM   30  C   UNL     1      40.442 -15.360   6.444  1.00  0.00     0.048 C 
HETATM   31  C   UNL     1      41.434 -13.053   6.212  1.00  0.00     0.017 A 
ENDBRANCH   6  24
BRANCH   9  32
HETATM   32  C   UNL     1      42.667  -9.484   8.086  1.00  0.00     0.293 C 
HETATM   33  O   UNL     1      43.181 -10.230   8.900  1.00  0.00    -0.259 OA
BRANCH  32  34
HETATM   34  O   UNL     1      43.070  -8.230   7.787  1.00  0.00    -0.323 OA
HETATM   35  C   UNL     1      43.519  -7.452   8.901  1.00  0.00     0.213 C 
ENDBRANCH  32  34
ENDBRANCH   9  32
BRANCH   1  36
HETATM   36  C   UNL     1      39.633  -9.217   8.506  1.00  0.00     0.056 C 
HETATM   37  C   UNL     1      39.453  -7.701   8.565  1.00  0.00     0.011 C 
ENDBRANCH   1  36
TORSDOF 9
ENDMDL
MODEL 4
REMARK VINA RESULT:      -7.4      3.033      8.917
REMARK  9 active torsions:
REMARK  status: ('A' for Active; 'I' for Inactive)
REMARK    1  A    between atoms: C_2  and  C_3 
REMARK    2  A    between atoms: C_7  and  C_8 
REMARK    3  A    between atoms: C_8  and  C_9 
REMARK       I    between atoms: C_9  and  N_10 
REMARK    4  A    between atoms: N_10  and  C_11 
REMARK    5  A    between atoms: C_11  and  C_12 
REMARK    6  A    between atoms: C_12  and  N_13 
REMARK    7  A    between atoms: C_21  and  C_22 
REMARK    8  A    between atoms: C_32  and  C_33 
REMARK    9  A    between atoms: C_33  and  O_34 
ROOT
HETATM    1  C   UNL     1      40.746 -12.908   1.886  1.00  0.00     0.051 C 
HETATM    2  N   UNL     1      40.601 -11.538   1.955  1.00  0.00    -0.228 NA
HETATM    3  C   UNL     1      40.120 -11.020   3.026  1.00  0.00     0.170 C 
HETATM    4  N   UNL     1      39.842 -11.780   4.348  1.00  0.00    -0.318 N 
HETATM    5  C   UNL     1      39.387 -10.979   5.258  1.00  0.00     0.011 C 
HETATM    6  C   UNL     1      40.313 -13.190   4.350  1.00  0.00     0.166 C 
HETATM    7  S   UNL     1      39.765  -9.329   3.158  1.00  0.00    -0.086 SA
HETATM    8  C   UNL     1      39.042  -9.581   4.796  1.00  0.00     0.135 C 
HETATM    9  C   UNL     1      40.515 -13.713   2.947  1.00  0.00     0.069 C 
ENDROOT
BRANCH   5  10
HETATM   10  C   UNL     1      39.269 -11.366   6.702  1.00  0.00     0.156 C 
BRANCH  10  11
HETATM   11  C   UNL     1      39.551 -10.230   7.651  1.00  0.00     0.223 C 
HETATM   12  N   UNL     1      40.864 -10.094   8.040  1.00  0.00    -0.359 N 
HETATM   13  H   UNL     1      41.584 -10.543   7.481  1.00  0.00     0.162 HD
HETATM   14  O   UNL     1      38.649  -9.515   8.067  1.00  0.00    -0.273 OA
BRANCH  12  15
HETATM   15  C   UNL     1      41.295  -8.949   8.851  1.00  0.00     0.150 C 
BRANCH  15  16
HETATM   16  C   UNL     1      42.504  -9.246   9.763  1.00  0.00     0.254 C 
BRANCH  16  17
HETATM   17  N   UNL     1      42.222  -8.840  11.206  1.00  0.00    -0.070 N 
HETATM   18  H   UNL     1      41.665  -7.980  11.136  1.00  0.00     0.279 HD
HETATM   19  C   UNL     1      41.415  -9.852  11.988  1.00  0.00     0.235 C 
HETATM   20  C   UNL     1      41.033  -9.245  13.331  1.00  0.00     0.028 C 
HETATM   21  C   UNL     1      42.263  -8.806  14.119  1.00  0.00     0.003 C 
HETATM   22  C   UNL     1      43.152  -7.882  13.293  1.00  0.00     0.028 C 
HETATM   23  C   UNL     1      43.503  -8.487  11.939  1.00  0.00     0.235 C 
ENDBRANCH  16  17
ENDBRANCH  15  16
ENDBRANCH  12  15
ENDBRANCH  10  11
ENDBRANCH   5  10
BRANCH   6  24
HETATM   24  C   UNL     1      41.580 -13.294   5.219  1.00  0.00    -0.024 A 
HETATM   25  C   UNL     1      41.733 -14.254   6.249  1.00  0.00    -0.053 A 
HETATM   26  C   UNL     1      40.753 -15.363   6.541  1.00  0.00     0.049 C 
HETATM   27  C   UNL     1      42.917 -14.257   7.010  1.00  0.00     0.008 A 
HETATM   28  C   UNL     1      43.928 -13.324   6.792  1.00  0.00     0.007 A 
HETATM   29  C   UNL     1      43.795 -12.371   5.788  1.00  0.00    -0.061 A 
HETATM   30  C   UNL     1      44.914 -11.410   5.504  1.00  0.00     0.048 C 
HETATM   31  C   UNL     1      42.641 -12.378   4.995  1.00  0.00     0.017 A 
ENDBRANCH   6  24
BRANCH   9  32
HETATM   32  C   UNL     1      40.351 -15.187   2.844  1.00  0.00     0.293 C 
HETATM   33  O   UNL     1      39.354 -15.705   2.374  1.00  0.00    -0.259 OA
BRANCH  32  34
HETATM   34  O   UNL     1      41.514 -15.811   3.130  1.00  0.00    -0.323 OA
HETATM   35  C   UNL     1      41.816 -16.944   2.309  1.00  0.00     0.213 C 
ENDBRANCH  32  34
ENDBRANCH   9  32
BRANCH   1  36
HETATM   36  C   UNL     1      41.201 -13.379   0.508  1.00  0.00     0.056 C 
HETATM   37  C   UNL     1      40.934 -12.362  -0.600  1.00  0.00     0.011 C 
ENDBRANCH   1  36
TORSDOF 9
ENDMDL
MODEL 5
REMARK VINA RESULT:      -7.3      1.878      2.298
REMARK  9 active torsions:
REMARK  status: ('A' for Active; 'I' for Inactive)
REMARK    1  A    between atoms: C_2  and  C_3 
REMARK    2  A    between atoms: C_7  and  C_8 
REMARK    3  A    between atoms: C_8  and  C_9 
REMARK       I    between atoms: C_9  and  N_10 
REMARK    4  A    between atoms: N_10  and  C_11 
REMARK    5  A    between atoms: C_11  and  C_12 
REMARK    6  A    between atoms: C_12  and  N_13 
REMARK    7  A    between atoms: C_21  and  C_22 
REMARK    8  A    between atoms: C_32  and  C_33 
REMARK    9  A    between atoms: C_33  and  O_34 
ROOT
HETATM    1  C   UNL     1      42.453  -9.103  12.233  1.00  0.00     0.051 C 
HETATM    2  N   UNL     1      43.719  -9.279  11.714  1.00  0.00    -0.228 NA
HETATM    3  C   UNL     1      43.845  -9.537  10.463  1.00  0.00     0.170 C 
HETATM    4  N   UNL     1      42.702  -9.498   9.416  1.00  0.00    -0.318 N 
HETATM    5  C   UNL     1      43.148  -9.776   8.232  1.00  0.00     0.011 C 
HETATM    6  C   UNL     1      41.410  -8.988   9.944  1.00  0.00     0.166 C 
HETATM    7  S   UNL     1      45.376  -9.917   9.745  1.00  0.00    -0.086 SA
HETATM    8  C   UNL     1      44.578 -10.262   8.160  1.00  0.00     0.135 C 
HETATM    9  C   UNL     1      41.350  -9.072  11.451  1.00  0.00     0.069 C 
ENDROOT
BRANCH   5  10
HETATM   10  C   UNL     1      42.340  -9.568   6.986  1.00  0.00     0.156 C 
BRANCH  10  11
HETATM   11  C   UNL     1      42.419 -10.723   6.022  1.00  0.00     0.223 C 
HETATM   12  N   UNL     1      41.767 -11.870   6.413  1.00  0.00    -0.359 N 
HETATM   13  H   UNL     1      41.060 -11.801   7.141  1.00  0.00     0.162 HD
HETATM   14  O   UNL     1      43.064 -10.637   4.985  1.00  0.00    -0.273 OA
BRANCH  12  15
HETATM   15  C   UNL     1      41.652 -13.018   5.507  1.00  0.00     0.150 C 
BRANCH  15  16
HETATM   16  C   UNL     1      42.713 -14.113   5.745  1.00  0.00     0.254 C 
BRANCH  16  17
HETATM   17  N   UNL     1      43.078 -14.823   4.446  1.00  0.00    -0.070 N 
HETATM   18  H   UNL     1      44.093 -14.970   4.500  1.00  0.00     0.279 HD
HETATM   19  C   UNL     1      42.424 -16.176   4.273  1.00  0.00     0.235 C 
HETATM   20  C   UNL     1      43.021 -16.860   3.051  1.00  0.00     0.028 C 
HETATM   21  C   UNL     1      42.853 -16.012   1.796  1.00  0.00     0.003 C 
HETATM   22  C   UNL     1      43.397 -14.602   1.999  1.00  0.00     0.028 C 
HETATM   23  C   UNL     1      42.815 -13.939   3.241  1.00  0.00     0.235 C 
ENDBRANCH  16  17
ENDBRANCH  15  16
ENDBRANCH  12  15
ENDBRANCH  10  11
ENDBRANCH   5  10
BRANCH   6  24
HETATM   24  C   UNL     1      41.180  -7.561   9.412  1.00  0.00    -0.024 A 
HETATM   25  C   UNL     1      40.246  -7.259   8.391  1.00  0.00    -0.053 A 
HETATM   26  C   UNL     1      39.280  -8.251   7.791  1.00  0.00     0.049 C 
HETATM   27  C   UNL     1      40.122  -5.929   7.949  1.00  0.00     0.008 A 
HETATM   28  C   UNL     1      40.913  -4.909   8.474  1.00  0.00     0.007 A 
HETATM   29  C   UNL     1      41.839  -5.185   9.474  1.00  0.00    -0.061 A 
HETATM   30  C   UNL     1      42.641  -4.075  10.091  1.00  0.00     0.048 C 
HETATM   31  C   UNL     1      41.947  -6.496   9.953  1.00  0.00     0.017 A 
ENDBRANCH   6  24
BRANCH   9  32
HETATM   32  C   UNL     1      39.964  -9.202  11.974  1.00  0.00     0.293 C 
HETATM   33  O   UNL     1      39.316  -8.245  12.358  1.00  0.00    -0.259 OA
BRANCH  32  34
HETATM   34  O   UNL     1      39.492 -10.448  11.752  1.00  0.00    -0.323 OA
HETATM   35  C   UNL     1      39.129 -11.181  12.926  1.00  0.00     0.213 C 
ENDBRANCH  32  34
ENDBRANCH   9  32
BRANCH   1  36
HETATM   36  C   UNL     1      42.461  -8.938  13.749  1.00  0.00     0.056 C 
HETATM   37  C   UNL     1      42.836  -7.531  14.205  1.00  0.00     0.011 C 
ENDBRANCH   1  36
TORSDOF 9
ENDMDL
MODEL 6
REMARK VINA RESULT:      -7.0      6.745      9.296
REMARK  9 active torsions:
REMARK  status: ('A' for Active; 'I' for Inactive)
REMARK    1  A    between atoms: C_2  and  C_3 
REMARK    2  A    between atoms: C_7  and  C_8 
REMARK    3  A    between atoms: C_8  and  C_9 
REMARK       I    between atoms: C_9  and  N_10 
REMARK    4  A    between atoms: N_10  and  C_11 
REMARK    5  A    between atoms: C_11  and  C_12 
REMARK    6  A    between atoms: C_12  and  N_13 
REMARK    7  A    between atoms: C_21  and  C_22 
REMARK    8  A    between atoms: C_32  and  C_33 
REMARK    9  A    between atoms: C_33  and  O_34 
ROOT
HETATM    1  C   UNL     1      40.567  -9.969  -2.828  1.00  0.00     0.051 C 
HETATM    2  N   UNL     1      39.959 -11.142  -3.223  1.00  0.00    -0.228 NA
HETATM    3  C   UNL     1      39.934 -12.133  -2.407  1.00  0.00     0.170 C 
HETATM    4  N   UNL     1      40.377 -12.087  -0.922  1.00  0.00    -0.318 N 
HETATM    5  C   UNL     1      40.206 -13.236  -0.351  1.00  0.00     0.011 C 
HETATM    6  C   UNL     1      40.723 -10.727  -0.432  1.00  0.00     0.166 C 
HETATM    7  S   UNL     1      39.324 -13.690  -2.859  1.00  0.00    -0.086 SA
HETATM    8  C   UNL     1      39.826 -14.380  -1.265  1.00  0.00     0.135 C 
HETATM    9  C   UNL     1      41.031  -9.785  -1.572  1.00  0.00     0.069 C 
ENDROOT
BRANCH   5  10
HETATM   10  C   UNL     1      40.300 -13.433   1.132  1.00  0.00     0.156 C 
BRANCH  10  11
HETATM   11  C   UNL     1      41.650 -13.928   1.586  1.00  0.00     0.223 C 
HETATM   12  N   UNL     1      41.821 -15.293   1.556  1.00  0.00    -0.359 N 
HETATM   13  H   UNL     1      41.187 -15.850   0.990  1.00  0.00     0.162 HD
HETATM   14  O   UNL     1      42.505 -13.151   1.989  1.00  0.00    -0.273 OA
BRANCH  12  15
HETATM   15  C   UNL     1      43.130 -15.894   1.841  1.00  0.00     0.150 C 
BRANCH  15  16
HETATM   16  C   UNL     1      43.301 -16.362   3.301  1.00  0.00     0.254 C 
BRANCH  16  17
HETATM   17  N   UNL     1      43.224 -17.881   3.410  1.00  0.00    -0.070 N 
HETATM   18  H   UNL     1      42.320 -18.070   3.859  1.00  0.00     0.279 HD
HETATM   19  C   UNL     1      43.238 -18.599   2.078  1.00  0.00     0.235 C 
HETATM   20  C   UNL     1      42.954 -20.076   2.312  1.00  0.00     0.028 C 
HETATM   21  C   UNL     1      43.963 -20.696   3.273  1.00  0.00     0.003 C 
HETATM   22  C   UNL     1      44.049 -19.906   4.575  1.00  0.00     0.028 C 
HETATM   23  C   UNL     1      44.304 -18.424   4.327  1.00  0.00     0.235 C 
ENDBRANCH  16  17
ENDBRANCH  15  16
ENDBRANCH  12  15
ENDBRANCH  10  11
ENDBRANCH   5  10
BRANCH   6  24
HETATM   24  C   UNL     1      39.591 -10.219   0.479  1.00  0.00    -0.024 A 
HETATM   25  C   UNL     1      39.789  -9.881   1.841  1.00  0.00    -0.053 A 
HETATM   26  C   UNL     1      41.130  -9.849   2.531  1.00  0.00     0.049 C 
HETATM   27  C   UNL     1      38.688  -9.450   2.605  1.00  0.00     0.008 A 
HETATM   28  C   UNL     1      37.408  -9.373   2.062  1.00  0.00     0.007 A 
HETATM   29  C   UNL     1      37.192  -9.705   0.729  1.00  0.00    -0.061 A 
HETATM   30  C   UNL     1      35.826  -9.554   0.123  1.00  0.00     0.048 C 
HETATM   31  C   UNL     1      38.283 -10.098  -0.057  1.00  0.00     0.017 A 
ENDBRANCH   6  24
BRANCH   9  32
HETATM   32  C   UNL     1      41.960  -8.688  -1.188  1.00  0.00     0.293 C 
HETATM   33  O   UNL     1      43.170  -8.822  -1.192  1.00  0.00    -0.259 OA
BRANCH  32  34
HETATM   34  O   UNL     1      41.287  -7.524  -1.062  1.00  0.00    -0.323 OA
HETATM   35  C   UNL     1      41.595  -6.765   0.111  1.00  0.00     0.213 C 
ENDBRANCH  32  34
ENDBRANCH   9  32
BRANCH   1  36
HETATM   36  C   UNL     1      40.633  -8.938  -3.950  1.00  0.00     0.056 C 
HETATM   37  C   UNL     1      39.401  -8.038  -4.021  1.00  0.00     0.011 C 
ENDBRANCH   1  36
TORSDOF 9
ENDMDL
MODEL 7
REMARK VINA RESULT:      -6.8     20.282     22.853
REMARK  9 active torsions:
REMARK  status: ('A' for Active; 'I' for Inactive)
REMARK    1  A    between atoms: C_2  and  C_3 
REMARK    2  A    between atoms: C_7  and  C_8 
REMARK    3  A    between atoms: C_8  and  C_9 
REMARK       I    between atoms: C_9  and  N_10 
REMARK    4  A    between atoms: N_10  and  C_11 
REMARK    5  A    between atoms: C_11  and  C_12 
REMARK    6  A    between atoms: C_12  and  N_13 
REMARK    7  A    between atoms: C_21  and  C_22 
REMARK    8  A    between atoms: C_32  and  C_33 
REMARK    9  A    between atoms: C_33  and  O_34 
ROOT
HETATM    1  C   UNL     1      44.284 -30.511  -2.668  1.00  0.00     0.051 C 
HETATM    2  N   UNL     1      44.029 -31.859  -2.802  1.00  0.00    -0.228 NA
HETATM    3  C   UNL     1      44.519 -32.672  -1.938  1.00  0.00     0.170 C 
HETATM    4  N   UNL     1      45.241 -32.264  -0.627  1.00  0.00    -0.318 N 
HETATM    5  C   UNL     1      45.594 -33.308   0.052  1.00  0.00     0.011 C 
HETATM    6  C   UNL     1      45.213 -30.804  -0.347  1.00  0.00     0.166 C 
HETATM    7  S   UNL     1      44.379 -34.391  -2.099  1.00  0.00    -0.086 SA
HETATM    8  C   UNL     1      45.424 -34.640  -0.644  1.00  0.00     0.135 C 
HETATM    9  C   UNL     1      44.927 -30.001  -1.594  1.00  0.00     0.069 C 
ENDROOT
BRANCH   5  10
HETATM   10  C   UNL     1      46.077 -33.234   1.469  1.00  0.00     0.156 C 
BRANCH  10  11
HETATM   11  C   UNL     1      47.574 -33.097   1.585  1.00  0.00     0.223 C 
HETATM   12  N   UNL     1      48.050 -31.807   1.623  1.00  0.00    -0.359 N 
HETATM   13  H   UNL     1      47.404 -31.058   1.856  1.00  0.00     0.162 HD
HETATM   14  O   UNL     1      48.300 -34.082   1.601  1.00  0.00    -0.273 OA
BRANCH  12  15
HETATM   15  C   UNL     1      49.471 -31.535   1.871  1.00  0.00     0.150 C 
BRANCH  15  16
HETATM   16  C   UNL     1      50.029 -30.338   1.073  1.00  0.00     0.254 C 
BRANCH  16  17
HETATM   17  N   UNL     1      51.072 -30.788   0.055  1.00  0.00    -0.070 N 
HETATM   18  H   UNL     1      51.890 -30.194   0.234  1.00  0.00     0.279 HD
HETATM   19  C   UNL     1      51.504 -32.229   0.207  1.00  0.00     0.235 C 
HETATM   20  C   UNL     1      52.680 -32.491  -0.724  1.00  0.00     0.028 C 
HETATM   21  C   UNL     1      52.327 -32.180  -2.174  1.00  0.00     0.003 C 
HETATM   22  C   UNL     1      51.770 -30.768  -2.321  1.00  0.00     0.028 C 
HETATM   23  C   UNL     1      50.615 -30.507  -1.364  1.00  0.00     0.235 C 
ENDBRANCH  16  17
ENDBRANCH  15  16
ENDBRANCH  12  15
ENDBRANCH  10  11
ENDBRANCH   5  10
BRANCH   6  24
HETATM   24  C   UNL     1      44.210 -30.531   0.788  1.00  0.00    -0.024 A 
HETATM   25  C   UNL     1      44.527 -29.749   1.927  1.00  0.00    -0.053 A 
HETATM   26  C   UNL     1      45.816 -28.989   2.114  1.00  0.00     0.049 C 
HETATM   27  C   UNL     1      43.553 -29.575   2.928  1.00  0.00     0.008 A 
HETATM   28  C   UNL     1      42.298 -30.173   2.839  1.00  0.00     0.007 A 
HETATM   29  C   UNL     1      41.970 -30.947   1.731  1.00  0.00    -0.061 A 
HETATM   30  C   UNL     1      40.593 -31.533   1.599  1.00  0.00     0.048 C 
HETATM   31  C   UNL     1      42.912 -31.099   0.707  1.00  0.00     0.017 A 
ENDBRANCH   6  24
BRANCH   9  32
HETATM   32  C   UNL     1      45.497 -28.629  -1.548  1.00  0.00     0.293 C 
HETATM   33  O   UNL     1      44.889 -27.681  -1.082  1.00  0.00    -0.259 OA
BRANCH  32  34
HETATM   34  O   UNL     1      46.806 -28.651  -1.877  1.00  0.00    -0.323 OA
HETATM   35  C   UNL     1      47.683 -28.021  -0.938  1.00  0.00     0.213 C 
ENDBRANCH  32  34
ENDBRANCH   9  32
BRANCH   1  36
HETATM   36  C   UNL     1      43.750 -29.695  -3.841  1.00  0.00     0.056 C 
HETATM   37  C   UNL     1      44.299 -30.144  -5.193  1.00  0.00     0.011 C 
ENDBRANCH   1  36
TORSDOF 9
ENDMDL
MODEL 8
REMARK VINA RESULT:      -6.8      6.453      9.346
REMARK  9 active torsions:
REMARK  status: ('A' for Active; 'I' for Inactive)
REMARK    1  A    between atoms: C_2  and  C_3 
REMARK    2  A    between atoms: C_7  and  C_8 
REMARK    3  A    between atoms: C_8  and  C_9 
REMARK       I    between atoms: C_9  and  N_10 
REMARK    4  A    between atoms: N_10  and  C_11 
REMARK    5  A    between atoms: C_11  and  C_12 
REMARK    6  A    between atoms: C_12  and  N_13 
REMARK    7  A    between atoms: C_21  and  C_22 
REMARK    8  A    between atoms: C_32  and  C_33 
REMARK    9  A    between atoms: C_33  and  O_34 
ROOT
HETATM    1  C   UNL     1      40.708 -10.025  -2.808  1.00  0.00     0.051 C 
HETATM    2  N   UNL     1      40.134 -11.211  -3.216  1.00  0.00    -0.228 NA
HETATM    3  C   UNL     1      39.917 -12.127  -2.343  1.00  0.00     0.170 C 
HETATM    4  N   UNL     1      40.078 -11.965  -0.810  1.00  0.00    -0.318 N 
HETATM    5  C   UNL     1      39.755 -13.056  -0.192  1.00  0.00     0.011 C 
HETATM    6  C   UNL     1      40.385 -10.578  -0.374  1.00  0.00     0.166 C 
HETATM    7  S   UNL     1      39.335 -13.700  -2.777  1.00  0.00    -0.086 SA
HETATM    8  C   UNL     1      39.503 -14.263  -1.067  1.00  0.00     0.135 C 
HETATM    9  C   UNL     1      40.939  -9.746  -1.506  1.00  0.00     0.069 C 
ENDROOT
BRANCH   5  10
HETATM   10  C   UNL     1      39.564 -13.127   1.293  1.00  0.00     0.156 C 
BRANCH  10  11
HETATM   11  C   UNL     1      40.472 -14.124   1.966  1.00  0.00     0.223 C 
HETATM   12  N   UNL     1      39.857 -14.994   2.837  1.00  0.00    -0.359 N 
HETATM   13  H   UNL     1      38.850 -15.116   2.770  1.00  0.00     0.162 HD
HETATM   14  O   UNL     1      41.680 -14.114   1.767  1.00  0.00    -0.273 OA
BRANCH  12  15
HETATM   15  C   UNL     1      40.603 -16.098   3.452  1.00  0.00     0.150 C 
BRANCH  15  16
HETATM   16  C   UNL     1      40.586 -16.085   4.995  1.00  0.00     0.254 C 
BRANCH  16  17
HETATM   17  N   UNL     1      41.925 -16.538   5.568  1.00  0.00    -0.070 N 
HETATM   18  H   UNL     1      41.816 -17.546   5.732  1.00  0.00     0.279 HD
HETATM   19  C   UNL     1      43.097 -16.345   4.631  1.00  0.00     0.235 C 
HETATM   20  C   UNL     1      44.323 -17.015   5.234  1.00  0.00     0.028 C 
HETATM   21  C   UNL     1      44.641 -16.464   6.619  1.00  0.00     0.003 C 
HETATM   22  C   UNL     1      43.426 -16.538   7.538  1.00  0.00     0.028 C 
HETATM   23  C   UNL     1      42.196 -15.891   6.913  1.00  0.00     0.235 C 
ENDBRANCH  16  17
ENDBRANCH  15  16
ENDBRANCH  12  15
ENDBRANCH  10  11
ENDBRANCH   5  10
BRANCH   6  24
HETATM   24  C   UNL     1      39.126  -9.964   0.265  1.00  0.00    -0.024 A 
HETATM   25  C   UNL     1      39.086  -9.502   1.604  1.00  0.00    -0.053 A 
HETATM   26  C   UNL     1      40.280  -9.433   2.524  1.00  0.00     0.049 C 
HETATM   27  C   UNL     1      37.882  -8.979   2.111  1.00  0.00     0.008 A 
HETATM   28  C   UNL     1      36.725  -8.928   1.337  1.00  0.00     0.007 A 
HETATM   29  C   UNL     1      36.742  -9.379   0.022  1.00  0.00    -0.061 A 
HETATM   30  C   UNL     1      35.516  -9.257  -0.837  1.00  0.00     0.048 C 
HETATM   31  C   UNL     1      37.942  -9.866  -0.512  1.00  0.00     0.017 A 
ENDBRANCH   6  24
BRANCH   9  32
HETATM   32  C   UNL     1      41.826  -8.645  -1.043  1.00  0.00     0.293 C 
HETATM   33  O   UNL     1      43.030  -8.780  -0.922  1.00  0.00    -0.259 OA
BRANCH  32  34
HETATM   34  O   UNL     1      41.146  -7.480  -1.000  1.00  0.00    -0.323 OA
HETATM   35  C   UNL     1      41.270  -6.745   0.222  1.00  0.00     0.213 C 
ENDBRANCH  32  34
ENDBRANCH   9  32
BRANCH   1  36
HETATM   36  C   UNL     1      41.025  -9.096  -3.976  1.00  0.00     0.056 C 
HETATM   37  C   UNL     1      39.838  -8.868  -4.910  1.00  0.00     0.011 C 
ENDBRANCH   1  36
TORSDOF 9
ENDMDL
MODEL 9
REMARK VINA RESULT:      -6.8     20.250     23.091
REMARK  9 active torsions:
REMARK  status: ('A' for Active; 'I' for Inactive)
REMARK    1  A    between atoms: C_2  and  C_3 
REMARK    2  A    between atoms: C_7  and  C_8 
REMARK    3  A    between atoms: C_8  and  C_9 
REMARK       I    between atoms: C_9  and  N_10 
REMARK    4  A    between atoms: N_10  and  C_11 
REMARK    5  A    between atoms: C_11  and  C_12 
REMARK    6  A    between atoms: C_12  and  N_13 
REMARK    7  A    between atoms: C_21  and  C_22 
REMARK    8  A    between atoms: C_32  and  C_33 
REMARK    9  A    between atoms: C_33  and  O_34 
ROOT
HETATM    1  C   UNL     1      48.367 -32.715  -2.262  1.00  0.00     0.051 C 
HETATM    2  N   UNL     1      47.384 -33.682  -2.271  1.00  0.00    -0.228 NA
HETATM    3  C   UNL     1      46.306 -33.475  -1.606  1.00  0.00     0.170 C 
HETATM    4  N   UNL     1      45.914 -32.142  -0.919  1.00  0.00    -0.318 N 
HETATM    5  C   UNL     1      44.753 -32.236  -0.353  1.00  0.00     0.011 C 
HETATM    6  C   UNL     1      46.843 -31.017  -1.200  1.00  0.00     0.166 C 
HETATM    7  S   UNL     1      45.076 -34.684  -1.437  1.00  0.00    -0.086 SA
HETATM    8  C   UNL     1      44.149 -33.621  -0.306  1.00  0.00     0.135 C 
HETATM    9  C   UNL     1      48.188 -31.509  -1.679  1.00  0.00     0.069 C 
ENDROOT
BRANCH   5  10
HETATM   10  C   UNL     1      44.000 -31.047   0.166  1.00  0.00     0.156 C 
BRANCH  10  11
HETATM   11  C   UNL     1      44.545 -30.514   1.466  1.00  0.00     0.223 C 
HETATM   12  N   UNL     1      44.795 -31.457   2.436  1.00  0.00    -0.359 N 
HETATM   13  H   UNL     1      44.880 -32.431   2.155  1.00  0.00     0.162 HD
HETATM   14  O   UNL     1      44.706 -29.313   1.638  1.00  0.00    -0.273 OA
BRANCH  12  15
HETATM   15  C   UNL     1      45.453 -31.088   3.694  1.00  0.00     0.150 C 
BRANCH  15  16
HETATM   16  C   UNL     1      46.664 -31.974   4.053  1.00  0.00     0.254 C 
BRANCH  16  17
HETATM   17  N   UNL     1      47.943 -31.150   4.160  1.00  0.00    -0.070 N 
HETATM   18  H   UNL     1      48.058 -30.968   5.164  1.00  0.00     0.279 HD
HETATM   19  C   UNL     1      49.184 -31.866   3.674  1.00  0.00     0.235 C 
HETATM   20  C   UNL     1      50.404 -31.024   4.019  1.00  0.00     0.028 C 
HETATM   21  C   UNL     1      50.312 -29.627   3.415  1.00  0.00     0.003 C 
HETATM   22  C   UNL     1      49.004 -28.941   3.796  1.00  0.00     0.028 C 
HETATM   23  C   UNL     1      47.791 -29.805   3.474  1.00  0.00     0.235 C 
ENDBRANCH  16  17
ENDBRANCH  15  16
ENDBRANCH  12  15
ENDBRANCH  10  11
ENDBRANCH   5  10
BRANCH   6  24
HETATM   24  C   UNL     1      46.170 -30.047  -2.189  1.00  0.00    -0.024 A 
HETATM   25  C   UNL     1      46.100 -28.649  -1.973  1.00  0.00    -0.053 A 
HETATM   26  C   UNL     1      46.773 -27.921  -0.836  1.00  0.00     0.049 C 
HETATM   27  C   UNL     1      45.442 -27.843  -2.921  1.00  0.00     0.008 A 
HETATM   28  C   UNL     1      44.836 -28.390  -4.050  1.00  0.00     0.007 A 
HETATM   29  C   UNL     1      44.890 -29.761  -4.278  1.00  0.00    -0.061 A 
HETATM   30  C   UNL     1      44.301 -30.343  -5.531  1.00  0.00     0.048 C 
HETATM   31  C   UNL     1      45.576 -30.573  -3.366  1.00  0.00     0.017 A 
ENDBRANCH   6  24
BRANCH   9  32
HETATM   32  C   UNL     1      49.298 -30.570  -1.367  1.00  0.00     0.293 C 
HETATM   33  O   UNL     1      49.644 -29.686  -2.131  1.00  0.00    -0.259 OA
BRANCH  32  34
HETATM   34  O   UNL     1      49.682 -30.706  -0.080  1.00  0.00    -0.323 OA
HETATM   35  C   UNL     1      51.034 -31.134   0.111  1.00  0.00     0.213 C 
ENDBRANCH  32  34
ENDBRANCH   9  32
BRANCH   1  36
HETATM   36  C   UNL     1      49.635 -33.163  -2.983  1.00  0.00     0.056 C 
HETATM   37  C   UNL     1      49.584 -32.945  -4.493  1.00  0.00     0.011 C 
ENDBRANCH   1  36
TORSDOF 9
ENDMDL
MODEL 10
REMARK VINA RESULT:      -6.7     20.637     23.649
REMARK  9 active torsions:
REMARK  status: ('A' for Active; 'I' for Inactive)
REMARK    1  A    between atoms: C_2  and  C_3 
REMARK    2  A    between atoms: C_7  and  C_8 
REMARK    3  A    between atoms: C_8  and  C_9 
REMARK       I    between atoms: C_9  and  N_10 
REMARK    4  A    between atoms: N_10  and  C_11 
REMARK    5  A    between atoms: C_11  and  C_12 
REMARK    6  A    between atoms: C_12  and  N_13 
REMARK    7  A    between atoms: C_21  and  C_22 
REMARK    8  A    between atoms: C_32  and  C_33 
REMARK    9  A    between atoms: C_33  and  O_34 
ROOT
HETATM    1  C   UNL     1      45.299 -33.164  -4.322  1.00  0.00     0.051 C 
HETATM    2  N   UNL     1      46.242 -33.838  -3.575  1.00  0.00    -0.228 NA
HETATM    3  C   UNL     1      47.221 -33.177  -3.072  1.00  0.00     0.170 C 
HETATM    4  N   UNL     1      47.361 -31.634  -3.075  1.00  0.00    -0.318 N 
HETATM    5  C   UNL     1      48.442 -31.265  -2.466  1.00  0.00     0.011 C 
HETATM    6  C   UNL     1      46.171 -30.916  -3.600  1.00  0.00     0.166 C 
HETATM    7  S   UNL     1      48.531 -33.951  -2.243  1.00  0.00    -0.086 SA
HETATM    8  C   UNL     1      49.398 -32.373  -2.084  1.00  0.00     0.135 C 
HETATM    9  C   UNL     1      45.302 -31.818  -4.444  1.00  0.00     0.069 C 
ENDROOT
BRANCH   5  10
HETATM   10  C   UNL     1      48.720 -29.841  -2.085  1.00  0.00     0.156 C 
BRANCH  10  11
HETATM   11  C   UNL     1      48.981 -29.656  -0.612  1.00  0.00     0.223 C 
HETATM   12  N   UNL     1      47.867 -29.425   0.163  1.00  0.00    -0.359 N 
HETATM   13  H   UNL     1      46.955 -29.670  -0.214  1.00  0.00     0.162 HD
HETATM   14  O   UNL     1      50.120 -29.671  -0.165  1.00  0.00    -0.273 OA
BRANCH  12  15
HETATM   15  C   UNL     1      47.967 -29.364   1.626  1.00  0.00     0.150 C 
BRANCH  15  16
HETATM   16  C   UNL     1      47.590 -30.680   2.336  1.00  0.00     0.254 C 
BRANCH  16  17
HETATM   17  N   UNL     1      48.467 -30.920   3.561  1.00  0.00    -0.070 N 
HETATM   18  H   UNL     1      48.084 -30.303   4.287  1.00  0.00     0.279 HD
HETATM   19  C   UNL     1      48.421 -32.338   4.088  1.00  0.00     0.235 C 
HETATM   20  C   UNL     1      49.168 -32.395   5.413  1.00  0.00     0.028 C 
HETATM   21  C   UNL     1      50.608 -31.916   5.267  1.00  0.00     0.003 C 
HETATM   22  C   UNL     1      50.674 -30.537   4.620  1.00  0.00     0.028 C 
HETATM   23  C   UNL     1      49.898 -30.483   3.310  1.00  0.00     0.235 C 
ENDBRANCH  16  17
ENDBRANCH  15  16
ENDBRANCH  12  15
ENDBRANCH  10  11
ENDBRANCH   5  10
BRANCH   6  24
HETATM   24  C   UNL     1      45.411 -30.278  -2.423  1.00  0.00    -0.024 A 
HETATM   25  C   UNL     1      45.171 -28.885  -2.323  1.00  0.00    -0.053 A 
HETATM   26  C   UNL     1      45.505 -27.877  -3.393  1.00  0.00     0.049 C 
HETATM   27  C   UNL     1      44.489 -28.388  -1.195  1.00  0.00     0.008 A 
HETATM   28  C   UNL     1      44.069 -29.229  -0.167  1.00  0.00     0.007 A 
HETATM   29  C   UNL     1      44.299 -30.598  -0.245  1.00  0.00    -0.061 A 
HETATM   30  C   UNL     1      43.783 -31.514   0.828  1.00  0.00     0.048 C 
HETATM   31  C   UNL     1      44.940 -31.114  -1.377  1.00  0.00     0.017 A 
ENDBRANCH   6  24
BRANCH   9  32
HETATM   32  C   UNL     1      44.519 -31.080  -5.471  1.00  0.00     0.293 C 
HETATM   33  O   UNL     1      43.623 -30.307  -5.183  1.00  0.00    -0.259 OA
BRANCH  32  34
HETATM   34  O   UNL     1      45.084 -31.227  -6.689  1.00  0.00    -0.323 OA
HETATM   35  C   UNL     1      44.165 -31.304  -7.783  1.00  0.00     0.213 C 
ENDBRANCH  32  34
ENDBRANCH   9  32
BRANCH   1  36
HETATM   36  C   UNL     1      44.278 -34.102  -4.960  1.00  0.00     0.056 C 
HETATM   37  C   UNL     1      43.230 -34.618  -3.977  1.00  0.00     0.011 C 
ENDBRANCH   1  36
TORSDOF 9
ENDMDL
