MODEL 1
REMARK VINA RESULT:      -9.0      0.000      0.000
REMARK  6 active torsions:
REMARK  status: ('A' for Active; 'I' for Inactive)
REMARK    1  A    between atoms: O_2  and  C_3 
REMARK    2  A    between atoms: C_6  and  C_7 
REMARK    3  A    between atoms: C_7  and  N_8 
REMARK       I    between atoms: N_8  and  C_9 
REMARK    4  A    between atoms: C_9  and  C_10 
REMARK    5  A    between atoms: C_13  and  C_14 
REMARK    6  A    between atoms: C_19  and  C_20 
ROOT
HETATM    1  C   UNL     1      42.457 -14.374   5.727  1.00  0.00     0.096 A 
HETATM    2  C   UNL     1      42.602 -15.139   4.584  1.00  0.00     0.138 A 
HETATM    3  N   UNL     1      41.323 -15.396   4.140  1.00  0.00    -0.240 N 
HETATM    4  C   UNL     1      41.012 -16.139   2.931  1.00  0.00     0.221 C 
HETATM    5  C   UNL     1      42.228 -16.117   1.986  1.00  0.00     0.066 C 
HETATM    6  C   UNL     1      43.523 -16.474   2.729  1.00  0.00     0.118 C 
HETATM    7  N   UNL     1      43.676 -15.595   3.888  1.00  0.00    -0.365 N 
HETATM    8  N   UNL     1      40.366 -14.925   4.952  1.00  0.00    -0.181 NA
HETATM    9  C   UNL     1      41.053 -14.264   5.886  1.00  0.00     0.160 A 
HETATM   10  H   UNL     1      44.618 -15.247   4.050  1.00  0.00     0.161 HD
ENDROOT
BRANCH   1  11
HETATM   11  C   UNL     1      43.457 -13.779   6.592  1.00  0.00     0.257 C 
HETATM   12  N   UNL     1      44.085 -12.668   6.079  1.00  0.00    -0.352 N 
HETATM   13  H   UNL     1      43.980 -12.483   5.091  1.00  0.00     0.163 HD
HETATM   14  O   UNL     1      43.731 -14.258   7.687  1.00  0.00    -0.267 OA
BRANCH  12  15
HETATM   15  C   UNL     1      45.086 -11.941   6.823  1.00  0.00     0.161 C 
BRANCH  15  16
HETATM   16  C   UNL     1      44.485 -10.903   7.734  1.00  0.00    -0.040 A 
HETATM   17  C   UNL     1      43.194 -10.409   7.502  1.00  0.00     0.011 A 
HETATM   18  C   UNL     1      42.606  -9.497   8.386  1.00  0.00     0.037 A 
HETATM   19  C   UNL     1      43.300  -9.068   9.517  1.00  0.00     0.068 A 
HETATM   20  C   UNL     1      44.597  -9.534   9.738  1.00  0.00     0.037 A 
HETATM   21  C   UNL     1      45.184 -10.450   8.861  1.00  0.00     0.011 A 
BRANCH  19  22
HETATM   22  O   UNL     1      42.828  -8.199  10.461  1.00  0.00    -0.356 OA
HETATM   23  C   UNL     1      43.298  -8.395  11.790  1.00  0.00     0.210 C 
ENDBRANCH  19  22
ENDBRANCH  15  16
ENDBRANCH  12  15
ENDBRANCH   1  11
BRANCH   4  24
HETATM   24  C   UNL     1      39.806 -15.582   2.202  1.00  0.00     0.409 C 
HETATM   25  F   UNL     1      39.844 -14.234   2.090  1.00  0.00    -0.169 F 
HETATM   26  F   UNL     1      39.784 -16.069   0.929  1.00  0.00    -0.169 F 
HETATM   27  F   UNL     1      38.628 -15.934   2.752  1.00  0.00    -0.169 F 
ENDBRANCH   4  24
BRANCH   6  28
HETATM   28  C   UNL     1      43.606 -17.952   3.087  1.00  0.00    -0.035 A 
HETATM   29  C   UNL     1      44.091 -18.321   4.356  1.00  0.00     0.009 A 
HETATM   30  C   UNL     1      44.213 -19.664   4.720  1.00  0.00     0.001 A 
HETATM   31  C   UNL     1      43.845 -20.664   3.825  1.00  0.00     0.000 A 
HETATM   32  C   UNL     1      43.353 -20.322   2.569  1.00  0.00     0.001 A 
HETATM   33  C   UNL     1      43.235 -18.979   2.203  1.00  0.00     0.009 A 
ENDBRANCH   6  28
TORSDOF 6
ENDMDL
MODEL 2
REMARK VINA RESULT:      -8.4      4.861      8.036
REMARK  6 active torsions:
REMARK  status: ('A' for Active; 'I' for Inactive)
REMARK    1  A    between atoms: O_2  and  C_3 
REMARK    2  A    between atoms: C_6  and  C_7 
REMARK    3  A    between atoms: C_7  and  N_8 
REMARK       I    between atoms: N_8  and  C_9 
REMARK    4  A    between atoms: C_9  and  C_10 
REMARK    5  A    between atoms: C_13  and  C_14 
REMARK    6  A    between atoms: C_19  and  C_20 
ROOT
HETATM    1  C   UNL     1      41.541 -11.666   2.953  1.00  0.00     0.096 A 
HETATM    2  C   UNL     1      41.620 -12.813   3.723  1.00  0.00     0.138 A 
HETATM    3  N   UNL     1      42.725 -12.649   4.528  1.00  0.00    -0.240 N 
HETATM    4  C   UNL     1      43.153 -13.609   5.531  1.00  0.00     0.221 C 
HETATM    5  C   UNL     1      41.965 -14.505   5.928  1.00  0.00     0.066 C 
HETATM    6  C   UNL     1      41.233 -15.045   4.692  1.00  0.00     0.118 C 
HETATM    7  N   UNL     1      40.852 -13.929   3.827  1.00  0.00    -0.365 N 
HETATM    8  N   UNL     1      43.410 -11.524   4.281  1.00  0.00    -0.181 NA
HETATM    9  C   UNL     1      42.666 -10.906   3.362  1.00  0.00     0.160 A 
HETATM   10  H   UNL     1      39.921 -13.990   3.421  1.00  0.00     0.161 HD
ENDROOT
BRANCH   1  11
HETATM   11  C   UNL     1      40.562 -11.264   1.963  1.00  0.00     0.257 C 
HETATM   12  N   UNL     1      41.023 -10.389   1.008  1.00  0.00    -0.352 N 
HETATM   13  H   UNL     1      41.904  -9.925   1.181  1.00  0.00     0.163 HD
HETATM   14  O   UNL     1      39.403 -11.664   2.003  1.00  0.00    -0.267 OA
BRANCH  12  15
HETATM   15  C   UNL     1      40.183  -9.913  -0.064  1.00  0.00     0.161 C 
BRANCH  15  16
HETATM   16  C   UNL     1      39.910 -10.975  -1.098  1.00  0.00    -0.040 A 
HETATM   17  C   UNL     1      40.962 -11.704  -1.668  1.00  0.00     0.011 A 
HETATM   18  C   UNL     1      40.708 -12.740  -2.575  1.00  0.00     0.037 A 
HETATM   19  C   UNL     1      39.396 -13.061  -2.923  1.00  0.00     0.068 A 
HETATM   20  C   UNL     1      38.345 -12.319  -2.381  1.00  0.00     0.037 A 
HETATM   21  C   UNL     1      38.596 -11.290  -1.469  1.00  0.00     0.011 A 
BRANCH  19  22
HETATM   22  O   UNL     1      39.019 -14.058  -3.780  1.00  0.00    -0.356 OA
HETATM   23  C   UNL     1      38.364 -15.178  -3.195  1.00  0.00     0.210 C 
ENDBRANCH  19  22
ENDBRANCH  15  16
ENDBRANCH  12  15
ENDBRANCH   1  11
BRANCH   4  24
HETATM   24  C   UNL     1      43.708 -12.941   6.773  1.00  0.00     0.409 C 
HETATM   25  F   UNL     1      43.071 -11.785   7.069  1.00  0.00    -0.169 F 
HETATM   26  F   UNL     1      43.525 -13.762   7.847  1.00  0.00    -0.169 F 
HETATM   27  F   UNL     1      45.033 -12.699   6.716  1.00  0.00    -0.169 F 
ENDBRANCH   4  24
BRANCH   6  28
HETATM   28  C   UNL     1      42.028 -16.121   3.962  1.00  0.00    -0.035 A 
HETATM   29  C   UNL     1      42.844 -16.991   4.709  1.00  0.00     0.009 A 
HETATM   30  C   UNL     1      43.614 -17.973   4.082  1.00  0.00     0.001 A 
HETATM   31  C   UNL     1      43.577 -18.110   2.698  1.00  0.00     0.000 A 
HETATM   32  C   UNL     1      42.768 -17.267   1.941  1.00  0.00     0.001 A 
HETATM   33  C   UNL     1      42.001 -16.281   2.567  1.00  0.00     0.009 A 
ENDBRANCH   6  28
TORSDOF 6
ENDMDL
MODEL 3
REMARK VINA RESULT:      -8.4      5.918      7.622
REMARK  6 active torsions:
REMARK  status: ('A' for Active; 'I' for Inactive)
REMARK    1  A    between atoms: O_2  and  C_3 
REMARK    2  A    between atoms: C_6  and  C_7 
REMARK    3  A    between atoms: C_7  and  N_8 
REMARK       I    between atoms: N_8  and  C_9 
REMARK    4  A    between atoms: C_9  and  C_10 
REMARK    5  A    between atoms: C_13  and  C_14 
REMARK    6  A    between atoms: C_19  and  C_20 
ROOT
HETATM    1  C   UNL     1      41.885 -12.512   2.395  1.00  0.00     0.096 A 
HETATM    2  C   UNL     1      41.903 -13.550   3.308  1.00  0.00     0.138 A 
HETATM    3  N   UNL     1      42.874 -13.223   4.230  1.00  0.00    -0.240 N 
HETATM    4  C   UNL     1      43.196 -14.027   5.396  1.00  0.00     0.221 C 
HETATM    5  C   UNL     1      42.005 -14.941   5.738  1.00  0.00     0.066 C 
HETATM    6  C   UNL     1      41.482 -15.670   4.492  1.00  0.00     0.118 C 
HETATM    7  N   UNL     1      41.179 -14.692   3.448  1.00  0.00    -0.365 N 
HETATM    8  N   UNL     1      43.536 -12.095   3.937  1.00  0.00    -0.181 NA
HETATM    9  C   UNL     1      42.904 -11.640   2.854  1.00  0.00     0.160 A 
HETATM   10  H   UNL     1      40.320 -14.859   2.930  1.00  0.00     0.161 HD
ENDROOT
BRANCH   1  11
HETATM   11  C   UNL     1      41.040 -12.294   1.238  1.00  0.00     0.257 C 
HETATM   12  N   UNL     1      41.306 -11.145   0.530  1.00  0.00    -0.352 N 
HETATM   13  H   UNL     1      41.888 -10.445   0.970  1.00  0.00     0.163 HD
HETATM   14  O   UNL     1      40.141 -13.073   0.938  1.00  0.00    -0.267 OA
BRANCH  12  15
HETATM   15  C   UNL     1      40.574 -10.793  -0.663  1.00  0.00     0.161 C 
BRANCH  15  16
HETATM   16  C   UNL     1      41.224  -9.670  -1.428  1.00  0.00    -0.040 A 
HETATM   17  C   UNL     1      42.280  -8.941  -0.866  1.00  0.00     0.011 A 
HETATM   18  C   UNL     1      42.933  -7.943  -1.600  1.00  0.00     0.037 A 
HETATM   19  C   UNL     1      42.540  -7.664  -2.909  1.00  0.00     0.068 A 
HETATM   20  C   UNL     1      41.469  -8.367  -3.464  1.00  0.00     0.037 A 
HETATM   21  C   UNL     1      40.821  -9.368  -2.736  1.00  0.00     0.011 A 
BRANCH  19  22
HETATM   22  O   UNL     1      43.108  -6.731  -3.731  1.00  0.00    -0.356 OA
HETATM   23  C   UNL     1      42.291  -5.621  -4.085  1.00  0.00     0.210 C 
ENDBRANCH  19  22
ENDBRANCH  15  16
ENDBRANCH  12  15
ENDBRANCH   1  11
BRANCH   4  24
HETATM   24  C   UNL     1      43.537 -13.182   6.607  1.00  0.00     0.409 C 
HETATM   25  F   UNL     1      42.700 -12.129   6.756  1.00  0.00    -0.169 F 
HETATM   26  F   UNL     1      43.404 -13.936   7.735  1.00  0.00    -0.169 F 
HETATM   27  F   UNL     1      44.805 -12.727   6.614  1.00  0.00    -0.169 F 
ENDBRANCH   4  24
BRANCH   6  28
HETATM   28  C   UNL     1      42.421 -16.774   4.021  1.00  0.00    -0.035 A 
HETATM   29  C   UNL     1      42.341 -17.214   2.685  1.00  0.00     0.009 A 
HETATM   30  C   UNL     1      43.159 -18.243   2.215  1.00  0.00     0.001 A 
HETATM   31  C   UNL     1      44.079 -18.846   3.066  1.00  0.00     0.000 A 
HETATM   32  C   UNL     1      44.183 -18.419   4.387  1.00  0.00     0.001 A 
HETATM   33  C   UNL     1      43.362 -17.393   4.860  1.00  0.00     0.009 A 
ENDBRANCH   6  28
TORSDOF 6
ENDMDL
MODEL 4
REMARK VINA RESULT:      -8.4      2.094      2.740
REMARK  6 active torsions:
REMARK  status: ('A' for Active; 'I' for Inactive)
REMARK    1  A    between atoms: O_2  and  C_3 
REMARK    2  A    between atoms: C_6  and  C_7 
REMARK    3  A    between atoms: C_7  and  N_8 
REMARK       I    between atoms: N_8  and  C_9 
REMARK    4  A    between atoms: C_9  and  C_10 
REMARK    5  A    between atoms: C_13  and  C_14 
REMARK    6  A    between atoms: C_19  and  C_20 
ROOT
HETATM    1  C   UNL     1      42.642 -11.814   5.626  1.00  0.00     0.096 A 
HETATM    2  C   UNL     1      42.599 -12.534   4.445  1.00  0.00     0.138 A 
HETATM    3  N   UNL     1      41.262 -12.693   4.151  1.00  0.00    -0.240 N 
HETATM    4  C   UNL     1      40.762 -13.360   2.962  1.00  0.00     0.221 C 
HETATM    5  C   UNL     1      41.856 -13.369   1.877  1.00  0.00     0.066 C 
HETATM    6  C   UNL     1      43.203 -13.837   2.443  1.00  0.00     0.118 C 
HETATM    7  N   UNL     1      43.551 -13.023   3.607  1.00  0.00    -0.365 N 
HETATM    8  N   UNL     1      40.442 -12.202   5.090  1.00  0.00    -0.181 NA
HETATM    9  C   UNL     1      41.277 -11.627   5.958  1.00  0.00     0.160 A 
HETATM   10  H   UNL     1      44.526 -12.740   3.667  1.00  0.00     0.161 HD
ENDROOT
BRANCH   1  11
HETATM   11  C   UNL     1      43.774 -11.320   6.384  1.00  0.00     0.257 C 
HETATM   12  N   UNL     1      43.556 -11.183   7.735  1.00  0.00    -0.352 N 
HETATM   13  H   UNL     1      42.600 -11.212   8.063  1.00  0.00     0.163 HD
HETATM   14  O   UNL     1      44.834 -11.026   5.843  1.00  0.00    -0.267 OA
BRANCH  12  15
HETATM   15  C   UNL     1      44.589 -10.729   8.636  1.00  0.00     0.161 C 
BRANCH  15  16
HETATM   16  C   UNL     1      44.032  -9.983   9.820  1.00  0.00    -0.040 A 
HETATM   17  C   UNL     1      43.797  -8.603   9.750  1.00  0.00     0.011 A 
HETATM   18  C   UNL     1      43.214  -7.919  10.824  1.00  0.00     0.037 A 
HETATM   19  C   UNL     1      42.858  -8.608  11.983  1.00  0.00     0.068 A 
HETATM   20  C   UNL     1      43.117  -9.977  12.070  1.00  0.00     0.037 A 
HETATM   21  C   UNL     1      43.691 -10.663  10.997  1.00  0.00     0.011 A 
BRANCH  19  22
HETATM   22  O   UNL     1      42.268  -8.059  13.088  1.00  0.00    -0.356 OA
HETATM   23  C   UNL     1      42.088  -8.924  14.203  1.00  0.00     0.210 C 
ENDBRANCH  19  22
ENDBRANCH  15  16
ENDBRANCH  12  15
ENDBRANCH   1  11
BRANCH   4  24
HETATM   24  C   UNL     1      39.517 -12.700   2.406  1.00  0.00     0.409 C 
HETATM   25  F   UNL     1      39.591 -11.349   2.432  1.00  0.00    -0.169 F 
HETATM   26  F   UNL     1      39.368 -13.047   1.097  1.00  0.00    -0.169 F 
HETATM   27  F   UNL     1      38.379 -13.079   3.020  1.00  0.00    -0.169 F 
ENDBRANCH   4  24
BRANCH   6  28
HETATM   28  C   UNL     1      43.231 -15.333   2.733  1.00  0.00    -0.035 A 
HETATM   29  C   UNL     1      43.317 -15.767   4.070  1.00  0.00     0.009 A 
HETATM   30  C   UNL     1      43.376 -17.127   4.383  1.00  0.00     0.001 A 
HETATM   31  C   UNL     1      43.341 -18.078   3.369  1.00  0.00     0.000 A 
HETATM   32  C   UNL     1      43.246 -17.671   2.041  1.00  0.00     0.001 A 
HETATM   33  C   UNL     1      43.191 -16.311   1.726  1.00  0.00     0.009 A 
ENDBRANCH   6  28
TORSDOF 6
ENDMDL
MODEL 5
REMARK VINA RESULT:      -8.3      5.250      8.582
REMARK  6 active torsions:
REMARK  status: ('A' for Active; 'I' for Inactive)
REMARK    1  A    between atoms: O_2  and  C_3 
REMARK    2  A    between atoms: C_6  and  C_7 
REMARK    3  A    between atoms: C_7  and  N_8 
REMARK       I    between atoms: N_8  and  C_9 
REMARK    4  A    between atoms: C_9  and  C_10 
REMARK    5  A    between atoms: C_13  and  C_14 
REMARK    6  A    between atoms: C_19  and  C_20 
ROOT
HETATM    1  C   UNL     1      41.116 -13.658   1.013  1.00  0.00     0.096 A 
HETATM    2  C   UNL     1      41.205 -14.356   2.204  1.00  0.00     0.138 A 
HETATM    3  N   UNL     1      41.935 -13.555   3.055  1.00  0.00    -0.240 N 
HETATM    4  C   UNL     1      42.231 -13.889   4.437  1.00  0.00     0.221 C 
HETATM    5  C   UNL     1      41.213 -14.926   4.947  1.00  0.00     0.066 C 
HETATM    6  C   UNL     1      41.047 -16.084   3.954  1.00  0.00     0.118 C 
HETATM    7  N   UNL     1      40.715 -15.549   2.633  1.00  0.00    -0.365 N 
HETATM    8  N   UNL     1      42.391 -12.434   2.480  1.00  0.00    -0.181 NA
HETATM    9  C   UNL     1      41.853 -12.473   1.259  1.00  0.00     0.160 A 
HETATM   10  H   UNL     1      39.998 -16.059   2.124  1.00  0.00     0.161 HD
ENDROOT
BRANCH   1  11
HETATM   11  C   UNL     1      40.432 -13.990  -0.221  1.00  0.00     0.257 C 
HETATM   12  N   UNL     1      40.684 -13.142  -1.274  1.00  0.00    -0.352 N 
HETATM   13  H   UNL     1      41.124 -12.255  -1.068  1.00  0.00     0.163 HD
HETATM   14  O   UNL     1      39.668 -14.946  -0.299  1.00  0.00    -0.267 OA
BRANCH  12  15
HETATM   15  C   UNL     1      40.104 -13.347  -2.579  1.00  0.00     0.161 C 
BRANCH  15  16
HETATM   16  C   UNL     1      38.763 -12.676  -2.725  1.00  0.00    -0.040 A 
HETATM   17  C   UNL     1      38.665 -11.280  -2.784  1.00  0.00     0.011 A 
HETATM   18  C   UNL     1      37.429 -10.655  -2.990  1.00  0.00     0.037 A 
HETATM   19  C   UNL     1      36.273 -11.421  -3.142  1.00  0.00     0.068 A 
HETATM   20  C   UNL     1      36.360 -12.811  -3.055  1.00  0.00     0.037 A 
HETATM   21  C   UNL     1      37.594 -13.437  -2.856  1.00  0.00     0.011 A 
BRANCH  19  22
HETATM   22  O   UNL     1      35.016 -10.932  -3.366  1.00  0.00    -0.356 OA
HETATM   23  C   UNL     1      34.102 -11.814  -4.007  1.00  0.00     0.210 C 
ENDBRANCH  19  22
ENDBRANCH  15  16
ENDBRANCH  12  15
ENDBRANCH   1  11
BRANCH   4  24
HETATM   24  C   UNL     1      42.203 -12.677   5.346  1.00  0.00     0.409 C 
HETATM   25  F   UNL     1      41.151 -11.864   5.094  1.00  0.00    -0.169 F 
HETATM   26  F   UNL     1      42.066 -13.086   6.639  1.00  0.00    -0.169 F 
HETATM   27  F   UNL     1      43.332 -11.943   5.309  1.00  0.00    -0.169 F 
ENDBRANCH   4  24
BRANCH   6  28
HETATM   28  C   UNL     1      42.252 -17.017   3.933  1.00  0.00    -0.035 A 
HETATM   29  C   UNL     1      42.942 -17.267   5.134  1.00  0.00     0.009 A 
HETATM   30  C   UNL     1      44.070 -18.091   5.160  1.00  0.00     0.001 A 
HETATM   31  C   UNL     1      44.523 -18.688   3.988  1.00  0.00     0.000 A 
HETATM   32  C   UNL     1      43.849 -18.463   2.791  1.00  0.00     0.001 A 
HETATM   33  C   UNL     1      42.724 -17.636   2.764  1.00  0.00     0.009 A 
ENDBRANCH   6  28
TORSDOF 6
ENDMDL
MODEL 6
REMARK VINA RESULT:      -8.2      5.219      7.994
REMARK  6 active torsions:
REMARK  status: ('A' for Active; 'I' for Inactive)
REMARK    1  A    between atoms: O_2  and  C_3 
REMARK    2  A    between atoms: C_6  and  C_7 
REMARK    3  A    between atoms: C_7  and  N_8 
REMARK       I    between atoms: N_8  and  C_9 
REMARK    4  A    between atoms: C_9  and  C_10 
REMARK    5  A    between atoms: C_13  and  C_14 
REMARK    6  A    between atoms: C_19  and  C_20 
ROOT
HETATM    1  C   UNL     1      41.272 -13.011   2.043  1.00  0.00     0.096 A 
HETATM    2  C   UNL     1      41.489 -13.902   3.078  1.00  0.00     0.138 A 
HETATM    3  N   UNL     1      42.484 -13.343   3.852  1.00  0.00    -0.240 N 
HETATM    4  C   UNL     1      42.994 -13.934   5.077  1.00  0.00     0.221 C 
HETATM    5  C   UNL     1      41.954 -14.916   5.648  1.00  0.00     0.066 C 
HETATM    6  C   UNL     1      41.426 -15.866   4.565  1.00  0.00     0.118 C 
HETATM    7  N   UNL     1      40.924 -15.085   3.435  1.00  0.00    -0.365 N 
HETATM    8  N   UNL     1      42.978 -12.202   3.351  1.00  0.00    -0.181 NA
HETATM    9  C   UNL     1      42.210 -11.977   2.283  1.00  0.00     0.160 A 
HETATM   10  H   UNL     1      40.052 -15.417   3.028  1.00  0.00     0.161 HD
ENDROOT
BRANCH   1  11
HETATM   11  C   UNL     1      40.317 -13.053   0.953  1.00  0.00     0.257 C 
HETATM   12  N   UNL     1      40.788 -13.607  -0.214  1.00  0.00    -0.352 N 
HETATM   13  H   UNL     1      41.787 -13.732  -0.306  1.00  0.00     0.163 HD
HETATM   14  O   UNL     1      39.183 -12.599   1.070  1.00  0.00    -0.267 OA
BRANCH  12  15
HETATM   15  C   UNL     1      39.957 -13.749  -1.385  1.00  0.00     0.161 C 
BRANCH  15  16
HETATM   16  C   UNL     1      39.866 -12.475  -2.184  1.00  0.00    -0.040 A 
HETATM   17  C   UNL     1      38.632 -11.842  -2.382  1.00  0.00     0.011 A 
HETATM   18  C   UNL     1      38.553 -10.621  -3.064  1.00  0.00     0.037 A 
HETATM   19  C   UNL     1      39.710 -10.016  -3.554  1.00  0.00     0.068 A 
HETATM   20  C   UNL     1      40.938 -10.656  -3.385  1.00  0.00     0.037 A 
HETATM   21  C   UNL     1      41.021 -11.870  -2.699  1.00  0.00     0.011 A 
BRANCH  19  22
HETATM   22  O   UNL     1      39.765  -8.821  -4.217  1.00  0.00    -0.356 OA
HETATM   23  C   UNL     1      40.830  -7.949  -3.855  1.00  0.00     0.210 C 
ENDBRANCH  19  22
ENDBRANCH  15  16
ENDBRANCH  12  15
ENDBRANCH   1  11
BRANCH   4  24
HETATM   24  C   UNL     1      43.324 -12.894   6.128  1.00  0.00     0.409 C 
HETATM   25  F   UNL     1      42.343 -11.975   6.275  1.00  0.00    -0.169 F 
HETATM   26  F   UNL     1      43.459 -13.504   7.339  1.00  0.00    -0.169 F 
HETATM   27  F   UNL     1      44.487 -12.249   5.908  1.00  0.00    -0.169 F 
ENDBRANCH   4  24
BRANCH   6  28
HETATM   28  C   UNL     1      42.452 -16.916   4.154  1.00  0.00    -0.035 A 
HETATM   29  C   UNL     1      42.480 -17.355   2.816  1.00  0.00     0.009 A 
HETATM   30  C   UNL     1      43.381 -18.337   2.399  1.00  0.00     0.001 A 
HETATM   31  C   UNL     1      44.278 -18.891   3.307  1.00  0.00     0.000 A 
HETATM   32  C   UNL     1      44.274 -18.464   4.631  1.00  0.00     0.001 A 
HETATM   33  C   UNL     1      43.370 -17.485   5.051  1.00  0.00     0.009 A 
ENDBRANCH   6  28
TORSDOF 6
ENDMDL
MODEL 7
REMARK VINA RESULT:      -7.9      5.410      8.926
REMARK  6 active torsions:
REMARK  status: ('A' for Active; 'I' for Inactive)
REMARK    1  A    between atoms: O_2  and  C_3 
REMARK    2  A    between atoms: C_6  and  C_7 
REMARK    3  A    between atoms: C_7  and  N_8 
REMARK       I    between atoms: N_8  and  C_9 
REMARK    4  A    between atoms: C_9  and  C_10 
REMARK    5  A    between atoms: C_13  and  C_14 
REMARK    6  A    between atoms: C_19  and  C_20 
ROOT
HETATM    1  C   UNL     1      40.844 -13.159   0.967  1.00  0.00     0.096 A 
HETATM    2  C   UNL     1      40.265 -12.084   0.317  1.00  0.00     0.138 A 
HETATM    3  N   UNL     1      39.799 -12.578  -0.882  1.00  0.00    -0.240 N 
HETATM    4  C   UNL     1      39.077 -11.788  -1.864  1.00  0.00     0.221 C 
HETATM    5  C   UNL     1      38.459 -10.554  -1.181  1.00  0.00     0.066 C 
HETATM    6  C   UNL     1      39.485  -9.829  -0.299  1.00  0.00     0.118 C 
HETATM    7  N   UNL     1      40.072 -10.779   0.645  1.00  0.00    -0.365 N 
HETATM    8  N   UNL     1      40.104 -13.866  -1.089  1.00  0.00    -0.181 NA
HETATM    9  C   UNL     1      40.693 -14.230   0.052  1.00  0.00     0.160 A 
HETATM   10  H   UNL     1      40.196 -10.432   1.594  1.00  0.00     0.161 HD
ENDROOT
BRANCH   1  11
HETATM   11  C   UNL     1      41.458 -13.243   2.278  1.00  0.00     0.257 C 
HETATM   12  N   UNL     1      41.908 -14.494   2.631  1.00  0.00    -0.352 N 
HETATM   13  H   UNL     1      41.591 -15.281   2.081  1.00  0.00     0.163 HD
HETATM   14  O   UNL     1      41.540 -12.268   3.017  1.00  0.00    -0.267 OA
BRANCH  12  15
HETATM   15  C   UNL     1      42.567 -14.744   3.891  1.00  0.00     0.161 C 
BRANCH  15  16
HETATM   16  C   UNL     1      43.114 -16.144   3.987  1.00  0.00    -0.040 A 
HETATM   17  C   UNL     1      43.583 -16.646   5.208  1.00  0.00     0.011 A 
HETATM   18  C   UNL     1      44.027 -17.969   5.317  1.00  0.00     0.037 A 
HETATM   19  C   UNL     1      44.004 -18.810   4.205  1.00  0.00     0.068 A 
HETATM   20  C   UNL     1      43.564 -18.308   2.979  1.00  0.00     0.037 A 
HETATM   21  C   UNL     1      43.115 -16.989   2.870  1.00  0.00     0.011 A 
BRANCH  19  22
HETATM   22  O   UNL     1      44.391 -20.122   4.189  1.00  0.00    -0.356 OA
HETATM   23  C   UNL     1      44.050 -20.894   5.334  1.00  0.00     0.210 C 
ENDBRANCH  19  22
ENDBRANCH  15  16
ENDBRANCH  12  15
ENDBRANCH   1  11
BRANCH   4  24
HETATM   24  C   UNL     1      37.980 -12.577  -2.550  1.00  0.00     0.409 C 
HETATM   25  F   UNL     1      37.224 -13.281  -1.677  1.00  0.00    -0.169 F 
HETATM   26  F   UNL     1      37.132 -11.716  -3.180  1.00  0.00    -0.169 F 
HETATM   27  F   UNL     1      38.428 -13.417  -3.504  1.00  0.00    -0.169 F 
ENDBRANCH   4  24
BRANCH   6  28
HETATM   28  C   UNL     1      40.530  -9.075  -1.112  1.00  0.00    -0.035 A 
HETATM   29  C   UNL     1      40.111  -8.296  -2.207  1.00  0.00     0.009 A 
HETATM   30  C   UNL     1      41.034  -7.610  -3.000  1.00  0.00     0.001 A 
HETATM   31  C   UNL     1      42.392  -7.683  -2.709  1.00  0.00     0.000 A 
HETATM   32  C   UNL     1      42.828  -8.440  -1.624  1.00  0.00     0.001 A 
HETATM   33  C   UNL     1      41.906  -9.129  -0.833  1.00  0.00     0.009 A 
ENDBRANCH   6  28
TORSDOF 6
ENDMDL
MODEL 8
REMARK VINA RESULT:      -7.8     15.843     18.000
REMARK  6 active torsions:
REMARK  status: ('A' for Active; 'I' for Inactive)
REMARK    1  A    between atoms: O_2  and  C_3 
REMARK    2  A    between atoms: C_6  and  C_7 
REMARK    3  A    between atoms: C_7  and  N_8 
REMARK       I    between atoms: N_8  and  C_9 
REMARK    4  A    between atoms: C_9  and  C_10 
REMARK    5  A    between atoms: C_13  and  C_14 
REMARK    6  A    between atoms: C_19  and  C_20 
ROOT
HETATM    1  C   UNL     1      43.904 -29.797   0.936  1.00  0.00     0.096 A 
HETATM    2  C   UNL     1      45.203 -29.355   1.113  1.00  0.00     0.138 A 
HETATM    3  N   UNL     1      45.925 -29.888   0.067  1.00  0.00    -0.240 N 
HETATM    4  C   UNL     1      47.339 -29.639  -0.159  1.00  0.00     0.221 C 
HETATM    5  C   UNL     1      47.755 -28.341   0.559  1.00  0.00     0.066 C 
HETATM    6  C   UNL     1      47.250 -28.316   2.008  1.00  0.00     0.118 C 
HETATM    7  N   UNL     1      45.806 -28.547   2.024  1.00  0.00    -0.365 N 
HETATM    8  N   UNL     1      45.211 -30.702  -0.722  1.00  0.00    -0.181 NA
HETATM    9  C   UNL     1      43.976 -30.607  -0.224  1.00  0.00     0.160 A 
HETATM   10  H   UNL     1      45.277 -27.964   2.668  1.00  0.00     0.161 HD
ENDROOT
BRANCH   1  11
HETATM   11  C   UNL     1      42.706 -29.520   1.704  1.00  0.00     0.257 C 
HETATM   12  N   UNL     1      42.656 -30.116   2.942  1.00  0.00    -0.352 N 
HETATM   13  H   UNL     1      43.316 -30.857   3.135  1.00  0.00     0.163 HD
HETATM   14  O   UNL     1      41.800 -28.824   1.258  1.00  0.00    -0.267 OA
BRANCH  12  15
HETATM   15  C   UNL     1      41.544 -29.921   3.842  1.00  0.00     0.161 C 
BRANCH  15  16
HETATM   16  C   UNL     1      40.673 -31.145   3.956  1.00  0.00    -0.040 A 
HETATM   17  C   UNL     1      40.151 -31.537   5.195  1.00  0.00     0.011 A 
HETATM   18  C   UNL     1      39.284 -32.633   5.294  1.00  0.00     0.037 A 
HETATM   19  C   UNL     1      38.927 -33.349   4.152  1.00  0.00     0.068 A 
HETATM   20  C   UNL     1      39.467 -32.981   2.919  1.00  0.00     0.037 A 
HETATM   21  C   UNL     1      40.327 -31.884   2.817  1.00  0.00     0.011 A 
BRANCH  19  22
HETATM   22  O   UNL     1      38.079 -34.421   4.116  1.00  0.00    -0.356 OA
HETATM   23  C   UNL     1      36.761 -34.166   3.642  1.00  0.00     0.210 C 
ENDBRANCH  19  22
ENDBRANCH  15  16
ENDBRANCH  12  15
ENDBRANCH   1  11
BRANCH   4  24
HETATM   24  C   UNL     1      47.678 -29.523  -1.631  1.00  0.00     0.409 C 
HETATM   25  F   UNL     1      46.864 -28.664  -2.285  1.00  0.00    -0.169 F 
HETATM   26  F   UNL     1      48.941 -29.026  -1.764  1.00  0.00    -0.169 F 
HETATM   27  F   UNL     1      47.675 -30.701  -2.285  1.00  0.00    -0.169 F 
ENDBRANCH   4  24
BRANCH   6  28
HETATM   28  C   UNL     1      48.016 -29.271   2.914  1.00  0.00    -0.035 A 
HETATM   29  C   UNL     1      47.295 -30.161   3.733  1.00  0.00     0.009 A 
HETATM   30  C   UNL     1      47.951 -31.035   4.602  1.00  0.00     0.001 A 
HETATM   31  C   UNL     1      49.341 -31.043   4.663  1.00  0.00     0.000 A 
HETATM   32  C   UNL     1      50.074 -30.180   3.855  1.00  0.00     0.001 A 
HETATM   33  C   UNL     1      49.418 -29.302   2.988  1.00  0.00     0.009 A 
ENDBRANCH   6  28
TORSDOF 6
ENDMDL
MODEL 9
REMARK VINA RESULT:      -7.7     15.811     19.491
REMARK  6 active torsions:
REMARK  status: ('A' for Active; 'I' for Inactive)
REMARK    1  A    between atoms: O_2  and  C_3 
REMARK    2  A    between atoms: C_6  and  C_7 
REMARK    3  A    between atoms: C_7  and  N_8 
REMARK       I    between atoms: N_8  and  C_9 
REMARK    4  A    between atoms: C_9  and  C_10 
REMARK    5  A    between atoms: C_13  and  C_14 
REMARK    6  A    between atoms: C_19  and  C_20 
ROOT
HETATM    1  C   UNL     1      45.897 -29.239   0.523  1.00  0.00     0.096 A 
HETATM    2  C   UNL     1      47.001 -30.028   0.792  1.00  0.00     0.138 A 
HETATM    3  N   UNL     1      47.740 -29.334   1.724  1.00  0.00    -0.240 N 
HETATM    4  C   UNL     1      48.970 -29.825   2.321  1.00  0.00     0.221 C 
HETATM    5  C   UNL     1      49.028 -31.359   2.194  1.00  0.00     0.066 C 
HETATM    6  C   UNL     1      48.696 -31.817   0.768  1.00  0.00     0.118 C 
HETATM    7  N   UNL     1      47.409 -31.251   0.363  1.00  0.00    -0.365 N 
HETATM    8  N   UNL     1      47.241 -28.125   2.015  1.00  0.00    -0.181 NA
HETATM    9  C   UNL     1      46.099 -28.089   1.325  1.00  0.00     0.160 A 
HETATM   10  H   UNL     1      46.794 -31.885  -0.143  1.00  0.00     0.161 HD
ENDROOT
BRANCH   1  11
HETATM   11  C   UNL     1      44.760 -29.479  -0.345  1.00  0.00     0.257 C 
HETATM   12  N   UNL     1      45.007 -29.314  -1.688  1.00  0.00    -0.352 N 
HETATM   13  H   UNL     1      45.857 -28.837  -1.955  1.00  0.00     0.163 HD
HETATM   14  O   UNL     1      43.659 -29.780   0.103  1.00  0.00    -0.267 OA
BRANCH  12  15
HETATM   15  C   UNL     1      43.990 -29.540  -2.687  1.00  0.00     0.161 C 
BRANCH  15  16
HETATM   16  C   UNL     1      44.539 -30.185  -3.932  1.00  0.00    -0.040 A 
HETATM   17  C   UNL     1      45.765 -30.863  -3.905  1.00  0.00     0.011 A 
HETATM   18  C   UNL     1      46.245 -31.524  -5.042  1.00  0.00     0.037 A 
HETATM   19  C   UNL     1      45.503 -31.518  -6.222  1.00  0.00     0.068 A 
HETATM   20  C   UNL     1      44.294 -30.820  -6.264  1.00  0.00     0.037 A 
HETATM   21  C   UNL     1      43.810 -30.166  -5.128  1.00  0.00     0.011 A 
BRANCH  19  22
HETATM   22  O   UNL     1      45.853 -32.139  -7.389  1.00  0.00    -0.356 OA
HETATM   23  C   UNL     1      47.220 -32.513  -7.517  1.00  0.00     0.210 C 
ENDBRANCH  19  22
ENDBRANCH  15  16
ENDBRANCH  12  15
ENDBRANCH   1  11
BRANCH   4  24
HETATM   24  C   UNL     1      49.099 -29.442   3.781  1.00  0.00     0.409 C 
HETATM   25  F   UNL     1      48.091 -29.934   4.538  1.00  0.00    -0.169 F 
HETATM   26  F   UNL     1      50.248 -29.974   4.287  1.00  0.00    -0.169 F 
HETATM   27  F   UNL     1      49.184 -28.114   3.990  1.00  0.00    -0.169 F 
ENDBRANCH   4  24
BRANCH   6  28
HETATM   28  C   UNL     1      49.816 -31.517  -0.221  1.00  0.00    -0.035 A 
HETATM   29  C   UNL     1      51.066 -32.139  -0.044  1.00  0.00     0.009 A 
HETATM   30  C   UNL     1      52.132 -31.873  -0.907  1.00  0.00     0.001 A 
HETATM   31  C   UNL     1      51.967 -30.988  -1.967  1.00  0.00     0.000 A 
HETATM   32  C   UNL     1      50.735 -30.370  -2.167  1.00  0.00     0.001 A 
HETATM   33  C   UNL     1      49.670 -30.632  -1.302  1.00  0.00     0.009 A 
ENDBRANCH   6  28
TORSDOF 6
ENDMDL
MODEL 10
REMARK VINA RESULT:      -7.4     16.385     17.864
REMARK  6 active torsions:
REMARK  status: ('A' for Active; 'I' for Inactive)
REMARK    1  A    between atoms: O_2  and  C_3 
REMARK    2  A    between atoms: C_6  and  C_7 
REMARK    3  A    between atoms: C_7  and  N_8 
REMARK       I    between atoms: N_8  and  C_9 
REMARK    4  A    between atoms: C_9  and  C_10 
REMARK    5  A    between atoms: C_13  and  C_14 
REMARK    6  A    between atoms: C_19  and  C_20 
ROOT
HETATM    1  C   UNL     1      48.120 -29.553  -0.557  1.00  0.00     0.096 A 
HETATM    2  C   UNL     1      46.832 -30.048  -0.666  1.00  0.00     0.138 A 
HETATM    3  N   UNL     1      46.160 -29.166  -1.484  1.00  0.00    -0.240 N 
HETATM    4  C   UNL     1      44.777 -29.331  -1.900  1.00  0.00     0.221 C 
HETATM    5  C   UNL     1      44.371 -30.810  -1.765  1.00  0.00     0.066 C 
HETATM    6  C   UNL     1      44.777 -31.381  -0.399  1.00  0.00     0.118 C 
HETATM    7  N   UNL     1      46.205 -31.152  -0.182  1.00  0.00    -0.365 N 
HETATM    8  N   UNL     1      46.890 -28.102  -1.845  1.00  0.00    -0.181 NA
HETATM    9  C   UNL     1      48.091 -28.362  -1.324  1.00  0.00     0.160 A 
HETATM   10  H   UNL     1      46.714 -31.930   0.232  1.00  0.00     0.161 HD
ENDROOT
BRANCH   1  11
HETATM   11  C   UNL     1      49.274 -30.085   0.139  1.00  0.00     0.257 C 
HETATM   12  N   UNL     1      49.478 -29.578   1.402  1.00  0.00    -0.352 N 
HETATM   13  H   UNL     1      48.973 -28.741   1.660  1.00  0.00     0.163 HD
HETATM   14  O   UNL     1      50.020 -30.907  -0.381  1.00  0.00    -0.267 OA
BRANCH  12  15
HETATM   15  C   UNL     1      50.567 -30.021   2.239  1.00  0.00     0.161 C 
BRANCH  15  16
HETATM   16  C   UNL     1      50.088 -30.714   3.488  1.00  0.00    -0.040 A 
HETATM   17  C   UNL     1      48.719 -30.907   3.717  1.00  0.00     0.011 A 
HETATM   18  C   UNL     1      48.273 -31.612   4.842  1.00  0.00     0.037 A 
HETATM   19  C   UNL     1      49.192 -32.136   5.751  1.00  0.00     0.068 A 
HETATM   20  C   UNL     1      50.555 -31.921   5.543  1.00  0.00     0.037 A 
HETATM   21  C   UNL     1      51.003 -31.224   4.418  1.00  0.00     0.011 A 
BRANCH  19  22
HETATM   22  O   UNL     1      48.883 -32.855   6.872  1.00  0.00    -0.356 OA
HETATM   23  C   UNL     1      49.983 -33.335   7.636  1.00  0.00     0.210 C 
ENDBRANCH  19  22
ENDBRANCH  15  16
ENDBRANCH  12  15
ENDBRANCH   1  11
BRANCH   4  24
HETATM   24  C   UNL     1      44.543 -28.880  -3.327  1.00  0.00     0.409 C 
HETATM   25  F   UNL     1      44.761 -27.556  -3.495  1.00  0.00    -0.169 F 
HETATM   26  F   UNL     1      45.423 -29.517  -4.151  1.00  0.00    -0.169 F 
HETATM   27  F   UNL     1      43.316 -29.177  -3.797  1.00  0.00    -0.169 F 
ENDBRANCH   4  24
BRANCH   6  28
HETATM   28  C   UNL     1      43.910 -30.856   0.738  1.00  0.00    -0.035 A 
HETATM   29  C   UNL     1      42.585 -31.319   0.856  1.00  0.00     0.009 A 
HETATM   30  C   UNL     1      41.743 -30.845   1.864  1.00  0.00     0.001 A 
HETATM   31  C   UNL     1      42.210 -29.907   2.779  1.00  0.00     0.000 A 
HETATM   32  C   UNL     1      43.519 -29.444   2.688  1.00  0.00     0.001 A 
HETATM   33  C   UNL     1      44.362 -29.914   1.677  1.00  0.00     0.009 A 
ENDBRANCH   6  28
TORSDOF 6
ENDMDL
