MODEL 1
REMARK VINA RESULT:      -7.9      0.000      0.000
REMARK  6 active torsions:
REMARK  status: ('A' for Active; 'I' for Inactive)
REMARK    1  A    between atoms: C_2  and  C_3 
REMARK    2  A    between atoms: C_3  and  N_4 
REMARK       I    between atoms: N_4  and  C_5 
REMARK    3  A    between atoms: C_5  and  C_6 
REMARK    4  A    between atoms: C_11  and  C_12 
REMARK    5  A    between atoms: C_15  and  O_16 
REMARK    6  A    between atoms: C_21  and  C_22 
ROOT
HETATM    1  C   UNL     1      40.236 -14.170   0.370  1.00  0.00     0.170 A 
HETATM    2  N   UNL     1      40.938 -15.258   0.779  1.00  0.00    -0.163 NA
HETATM    3  N   UNL     1      40.892 -15.180   2.120  1.00  0.00    -0.238 N 
HETATM    4  C   UNL     1      40.133 -14.147   2.594  1.00  0.00     0.145 A 
HETATM    5  N   UNL     1      39.928 -13.974   3.923  1.00  0.00    -0.365 N 
HETATM    6  C   UNL     1      40.618 -14.769   4.932  1.00  0.00     0.118 C 
HETATM    7  C   UNL     1      40.944 -16.166   4.371  1.00  0.00     0.066 C 
HETATM    8  C   UNL     1      41.558 -16.157   2.959  1.00  0.00     0.221 C 
HETATM    9  C   UNL     1      39.712 -13.455   1.482  1.00  0.00     0.115 A 
HETATM   10 CL   UNL     1      38.759 -12.050   1.468  1.00  0.00    -0.077 Cl
HETATM   11  H   UNL     1      39.465 -13.132   4.265  1.00  0.00     0.162 HD
ENDROOT
BRANCH   6  12
HETATM   12  C   UNL     1      41.787 -14.038   5.571  1.00  0.00    -0.035 A 
HETATM   13  C   UNL     1      42.161 -12.734   5.215  1.00  0.00     0.012 A 
HETATM   14  C   UNL     1      43.224 -12.091   5.856  1.00  0.00     0.037 A 
HETATM   15  C   UNL     1      43.932 -12.724   6.877  1.00  0.00     0.068 A 
HETATM   16  C   UNL     1      43.573 -14.018   7.245  1.00  0.00     0.037 A 
HETATM   17  C   UNL     1      42.510 -14.665   6.601  1.00  0.00     0.012 A 
BRANCH  15  18
HETATM   18  O   UNL     1      44.938 -11.979   7.425  1.00  0.00    -0.356 OA
HETATM   19  C   UNL     1      45.737 -11.219   6.528  1.00  0.00     0.210 C 
ENDBRANCH  15  18
ENDBRANCH   6  12
BRANCH   8  20
HETATM   20  C   UNL     1      43.053 -15.930   2.939  1.00  0.00     0.409 C 
HETATM   21  F   UNL     1      43.407 -14.636   2.837  1.00  0.00    -0.169 F 
HETATM   22  F   UNL     1      43.615 -16.412   4.078  1.00  0.00    -0.169 F 
HETATM   23  F   UNL     1      43.646 -16.593   1.918  1.00  0.00    -0.169 F 
ENDBRANCH   8  20
BRANCH   1  24
HETATM   24  C   UNL     1      40.099 -13.857  -1.062  1.00  0.00     0.273 C 
HETATM   25  N   UNL     1      41.035 -12.943  -1.501  1.00  0.00    -0.356 N 
HETATM   26  H   UNL     1      41.642 -12.561  -0.781  1.00  0.00     0.162 HD
HETATM   27  O   UNL     1      39.237 -14.339  -1.788  1.00  0.00    -0.266 OA
BRANCH  25  28
HETATM   28  C   UNL     1      41.012 -12.367  -2.825  1.00  0.00     0.122 C 
BRANCH  28  29
HETATM   29  C   UNL     1      40.908 -10.844  -2.797  1.00  0.00     0.015 C 
HETATM   30  C   UNL     1      41.155 -10.266  -1.411  1.00  0.00     0.006 C 
ENDBRANCH  28  29
ENDBRANCH  25  28
ENDBRANCH   1  24
TORSDOF 6
ENDMDL
MODEL 2
REMARK VINA RESULT:      -7.8      1.337      1.920
REMARK  6 active torsions:
REMARK  status: ('A' for Active; 'I' for Inactive)
REMARK    1  A    between atoms: C_2  and  C_3 
REMARK    2  A    between atoms: C_3  and  N_4 
REMARK       I    between atoms: N_4  and  C_5 
REMARK    3  A    between atoms: C_5  and  C_6 
REMARK    4  A    between atoms: C_11  and  C_12 
REMARK    5  A    between atoms: C_15  and  O_16 
REMARK    6  A    between atoms: C_21  and  C_22 
ROOT
HETATM    1  C   UNL     1      40.071 -13.995   0.583  1.00  0.00     0.170 A 
HETATM    2  N   UNL     1      40.851 -15.057   0.912  1.00  0.00    -0.163 NA
HETATM    3  N   UNL     1      40.860 -15.040   2.257  1.00  0.00    -0.238 N 
HETATM    4  C   UNL     1      40.066 -14.075   2.808  1.00  0.00     0.145 A 
HETATM    5  N   UNL     1      39.910 -13.972   4.151  1.00  0.00    -0.365 N 
HETATM    6  C   UNL     1      40.689 -14.767   5.093  1.00  0.00     0.118 C 
HETATM    7  C   UNL     1      41.068 -16.117   4.456  1.00  0.00     0.066 C 
HETATM    8  C   UNL     1      41.618 -16.011   3.021  1.00  0.00     0.221 C 
HETATM    9  C   UNL     1      39.556 -13.361   1.748  1.00  0.00     0.115 A 
HETATM   10 CL   UNL     1      38.526 -12.016   1.837  1.00  0.00    -0.077 Cl
HETATM   11  H   UNL     1      39.415 -13.174   4.551  1.00  0.00     0.162 HD
ENDROOT
BRANCH   6  12
HETATM   12  C   UNL     1      41.840 -13.997   5.716  1.00  0.00    -0.035 A 
HETATM   13  C   UNL     1      42.703 -14.550   6.673  1.00  0.00     0.012 A 
HETATM   14  C   UNL     1      43.770 -13.811   7.193  1.00  0.00     0.037 A 
HETATM   15  C   UNL     1      44.013 -12.506   6.763  1.00  0.00     0.068 A 
HETATM   16  C   UNL     1      43.167 -11.941   5.812  1.00  0.00     0.037 A 
HETATM   17  C   UNL     1      42.095 -12.680   5.293  1.00  0.00     0.012 A 
BRANCH  15  18
HETATM   18  O   UNL     1      45.093 -11.904   7.344  1.00  0.00    -0.356 OA
HETATM   19  C   UNL     1      44.828 -10.822   8.227  1.00  0.00     0.210 C 
ENDBRANCH  15  18
ENDBRANCH   6  12
BRANCH   8  20
HETATM   20  C   UNL     1      43.095 -15.695   2.949  1.00  0.00     0.409 C 
HETATM   21  F   UNL     1      43.795 -16.112   4.019  1.00  0.00    -0.169 F 
HETATM   22  F   UNL     1      43.645 -16.282   1.854  1.00  0.00    -0.169 F 
HETATM   23  F   UNL     1      43.316 -14.366   2.814  1.00  0.00    -0.169 F 
ENDBRANCH   8  20
BRANCH   1  24
HETATM   24  C   UNL     1      39.853 -13.630  -0.825  1.00  0.00     0.273 C 
HETATM   25  N   UNL     1      38.688 -14.160  -1.342  1.00  0.00    -0.356 N 
HETATM   26  H   UNL     1      38.175 -14.776  -0.716  1.00  0.00     0.162 HD
HETATM   27  O   UNL     1      40.628 -12.944  -1.483  1.00  0.00    -0.266 OA
BRANCH  25  28
HETATM   28  C   UNL     1      38.331 -14.067  -2.737  1.00  0.00     0.122 C 
BRANCH  28  29
HETATM   29  C   UNL     1      37.067 -13.240  -2.962  1.00  0.00     0.015 C 
HETATM   30  C   UNL     1      37.231 -11.790  -2.530  1.00  0.00     0.006 C 
ENDBRANCH  28  29
ENDBRANCH  25  28
ENDBRANCH   1  24
TORSDOF 6
ENDMDL
MODEL 3
REMARK VINA RESULT:      -7.5      3.359      5.052
REMARK  6 active torsions:
REMARK  status: ('A' for Active; 'I' for Inactive)
REMARK    1  A    between atoms: C_2  and  C_3 
REMARK    2  A    between atoms: C_3  and  N_4 
REMARK       I    between atoms: N_4  and  C_5 
REMARK    3  A    between atoms: C_5  and  C_6 
REMARK    4  A    between atoms: C_11  and  C_12 
REMARK    5  A    between atoms: C_15  and  O_16 
REMARK    6  A    between atoms: C_21  and  C_22 
ROOT
HETATM    1  C   UNL     1      39.967 -12.420   3.606  1.00  0.00     0.170 A 
HETATM    2  N   UNL     1      39.939 -12.993   4.838  1.00  0.00    -0.163 NA
HETATM    3  N   UNL     1      41.115 -13.641   4.913  1.00  0.00    -0.238 N 
HETATM    4  C   UNL     1      41.928 -13.450   3.832  1.00  0.00     0.145 A 
HETATM    5  N   UNL     1      43.177 -13.976   3.786  1.00  0.00    -0.365 N 
HETATM    6  C   UNL     1      43.675 -14.899   4.799  1.00  0.00     0.118 C 
HETATM    7  C   UNL     1      43.003 -14.608   6.154  1.00  0.00     0.066 C 
HETATM    8  C   UNL     1      41.476 -14.421   6.080  1.00  0.00     0.221 C 
HETATM    9  C   UNL     1      41.203 -12.681   2.951  1.00  0.00     0.115 A 
HETATM   10 CL   UNL     1      41.703 -12.158   1.416  1.00  0.00    -0.077 Cl
HETATM   11  H   UNL     1      43.723 -13.930   2.925  1.00  0.00     0.162 HD
ENDROOT
BRANCH   6  12
HETATM   12  C   UNL     1      43.636 -16.352   4.354  1.00  0.00    -0.035 A 
HETATM   13  C   UNL     1      43.139 -16.757   3.107  1.00  0.00     0.012 A 
HETATM   14  C   UNL     1      43.155 -18.104   2.730  1.00  0.00     0.037 A 
HETATM   15  C   UNL     1      43.678 -19.078   3.580  1.00  0.00     0.068 A 
HETATM   16  C   UNL     1      44.177 -18.693   4.822  1.00  0.00     0.037 A 
HETATM   17  C   UNL     1      44.159 -17.345   5.202  1.00  0.00     0.012 A 
BRANCH  15  18
HETATM   18  O   UNL     1      43.643 -20.350   3.083  1.00  0.00    -0.356 OA
HETATM   19  C   UNL     1      43.540 -20.487   1.672  1.00  0.00     0.210 C 
ENDBRANCH  15  18
ENDBRANCH   6  12
BRANCH   8  20
HETATM   20  C   UNL     1      40.695 -15.716   6.104  1.00  0.00     0.409 C 
HETATM   21  F   UNL     1      40.371 -16.180   4.884  1.00  0.00    -0.169 F 
HETATM   22  F   UNL     1      41.417 -16.685   6.725  1.00  0.00    -0.169 F 
HETATM   23  F   UNL     1      39.546 -15.594   6.810  1.00  0.00    -0.169 F 
ENDBRANCH   8  20
BRANCH   1  24
HETATM   24  C   UNL     1      38.815 -11.654   3.107  1.00  0.00     0.273 C 
HETATM   25  N   UNL     1      38.259 -12.203   1.969  1.00  0.00    -0.356 N 
HETATM   26  H   UNL     1      38.748 -13.011   1.593  1.00  0.00     0.162 HD
HETATM   27  O   UNL     1      38.398 -10.625   3.629  1.00  0.00    -0.266 OA
BRANCH  25  28
HETATM   28  C   UNL     1      37.216 -11.555   1.210  1.00  0.00     0.122 C 
BRANCH  28  29
HETATM   29  C   UNL     1      37.592 -11.372  -0.259  1.00  0.00     0.015 C 
HETATM   30  C   UNL     1      38.697 -12.320  -0.703  1.00  0.00     0.006 C 
ENDBRANCH  28  29
ENDBRANCH  25  28
ENDBRANCH   1  24
TORSDOF 6
ENDMDL
MODEL 4
REMARK VINA RESULT:      -7.0     16.061     18.808
REMARK  6 active torsions:
REMARK  status: ('A' for Active; 'I' for Inactive)
REMARK    1  A    between atoms: C_2  and  C_3 
REMARK    2  A    between atoms: C_3  and  N_4 
REMARK       I    between atoms: N_4  and  C_5 
REMARK    3  A    between atoms: C_5  and  C_6 
REMARK    4  A    between atoms: C_11  and  C_12 
REMARK    5  A    between atoms: C_15  and  O_16 
REMARK    6  A    between atoms: C_21  and  C_22 
ROOT
HETATM    1  C   UNL     1      46.897 -29.910   2.640  1.00  0.00     0.170 A 
HETATM    2  N   UNL     1      47.479 -29.145   1.680  1.00  0.00    -0.163 NA
HETATM    3  N   UNL     1      46.508 -28.997   0.761  1.00  0.00    -0.238 N 
HETATM    4  C   UNL     1      45.313 -29.556   1.115  1.00  0.00     0.145 A 
HETATM    5  N   UNL     1      44.216 -29.431   0.329  1.00  0.00    -0.365 N 
HETATM    6  C   UNL     1      44.269 -28.838  -1.002  1.00  0.00     0.118 C 
HETATM    7  C   UNL     1      45.395 -27.789  -1.067  1.00  0.00     0.066 C 
HETATM    8  C   UNL     1      46.733 -28.254  -0.464  1.00  0.00     0.221 C 
HETATM    9  C   UNL     1      45.537 -30.180   2.320  1.00  0.00     0.115 A 
HETATM   10 CL   UNL     1      44.409 -31.071   3.222  1.00  0.00    -0.077 Cl
HETATM   11  H   UNL     1      43.368 -29.956   0.544  1.00  0.00     0.162 HD
ENDROOT
BRANCH   6  12
HETATM   12  C   UNL     1      44.278 -29.870  -2.116  1.00  0.00    -0.035 A 
HETATM   13  C   UNL     1      44.248 -31.253  -1.879  1.00  0.00     0.012 A 
HETATM   14  C   UNL     1      44.225 -32.163  -2.940  1.00  0.00     0.037 A 
HETATM   15  C   UNL     1      44.218 -31.721  -4.263  1.00  0.00     0.068 A 
HETATM   16  C   UNL     1      44.246 -30.352  -4.516  1.00  0.00     0.037 A 
HETATM   17  C   UNL     1      44.273 -29.438  -3.455  1.00  0.00     0.012 A 
BRANCH  15  18
HETATM   18  O   UNL     1      44.183 -32.715  -5.199  1.00  0.00    -0.356 OA
HETATM   19  C   UNL     1      44.095 -32.314  -6.560  1.00  0.00     0.210 C 
ENDBRANCH  15  18
ENDBRANCH   6  12
BRANCH   8  20
HETATM   20  C   UNL     1      47.590 -29.060  -1.414  1.00  0.00     0.409 C 
HETATM   21  F   UNL     1      47.420 -28.738  -2.709  1.00  0.00    -0.169 F 
HETATM   22  F   UNL     1      48.905 -28.882  -1.123  1.00  0.00    -0.169 F 
HETATM   23  F   UNL     1      47.355 -30.389  -1.294  1.00  0.00    -0.169 F 
ENDBRANCH   8  20
BRANCH   1  24
HETATM   24  C   UNL     1      47.662 -30.352   3.816  1.00  0.00     0.273 C 
HETATM   25  N   UNL     1      48.893 -30.883   3.485  1.00  0.00    -0.356 N 
HETATM   26  H   UNL     1      49.080 -30.960   2.488  1.00  0.00     0.162 HD
HETATM   27  O   UNL     1      47.251 -30.278   4.968  1.00  0.00    -0.266 OA
BRANCH  25  28
HETATM   28  C   UNL     1      49.761 -31.518   4.447  1.00  0.00     0.122 C 
BRANCH  28  29
HETATM   29  C   UNL     1      51.028 -30.708   4.714  1.00  0.00     0.015 C 
HETATM   30  C   UNL     1      51.852 -31.273   5.862  1.00  0.00     0.006 C 
ENDBRANCH  28  29
ENDBRANCH  25  28
ENDBRANCH   1  24
TORSDOF 6
ENDMDL
MODEL 5
REMARK VINA RESULT:      -6.7      3.269      6.857
REMARK  6 active torsions:
REMARK  status: ('A' for Active; 'I' for Inactive)
REMARK    1  A    between atoms: C_2  and  C_3 
REMARK    2  A    between atoms: C_3  and  N_4 
REMARK       I    between atoms: N_4  and  C_5 
REMARK    3  A    between atoms: C_5  and  C_6 
REMARK    4  A    between atoms: C_11  and  C_12 
REMARK    5  A    between atoms: C_15  and  O_16 
REMARK    6  A    between atoms: C_21  and  C_22 
ROOT
HETATM    1  C   UNL     1      42.780 -15.243   5.340  1.00  0.00     0.170 A 
HETATM    2  N   UNL     1      43.269 -13.980   5.239  1.00  0.00    -0.163 NA
HETATM    3  N   UNL     1      42.171 -13.230   5.040  1.00  0.00    -0.238 N 
HETATM    4  C   UNL     1      40.999 -13.931   5.087  1.00  0.00     0.145 A 
HETATM    5  N   UNL     1      39.801 -13.308   4.977  1.00  0.00    -0.365 N 
HETATM    6  C   UNL     1      39.680 -11.892   4.647  1.00  0.00     0.118 C 
HETATM    7  C   UNL     1      40.910 -11.124   5.166  1.00  0.00     0.066 C 
HETATM    8  C   UNL     1      42.259 -11.796   4.849  1.00  0.00     0.221 C 
HETATM    9  C   UNL     1      41.359 -15.247   5.256  1.00  0.00     0.115 A 
HETATM   10 CL   UNL     1      40.310 -16.578   5.351  1.00  0.00    -0.077 Cl
HETATM   11  H   UNL     1      38.943 -13.855   4.890  1.00  0.00     0.162 HD
ENDROOT
BRANCH   6  12
HETATM   12  C   UNL     1      39.327 -11.646   3.190  1.00  0.00    -0.035 A 
HETATM   13  C   UNL     1      39.026 -10.375   2.679  1.00  0.00     0.012 A 
HETATM   14  C   UNL     1      38.740 -10.195   1.323  1.00  0.00     0.037 A 
HETATM   15  C   UNL     1      38.759 -11.273   0.438  1.00  0.00     0.068 A 
HETATM   16  C   UNL     1      39.058 -12.542   0.928  1.00  0.00     0.037 A 
HETATM   17  C   UNL     1      39.342 -12.725   2.288  1.00  0.00     0.012 A 
BRANCH  15  18
HETATM   18  O   UNL     1      38.472 -10.955  -0.859  1.00  0.00    -0.356 OA
HETATM   19  C   UNL     1      37.713 -11.901  -1.600  1.00  0.00     0.210 C 
ENDBRANCH  15  18
ENDBRANCH   6  12
BRANCH   8  20
HETATM   20  C   UNL     1      42.793 -11.485   3.468  1.00  0.00     0.409 C 
HETATM   21  F   UNL     1      42.503 -12.421   2.547  1.00  0.00    -0.169 F 
HETATM   22  F   UNL     1      42.280 -10.308   3.022  1.00  0.00    -0.169 F 
HETATM   23  F   UNL     1      44.138 -11.328   3.475  1.00  0.00    -0.169 F 
ENDBRANCH   8  20
BRANCH   1  24
HETATM   24  C   UNL     1      43.686 -16.390   5.508  1.00  0.00     0.273 C 
HETATM   25  N   UNL     1      43.707 -17.222   4.406  1.00  0.00    -0.356 N 
HETATM   26  H   UNL     1      43.057 -16.977   3.664  1.00  0.00     0.162 HD
HETATM   27  O   UNL     1      44.342 -16.601   6.522  1.00  0.00    -0.266 OA
BRANCH  25  28
HETATM   28  C   UNL     1      44.402 -18.487   4.388  1.00  0.00     0.122 C 
BRANCH  28  29
HETATM   29  C   UNL     1      43.935 -19.392   3.250  1.00  0.00     0.015 C 
HETATM   30  C   UNL     1      43.031 -18.671   2.261  1.00  0.00     0.006 C 
ENDBRANCH  28  29
ENDBRANCH  25  28
ENDBRANCH   1  24
TORSDOF 6
ENDMDL
MODEL 6
REMARK VINA RESULT:      -6.7      3.674      6.018
REMARK  6 active torsions:
REMARK  status: ('A' for Active; 'I' for Inactive)
REMARK    1  A    between atoms: C_2  and  C_3 
REMARK    2  A    between atoms: C_3  and  N_4 
REMARK       I    between atoms: N_4  and  C_5 
REMARK    3  A    between atoms: C_5  and  C_6 
REMARK    4  A    between atoms: C_11  and  C_12 
REMARK    5  A    between atoms: C_15  and  O_16 
REMARK    6  A    between atoms: C_21  and  C_22 
ROOT
HETATM    1  C   UNL     1      42.239 -15.849   3.499  1.00  0.00     0.170 A 
HETATM    2  N   UNL     1      42.615 -15.174   4.617  1.00  0.00    -0.163 NA
HETATM    3  N   UNL     1      41.636 -14.269   4.785  1.00  0.00    -0.238 N 
HETATM    4  C   UNL     1      40.614 -14.377   3.886  1.00  0.00     0.145 A 
HETATM    5  N   UNL     1      39.517 -13.585   3.966  1.00  0.00    -0.365 N 
HETATM    6  C   UNL     1      39.421 -12.472   4.904  1.00  0.00     0.118 C 
HETATM    7  C   UNL     1      40.258 -12.770   6.162  1.00  0.00     0.066 C 
HETATM    8  C   UNL     1      41.670 -13.310   5.873  1.00  0.00     0.221 C 
HETATM    9  C   UNL     1      40.985 -15.379   3.019  1.00  0.00     0.115 A 
HETATM   10 CL   UNL     1      40.109 -15.927   1.673  1.00  0.00    -0.077 Cl
HETATM   11  H   UNL     1      38.822 -13.592   3.218  1.00  0.00     0.162 HD
ENDROOT
BRANCH   6  12
HETATM   12  C   UNL     1      39.678 -11.122   4.257  1.00  0.00    -0.035 A 
HETATM   13  C   UNL     1      39.956 -10.968   2.891  1.00  0.00     0.012 A 
HETATM   14  C   UNL     1      40.154  -9.700   2.336  1.00  0.00     0.037 A 
HETATM   15  C   UNL     1      40.066  -8.553   3.124  1.00  0.00     0.068 A 
HETATM   16  C   UNL     1      39.789  -8.687   4.482  1.00  0.00     0.037 A 
HETATM   17  C   UNL     1      39.594  -9.957   5.041  1.00  0.00     0.012 A 
BRANCH  15  18
HETATM   18  O   UNL     1      40.269  -7.380   2.453  1.00  0.00    -0.356 OA
HETATM   19  C   UNL     1      40.664  -7.478   1.091  1.00  0.00     0.210 C 
ENDBRANCH  15  18
ENDBRANCH   6  12
BRANCH   8  20
HETATM   20  C   UNL     1      42.695 -12.235   5.588  1.00  0.00     0.409 C 
HETATM   21  F   UNL     1      43.941 -12.549   5.988  1.00  0.00    -0.169 F 
HETATM   22  F   UNL     1      42.751 -11.984   4.254  1.00  0.00    -0.169 F 
HETATM   23  F   UNL     1      42.366 -11.061   6.177  1.00  0.00    -0.169 F 
ENDBRANCH   8  20
BRANCH   1  24
HETATM   24  C   UNL     1      43.092 -16.908   2.937  1.00  0.00     0.273 C 
HETATM   25  N   UNL     1      43.430 -17.872   3.865  1.00  0.00    -0.356 N 
HETATM   26  H   UNL     1      43.109 -17.695   4.813  1.00  0.00     0.162 HD
HETATM   27  O   UNL     1      43.480 -16.929   1.774  1.00  0.00    -0.266 OA
BRANCH  25  28
HETATM   28  C   UNL     1      44.376 -18.928   3.595  1.00  0.00     0.122 C 
BRANCH  28  29
HETATM   29  C   UNL     1      43.692 -20.242   3.221  1.00  0.00     0.015 C 
HETATM   30  C   UNL     1      43.577 -20.435   1.716  1.00  0.00     0.006 C 
ENDBRANCH  28  29
ENDBRANCH  25  28
ENDBRANCH   1  24
TORSDOF 6
ENDMDL
MODEL 7
REMARK VINA RESULT:      -6.7      9.135     11.689
REMARK  6 active torsions:
REMARK  status: ('A' for Active; 'I' for Inactive)
REMARK    1  A    between atoms: C_2  and  C_3 
REMARK    2  A    between atoms: C_3  and  N_4 
REMARK       I    between atoms: N_4  and  C_5 
REMARK    3  A    between atoms: C_5  and  C_6 
REMARK    4  A    between atoms: C_11  and  C_12 
REMARK    5  A    between atoms: C_15  and  O_16 
REMARK    6  A    between atoms: C_21  and  C_22 
ROOT
HETATM    1  C   UNL     1      43.523  -8.930   9.945  1.00  0.00     0.170 A 
HETATM    2  N   UNL     1      43.790  -8.828  11.272  1.00  0.00    -0.163 NA
HETATM    3  N   UNL     1      42.574  -8.862  11.844  1.00  0.00    -0.238 N 
HETATM    4  C   UNL     1      41.548  -9.060  10.964  1.00  0.00     0.145 A 
HETATM    5  N   UNL     1      40.268  -9.191  11.391  1.00  0.00    -0.365 N 
HETATM    6  C   UNL     1      39.879  -8.975  12.779  1.00  0.00     0.118 C 
HETATM    7  C   UNL     1      41.050  -9.328  13.716  1.00  0.00     0.066 C 
HETATM    8  C   UNL     1      42.409  -8.749  13.280  1.00  0.00     0.221 C 
HETATM    9  C   UNL     1      42.127  -9.084   9.717  1.00  0.00     0.115 A 
HETATM   10 CL   UNL     1      41.324  -9.269   8.233  1.00  0.00    -0.077 Cl
HETATM   11  H   UNL     1      39.501  -9.214  10.717  1.00  0.00     0.162 HD
ENDROOT
BRANCH   6  12
HETATM   12  C   UNL     1      39.244  -7.615  13.017  1.00  0.00    -0.035 A 
HETATM   13  C   UNL     1      38.931  -7.129  14.296  1.00  0.00     0.012 A 
HETATM   14  C   UNL     1      38.378  -5.857  14.465  1.00  0.00     0.037 A 
HETATM   15  C   UNL     1      38.135  -5.030  13.368  1.00  0.00     0.068 A 
HETATM   16  C   UNL     1      38.440  -5.496  12.092  1.00  0.00     0.037 A 
HETATM   17  C   UNL     1      38.992  -6.773  11.920  1.00  0.00     0.012 A 
BRANCH  15  18
HETATM   18  O   UNL     1      37.603  -3.810  13.677  1.00  0.00    -0.356 OA
HETATM   19  C   UNL     1      37.219  -3.600  15.029  1.00  0.00     0.210 C 
ENDBRANCH  15  18
ENDBRANCH   6  12
BRANCH   8  20
HETATM   20  C   UNL     1      42.640  -7.321  13.721  1.00  0.00     0.409 C 
HETATM   21  F   UNL     1      42.224  -6.402  12.833  1.00  0.00    -0.169 F 
HETATM   22  F   UNL     1      41.985  -7.080  14.887  1.00  0.00    -0.169 F 
HETATM   23  F   UNL     1      43.949  -7.080  13.970  1.00  0.00    -0.169 F 
ENDBRANCH   8  20
BRANCH   1  24
HETATM   24  C   UNL     1      44.608  -8.873   8.952  1.00  0.00     0.273 C 
HETATM   25  N   UNL     1      45.032 -10.124   8.550  1.00  0.00    -0.356 N 
HETATM   26  H   UNL     1      44.596 -10.906   9.031  1.00  0.00     0.162 HD
HETATM   27  O   UNL     1      45.101  -7.830   8.536  1.00  0.00    -0.266 OA
BRANCH  25  28
HETATM   28  C   UNL     1      46.180 -10.330   7.700  1.00  0.00     0.122 C 
BRANCH  28  29
HETATM   29  C   UNL     1      45.859 -11.206   6.491  1.00  0.00     0.015 C 
HETATM   30  C   UNL     1      44.699 -12.156   6.747  1.00  0.00     0.006 C 
ENDBRANCH  28  29
ENDBRANCH  25  28
ENDBRANCH   1  24
TORSDOF 6
ENDMDL
MODEL 8
REMARK VINA RESULT:      -6.6      6.277      8.874
REMARK  6 active torsions:
REMARK  status: ('A' for Active; 'I' for Inactive)
REMARK    1  A    between atoms: C_2  and  C_3 
REMARK    2  A    between atoms: C_3  and  N_4 
REMARK       I    between atoms: N_4  and  C_5 
REMARK    3  A    between atoms: C_5  and  C_6 
REMARK    4  A    between atoms: C_11  and  C_12 
REMARK    5  A    between atoms: C_15  and  O_16 
REMARK    6  A    between atoms: C_21  and  C_22 
ROOT
HETATM    1  C   UNL     1      42.982 -11.393   6.734  1.00  0.00     0.170 A 
HETATM    2  N   UNL     1      41.838 -10.663   6.795  1.00  0.00    -0.163 NA
HETATM    3  N   UNL     1      42.208  -9.547   7.448  1.00  0.00    -0.238 N 
HETATM    4  C   UNL     1      43.541  -9.486   7.738  1.00  0.00     0.145 A 
HETATM    5  N   UNL     1      44.085  -8.394   8.330  1.00  0.00    -0.365 N 
HETATM    6  C   UNL     1      43.275  -7.291   8.834  1.00  0.00     0.118 C 
HETATM    7  C   UNL     1      41.983  -7.164   8.005  1.00  0.00     0.066 C 
HETATM    8  C   UNL     1      41.256  -8.497   7.753  1.00  0.00     0.221 C 
HETATM    9  C   UNL     1      44.071 -10.681   7.310  1.00  0.00     0.115 A 
HETATM   10 CL   UNL     1      45.689 -11.176   7.444  1.00  0.00    -0.077 Cl
HETATM   11  H   UNL     1      45.054  -8.413   8.651  1.00  0.00     0.162 HD
ENDROOT
BRANCH   6  12
HETATM   12  C   UNL     1      43.078  -7.335  10.340  1.00  0.00    -0.035 A 
HETATM   13  C   UNL     1      42.358  -6.361  11.047  1.00  0.00     0.012 A 
HETATM   14  C   UNL     1      42.177  -6.463  12.429  1.00  0.00     0.037 A 
HETATM   15  C   UNL     1      42.696  -7.544  13.141  1.00  0.00     0.068 A 
HETATM   16  C   UNL     1      43.413  -8.521  12.455  1.00  0.00     0.037 A 
HETATM   17  C   UNL     1      43.599  -8.419  11.070  1.00  0.00     0.012 A 
BRANCH  15  18
HETATM   18  O   UNL     1      42.436  -7.525  14.482  1.00  0.00    -0.356 OA
HETATM   19  C   UNL     1      41.262  -8.196  14.919  1.00  0.00     0.210 C 
ENDBRANCH  15  18
ENDBRANCH   6  12
BRANCH   8  20
HETATM   20  C   UNL     1      40.348  -8.928   8.883  1.00  0.00     0.409 C 
HETATM   21  F   UNL     1      40.952  -9.701   9.803  1.00  0.00    -0.169 F 
HETATM   22  F   UNL     1      39.859  -7.838   9.531  1.00  0.00    -0.169 F 
HETATM   23  F   UNL     1      39.270  -9.609   8.428  1.00  0.00    -0.169 F 
ENDBRANCH   8  20
BRANCH   1  24
HETATM   24  C   UNL     1      42.986 -12.736   6.133  1.00  0.00     0.273 C 
HETATM   25  N   UNL     1      43.047 -13.743   7.075  1.00  0.00    -0.356 N 
HETATM   26  H   UNL     1      43.147 -13.433   8.038  1.00  0.00     0.162 HD
HETATM   27  O   UNL     1      42.957 -12.946   4.926  1.00  0.00    -0.266 OA
BRANCH  25  28
HETATM   28  C   UNL     1      43.212 -15.135   6.730  1.00  0.00     0.122 C 
BRANCH  28  29
HETATM   29  C   UNL     1      42.037 -15.994   7.192  1.00  0.00     0.015 C 
HETATM   30  C   UNL     1      40.802 -15.813   6.321  1.00  0.00     0.006 C 
ENDBRANCH  28  29
ENDBRANCH  25  28
ENDBRANCH   1  24
TORSDOF 6
ENDMDL
MODEL 9
REMARK VINA RESULT:      -6.5      3.874      6.547
REMARK  6 active torsions:
REMARK  status: ('A' for Active; 'I' for Inactive)
REMARK    1  A    between atoms: C_2  and  C_3 
REMARK    2  A    between atoms: C_3  and  N_4 
REMARK       I    between atoms: N_4  and  C_5 
REMARK    3  A    between atoms: C_5  and  C_6 
REMARK    4  A    between atoms: C_11  and  C_12 
REMARK    5  A    between atoms: C_15  and  O_16 
REMARK    6  A    between atoms: C_21  and  C_22 
ROOT
HETATM    1  C   UNL     1      41.135  -9.916   5.807  1.00  0.00     0.170 A 
HETATM    2  N   UNL     1      41.860 -10.151   4.683  1.00  0.00    -0.163 NA
HETATM    3  N   UNL     1      41.431 -11.358   4.276  1.00  0.00    -0.238 N 
HETATM    4  C   UNL     1      40.416 -11.874   5.029  1.00  0.00     0.145 A 
HETATM    5  N   UNL     1      39.825 -13.050   4.705  1.00  0.00    -0.365 N 
HETATM    6  C   UNL     1      40.325 -13.912   3.641  1.00  0.00     0.118 C 
HETATM    7  C   UNL     1      41.013 -13.063   2.556  1.00  0.00     0.066 C 
HETATM    8  C   UNL     1      41.986 -12.001   3.100  1.00  0.00     0.221 C 
HETATM    9  C   UNL     1      40.214 -10.973   6.049  1.00  0.00     0.115 A 
HETATM   10 CL   UNL     1      39.091 -11.112   7.314  1.00  0.00    -0.077 Cl
HETATM   11  H   UNL     1      39.155 -13.482   5.344  1.00  0.00     0.162 HD
ENDROOT
BRANCH   6  12
HETATM   12  C   UNL     1      41.136 -15.088   4.157  1.00  0.00    -0.035 A 
HETATM   13  C   UNL     1      41.891 -15.924   3.320  1.00  0.00     0.012 A 
HETATM   14  C   UNL     1      42.648 -16.975   3.847  1.00  0.00     0.037 A 
HETATM   15  C   UNL     1      42.683 -17.212   5.221  1.00  0.00     0.068 A 
HETATM   16  C   UNL     1      41.941 -16.391   6.067  1.00  0.00     0.037 A 
HETATM   17  C   UNL     1      41.179 -15.340   5.540  1.00  0.00     0.012 A 
BRANCH  15  18
HETATM   18  O   UNL     1      43.471 -18.262   5.601  1.00  0.00    -0.356 OA
HETATM   19  C   UNL     1      44.285 -18.851   4.596  1.00  0.00     0.210 C 
ENDBRANCH  15  18
ENDBRANCH   6  12
BRANCH   8  20
HETATM   20  C   UNL     1      43.371 -12.530   3.399  1.00  0.00     0.409 C 
HETATM   21  F   UNL     1      43.776 -13.502   2.562  1.00  0.00    -0.169 F 
HETATM   22  F   UNL     1      44.282 -11.525   3.320  1.00  0.00    -0.169 F 
HETATM   23  F   UNL     1      43.459 -13.018   4.659  1.00  0.00    -0.169 F 
ENDBRANCH   8  20
BRANCH   1  24
HETATM   24  C   UNL     1      41.353  -8.697   6.602  1.00  0.00     0.273 C 
HETATM   25  N   UNL     1      42.053  -8.936   7.768  1.00  0.00    -0.356 N 
HETATM   26  H   UNL     1      42.265  -9.913   7.955  1.00  0.00     0.162 HD
HETATM   27  O   UNL     1      40.943  -7.587   6.280  1.00  0.00    -0.266 OA
BRANCH  25  28
HETATM   28  C   UNL     1      42.261  -7.931   8.782  1.00  0.00     0.122 C 
BRANCH  28  29
HETATM   29  C   UNL     1      43.685  -7.381   8.775  1.00  0.00     0.015 C 
HETATM   30  C   UNL     1      44.736  -8.479   8.705  1.00  0.00     0.006 C 
ENDBRANCH  28  29
ENDBRANCH  25  28
ENDBRANCH   1  24
TORSDOF 6
ENDMDL
MODEL 10
REMARK VINA RESULT:      -6.5      4.738      7.852
REMARK  6 active torsions:
REMARK  status: ('A' for Active; 'I' for Inactive)
REMARK    1  A    between atoms: C_2  and  C_3 
REMARK    2  A    between atoms: C_3  and  N_4 
REMARK       I    between atoms: N_4  and  C_5 
REMARK    3  A    between atoms: C_5  and  C_6 
REMARK    4  A    between atoms: C_11  and  C_12 
REMARK    5  A    between atoms: C_15  and  O_16 
REMARK    6  A    between atoms: C_21  and  C_22 
ROOT
HETATM    1  C   UNL     1      41.376  -9.531   7.696  1.00  0.00     0.170 A 
HETATM    2  N   UNL     1      42.674  -9.698   7.331  1.00  0.00    -0.163 NA
HETATM    3  N   UNL     1      42.628 -10.714   6.451  1.00  0.00    -0.238 N 
HETATM    4  C   UNL     1      41.366 -11.155   6.172  1.00  0.00     0.145 A 
HETATM    5  N   UNL     1      41.145 -12.125   5.251  1.00  0.00    -0.365 N 
HETATM    6  C   UNL     1      42.230 -12.866   4.618  1.00  0.00     0.118 C 
HETATM    7  C   UNL     1      43.490 -11.984   4.532  1.00  0.00     0.066 C 
HETATM    8  C   UNL     1      43.832 -11.234   5.833  1.00  0.00     0.221 C 
HETATM    9  C   UNL     1      40.528 -10.424   6.983  1.00  0.00     0.115 A 
HETATM   10 CL   UNL     1      38.841 -10.570   7.086  1.00  0.00    -0.077 Cl
HETATM   11  H   UNL     1      40.214 -12.528   5.143  1.00  0.00     0.162 HD
ENDROOT
BRANCH   6  12
HETATM   12  C   UNL     1      42.442 -14.244   5.220  1.00  0.00    -0.035 A 
HETATM   13  C   UNL     1      43.261 -15.219   4.631  1.00  0.00     0.012 A 
HETATM   14  C   UNL     1      43.451 -16.463   5.242  1.00  0.00     0.037 A 
HETATM   15  C   UNL     1      42.841 -16.763   6.460  1.00  0.00     0.068 A 
HETATM   16  C   UNL     1      42.026 -15.806   7.059  1.00  0.00     0.037 A 
HETATM   17  C   UNL     1      41.832 -14.560   6.447  1.00  0.00     0.012 A 
BRANCH  15  18
HETATM   18  O   UNL     1      43.120 -18.007   6.949  1.00  0.00    -0.356 OA
HETATM   19  C   UNL     1      43.591 -18.973   6.019  1.00  0.00     0.210 C 
ENDBRANCH  15  18
ENDBRANCH   6  12
BRANCH   8  20
HETATM   20  C   UNL     1      44.618 -12.056   6.829  1.00  0.00     0.409 C 
HETATM   21  F   UNL     1      45.180 -13.159   6.304  1.00  0.00    -0.169 F 
HETATM   22  F   UNL     1      45.619 -11.309   7.365  1.00  0.00    -0.169 F 
HETATM   23  F   UNL     1      43.848 -12.451   7.870  1.00  0.00    -0.169 F 
ENDBRANCH   8  20
BRANCH   1  24
HETATM   24  C   UNL     1      41.002  -8.532   8.709  1.00  0.00     0.273 C 
HETATM   25  N   UNL     1      41.450  -8.859   9.973  1.00  0.00    -0.356 N 
HETATM   26  H   UNL     1      41.912  -9.761  10.052  1.00  0.00     0.162 HD
HETATM   27  O   UNL     1      40.347  -7.524   8.468  1.00  0.00    -0.266 OA
BRANCH  25  28
HETATM   28  C   UNL     1      41.083  -8.116  11.155  1.00  0.00     0.122 C 
BRANCH  28  29
HETATM   29  C   UNL     1      42.272  -7.387  11.778  1.00  0.00     0.015 C 
HETATM   30  C   UNL     1      43.388  -8.335  12.193  1.00  0.00     0.006 C 
ENDBRANCH  28  29
ENDBRANCH  25  28
ENDBRANCH   1  24
TORSDOF 6
ENDMDL
