MODEL 1
REMARK VINA RESULT:      -9.3      0.000      0.000
REMARK  3 active torsions:
REMARK  status: ('A' for Active; 'I' for Inactive)
REMARK    1  A    between atoms: C_7  and  C_8 
REMARK    2  A    between atoms: C_17  and  C_18 
REMARK       I    between atoms: C_18  and  N_19 
REMARK    3  A    between atoms: N_19  and  C_20 
ROOT
HETATM    1  C   UNL     1      42.853 -13.842   4.564  1.00  0.00     0.206 C 
HETATM    2  N   UNL     1      42.781 -12.494   5.148  1.00  0.00    -0.084 N 
HETATM    3  C   UNL     1      42.974 -12.233   6.479  1.00  0.00     0.725 A 
HETATM    4  N   UNL     1      42.931 -10.942   6.686  1.00  0.00    -0.054 NA
HETATM    5  C   UNL     1      42.748 -10.440   5.425  1.00  0.00     0.275 A 
HETATM    6  N   UNL     1      42.707 -11.344   4.439  1.00  0.00    -0.149 NA
HETATM    7  N   UNL     1      43.177 -13.255   7.329  1.00  0.00    -0.192 N 
HETATM    8  C   UNL     1      43.091 -14.590   6.951  1.00  0.00     0.037 C 
HETATM    9  C   UNL     1      43.227 -15.591   8.074  1.00  0.00     0.070 C 
HETATM   10  C   UNL     1      42.912 -14.914   5.644  1.00  0.00     0.063 C 
HETATM   11  H   UNL     1      43.251 -13.053   8.323  1.00  0.00     0.184 HD
ENDROOT
BRANCH  10  12
HETATM   12  C   UNL     1      42.657 -16.334   5.281  1.00  0.00     0.256 C 
HETATM   13  N   UNL     1      43.730 -16.977   4.707  1.00  0.00    -0.323 N 
HETATM   14  H   UNL     1      44.576 -16.449   4.545  1.00  0.00     0.169 HD
HETATM   15  O   UNL     1      41.547 -16.805   5.504  1.00  0.00    -0.267 OA
BRANCH  13  16
HETATM   16  C   UNL     1      43.776 -18.329   4.295  1.00  0.00     0.035 A 
HETATM   17  C   UNL     1      44.001 -19.404   5.161  1.00  0.00     0.029 A 
HETATM   18  C   UNL     1      44.046 -20.714   4.674  1.00  0.00     0.002 A 
HETATM   19  C   UNL     1      43.859 -20.966   3.319  1.00  0.00     0.000 A 
HETATM   20  C   UNL     1      43.631 -19.906   2.446  1.00  0.00     0.002 A 
HETATM   21  C   UNL     1      43.593 -18.595   2.932  1.00  0.00     0.029 A 
ENDBRANCH  13  16
ENDBRANCH  10  12
BRANCH   1  22
HETATM   22  C   UNL     1      41.775 -14.029   3.529  1.00  0.00     0.015 A 
HETATM   23  C   UNL     1      41.896 -14.609   2.271  1.00  0.00     0.036 A 
HETATM   24  C   UNL     1      43.078 -15.156   1.555  1.00  0.00     0.070 C 
HETATM   25  N   UNL     1      40.642 -14.563   1.715  1.00  0.00    -0.278 N 
HETATM   26  C   UNL     1      40.233 -15.047   0.416  1.00  0.00     0.179 C 
HETATM   27  N   UNL     1      39.731 -13.972   2.504  1.00  0.00    -0.185 NA
HETATM   28  C   UNL     1      40.416 -13.641   3.599  1.00  0.00     0.150 A 
ENDBRANCH   1  22
TORSDOF 3
ENDMDL
MODEL 2
REMARK VINA RESULT:      -8.4      2.081      4.697
REMARK  3 active torsions:
REMARK  status: ('A' for Active; 'I' for Inactive)
REMARK    1  A    between atoms: C_7  and  C_8 
REMARK    2  A    between atoms: C_17  and  C_18 
REMARK       I    between atoms: C_18  and  N_19 
REMARK    3  A    between atoms: N_19  and  C_20 
ROOT
HETATM    1  C   UNL     1      40.665 -12.936   3.535  1.00  0.00     0.206 C 
HETATM    2  N   UNL     1      39.743 -11.837   3.212  1.00  0.00    -0.084 N 
HETATM    3  C   UNL     1      38.964 -11.807   2.086  1.00  0.00     0.725 A 
HETATM    4  N   UNL     1      38.191 -10.752   2.113  1.00  0.00    -0.054 NA
HETATM    5  C   UNL     1      38.507 -10.177   3.315  1.00  0.00     0.275 A 
HETATM    6  N   UNL     1      39.410 -10.831   4.054  1.00  0.00    -0.149 NA
HETATM    7  N   UNL     1      39.078 -12.793   1.179  1.00  0.00    -0.192 N 
HETATM    8  C   UNL     1      40.033 -13.798   1.261  1.00  0.00     0.037 C 
HETATM    9  C   UNL     1      40.084 -14.741   0.082  1.00  0.00     0.070 C 
HETATM   10  C   UNL     1      40.830 -13.889   2.357  1.00  0.00     0.063 C 
HETATM   11  H   UNL     1      38.543 -12.723   0.317  1.00  0.00     0.184 HD
ENDROOT
BRANCH  10  12
HETATM   12  C   UNL     1      41.953 -14.864   2.356  1.00  0.00     0.256 C 
HETATM   13  N   UNL     1      41.737 -15.983   3.127  1.00  0.00    -0.323 N 
HETATM   14  H   UNL     1      40.875 -16.047   3.651  1.00  0.00     0.169 HD
HETATM   15  O   UNL     1      42.954 -14.603   1.698  1.00  0.00    -0.267 OA
BRANCH  13  16
HETATM   16  C   UNL     1      42.618 -17.079   3.282  1.00  0.00     0.035 A 
HETATM   17  C   UNL     1      42.743 -18.120   2.357  1.00  0.00     0.029 A 
HETATM   18  C   UNL     1      43.629 -19.177   2.588  1.00  0.00     0.002 A 
HETATM   19  C   UNL     1      44.404 -19.202   3.743  1.00  0.00     0.000 A 
HETATM   20  C   UNL     1      44.292 -18.171   4.671  1.00  0.00     0.002 A 
HETATM   21  C   UNL     1      43.401 -17.117   4.443  1.00  0.00     0.029 A 
ENDBRANCH  13  16
ENDBRANCH  10  12
BRANCH   1  22
HETATM   22  C   UNL     1      41.949 -12.399   4.112  1.00  0.00     0.015 A 
HETATM   23  C   UNL     1      42.587 -12.796   5.282  1.00  0.00     0.036 A 
HETATM   24  C   UNL     1      42.201 -13.790   6.318  1.00  0.00     0.070 C 
HETATM   25  N   UNL     1      43.721 -12.029   5.369  1.00  0.00    -0.278 N 
HETATM   26  C   UNL     1      44.732 -12.061   6.402  1.00  0.00     0.179 C 
HETATM   27  N   UNL     1      43.848 -11.150   4.363  1.00  0.00    -0.185 NA
HETATM   28  C   UNL     1      42.773 -11.367   3.605  1.00  0.00     0.150 A 
ENDBRANCH   1  22
TORSDOF 3
ENDMDL
MODEL 3
REMARK VINA RESULT:      -7.9      2.011      4.255
REMARK  3 active torsions:
REMARK  status: ('A' for Active; 'I' for Inactive)
REMARK    1  A    between atoms: C_7  and  C_8 
REMARK    2  A    between atoms: C_17  and  C_18 
REMARK       I    between atoms: C_18  and  N_19 
REMARK    3  A    between atoms: N_19  and  C_20 
ROOT
HETATM    1  C   UNL     1      41.021 -13.316   4.940  1.00  0.00     0.206 C 
HETATM    2  N   UNL     1      40.179 -12.111   4.958  1.00  0.00    -0.084 N 
HETATM    3  C   UNL     1      39.417 -11.702   3.895  1.00  0.00     0.725 A 
HETATM    4  N   UNL     1      38.717 -10.651   4.233  1.00  0.00    -0.054 NA
HETATM    5  C   UNL     1      39.057 -10.471   5.547  1.00  0.00     0.275 A 
HETATM    6  N   UNL     1      39.905 -11.372   6.057  1.00  0.00    -0.149 NA
HETATM    7  N   UNL     1      39.475 -12.388   2.740  1.00  0.00    -0.192 N 
HETATM    8  C   UNL     1      40.360 -13.437   2.519  1.00  0.00     0.037 C 
HETATM    9  C   UNL     1      40.361 -13.999   1.117  1.00  0.00     0.070 C 
HETATM   10  C   UNL     1      41.135 -13.895   3.536  1.00  0.00     0.063 C 
HETATM   11  H   UNL     1      38.957 -12.035   1.939  1.00  0.00     0.184 HD
ENDROOT
BRANCH  10  12
HETATM   12  C   UNL     1      42.190 -14.903   3.242  1.00  0.00     0.256 C 
HETATM   13  N   UNL     1      41.892 -16.179   3.663  1.00  0.00    -0.323 N 
HETATM   14  H   UNL     1      41.024 -16.332   4.157  1.00  0.00     0.169 HD
HETATM   15  O   UNL     1      43.212 -14.532   2.676  1.00  0.00    -0.267 OA
BRANCH  13  16
HETATM   16  C   UNL     1      42.697 -17.329   3.488  1.00  0.00     0.035 A 
HETATM   17  C   UNL     1      43.710 -17.716   4.370  1.00  0.00     0.029 A 
HETATM   18  C   UNL     1      44.473 -18.861   4.121  1.00  0.00     0.002 A 
HETATM   19  C   UNL     1      44.227 -19.636   2.992  1.00  0.00     0.000 A 
HETATM   20  C   UNL     1      43.220 -19.263   2.107  1.00  0.00     0.002 A 
HETATM   21  C   UNL     1      42.461 -18.115   2.353  1.00  0.00     0.029 A 
ENDBRANCH  13  16
ENDBRANCH  10  12
BRANCH   1  22
HETATM   22  C   UNL     1      42.331 -13.058   5.638  1.00  0.00     0.015 A 
HETATM   23  C   UNL     1      43.290 -12.103   5.320  1.00  0.00     0.036 A 
HETATM   24  C   UNL     1      43.356 -11.113   4.213  1.00  0.00     0.070 C 
HETATM   25  N   UNL     1      44.288 -12.249   6.252  1.00  0.00    -0.278 N 
HETATM   26  C   UNL     1      45.511 -11.487   6.363  1.00  0.00     0.179 C 
HETATM   27  N   UNL     1      44.059 -13.242   7.124  1.00  0.00    -0.185 NA
HETATM   28  C   UNL     1      42.880 -13.738   6.751  1.00  0.00     0.150 A 
ENDBRANCH   1  22
TORSDOF 3
ENDMDL
MODEL 4
REMARK VINA RESULT:      -7.7      2.377      5.917
REMARK  3 active torsions:
REMARK  status: ('A' for Active; 'I' for Inactive)
REMARK    1  A    between atoms: C_7  and  C_8 
REMARK    2  A    between atoms: C_17  and  C_18 
REMARK       I    between atoms: C_18  and  N_19 
REMARK    3  A    between atoms: N_19  and  C_20 
ROOT
HETATM    1  C   UNL     1      42.811 -14.284   5.158  1.00  0.00     0.206 C 
HETATM    2  N   UNL     1      43.092 -15.376   6.104  1.00  0.00    -0.084 N 
HETATM    3  C   UNL     1      43.505 -16.624   5.719  1.00  0.00     0.725 A 
HETATM    4  N   UNL     1      43.753 -17.351   6.777  1.00  0.00    -0.054 NA
HETATM    5  C   UNL     1      43.513 -16.480   7.806  1.00  0.00     0.275 A 
HETATM    6  N   UNL     1      43.161 -15.240   7.448  1.00  0.00    -0.149 NA
HETATM    7  N   UNL     1      43.606 -16.911   4.409  1.00  0.00    -0.192 N 
HETATM    8  C   UNL     1      43.201 -16.040   3.404  1.00  0.00     0.037 C 
HETATM    9  C   UNL     1      43.276 -16.592   2.000  1.00  0.00     0.070 C 
HETATM   10  C   UNL     1      42.791 -14.784   3.720  1.00  0.00     0.063 C 
HETATM   11  H   UNL     1      43.848 -17.860   4.137  1.00  0.00     0.184 HD
ENDROOT
BRANCH  10  12
HETATM   12  C   UNL     1      42.208 -13.926   2.654  1.00  0.00     0.256 C 
HETATM   13  N   UNL     1      40.994 -14.362   2.172  1.00  0.00    -0.323 N 
HETATM   14  H   UNL     1      40.613 -15.223   2.537  1.00  0.00     0.169 HD
HETATM   15  O   UNL     1      42.833 -12.936   2.291  1.00  0.00    -0.267 OA
BRANCH  13  16
HETATM   16  C   UNL     1      40.206 -13.726   1.185  1.00  0.00     0.035 A 
HETATM   17  C   UNL     1      39.516 -12.527   1.386  1.00  0.00     0.029 A 
HETATM   18  C   UNL     1      38.745 -11.966   0.363  1.00  0.00     0.002 A 
HETATM   19  C   UNL     1      38.661 -12.595  -0.875  1.00  0.00     0.000 A 
HETATM   20  C   UNL     1      39.344 -13.788  -1.091  1.00  0.00     0.002 A 
HETATM   21  C   UNL     1      40.110 -14.351  -0.065  1.00  0.00     0.029 A 
ENDBRANCH  13  16
ENDBRANCH  10  12
BRANCH   1  22
HETATM   22  C   UNL     1      41.591 -13.511   5.588  1.00  0.00     0.015 A 
HETATM   23  C   UNL     1      41.487 -12.142   5.809  1.00  0.00     0.036 A 
HETATM   24  C   UNL     1      42.505 -11.061   5.750  1.00  0.00     0.070 C 
HETATM   25  N   UNL     1      40.180 -11.919   6.166  1.00  0.00    -0.278 N 
HETATM   26  C   UNL     1      39.557 -10.657   6.493  1.00  0.00     0.179 C 
HETATM   27  N   UNL     1      39.445 -13.040   6.220  1.00  0.00    -0.185 NA
HETATM   28  C   UNL     1      40.298 -14.006   5.878  1.00  0.00     0.150 A 
ENDBRANCH   1  22
TORSDOF 3
ENDMDL
MODEL 5
REMARK VINA RESULT:      -7.4      2.532      5.713
REMARK  3 active torsions:
REMARK  status: ('A' for Active; 'I' for Inactive)
REMARK    1  A    between atoms: C_7  and  C_8 
REMARK    2  A    between atoms: C_17  and  C_18 
REMARK       I    between atoms: C_18  and  N_19 
REMARK    3  A    between atoms: N_19  and  C_20 
ROOT
HETATM    1  C   UNL     1      41.479 -12.965   3.875  1.00  0.00     0.206 C 
HETATM    2  N   UNL     1      42.674 -12.477   4.580  1.00  0.00    -0.084 N 
HETATM    3  C   UNL     1      43.293 -11.291   4.290  1.00  0.00     0.725 A 
HETATM    4  N   UNL     1      44.273 -11.087   5.132  1.00  0.00    -0.054 NA
HETATM    5  C   UNL     1      44.189 -12.175   5.961  1.00  0.00     0.275 A 
HETATM    6  N   UNL     1      43.191 -13.028   5.703  1.00  0.00    -0.149 NA
HETATM    7  N   UNL     1      42.842 -10.544   3.267  1.00  0.00    -0.192 N 
HETATM    8  C   UNL     1      41.839 -10.963   2.400  1.00  0.00     0.037 C 
HETATM    9  C   UNL     1      41.559 -10.039   1.239  1.00  0.00     0.070 C 
HETATM   10  C   UNL     1      41.179 -12.126   2.640  1.00  0.00     0.063 C 
HETATM   11  H   UNL     1      43.353  -9.700   3.019  1.00  0.00     0.184 HD
ENDROOT
BRANCH  10  12
HETATM   12  C   UNL     1      40.228 -12.640   1.618  1.00  0.00     0.256 C 
HETATM   13  N   UNL     1      40.803 -12.935   0.403  1.00  0.00    -0.323 N 
HETATM   14  H   UNL     1      41.790 -12.756   0.281  1.00  0.00     0.169 HD
HETATM   15  O   UNL     1      39.046 -12.749   1.921  1.00  0.00    -0.267 OA
BRANCH  13  16
HETATM   16  C   UNL     1      40.143 -13.465  -0.731  1.00  0.00     0.035 A 
HETATM   17  C   UNL     1      39.637 -14.765  -0.805  1.00  0.00     0.029 A 
HETATM   18  C   UNL     1      39.008 -15.221  -1.968  1.00  0.00     0.002 A 
HETATM   19  C   UNL     1      38.873 -14.379  -3.068  1.00  0.00     0.000 A 
HETATM   20  C   UNL     1      39.371 -13.081  -3.007  1.00  0.00     0.002 A 
HETATM   21  C   UNL     1      40.005 -12.628  -1.846  1.00  0.00     0.029 A 
ENDBRANCH  13  16
ENDBRANCH  10  12
BRANCH   1  22
HETATM   22  C   UNL     1      41.573 -14.450   3.637  1.00  0.00     0.015 A 
HETATM   23  C   UNL     1      42.477 -15.125   2.826  1.00  0.00     0.036 A 
HETATM   24  C   UNL     1      43.555 -14.624   1.933  1.00  0.00     0.070 C 
HETATM   25  N   UNL     1      42.173 -16.457   2.953  1.00  0.00    -0.278 N 
HETATM   26  C   UNL     1      42.826 -17.578   2.316  1.00  0.00     0.179 C 
HETATM   27  N   UNL     1      41.125 -16.689   3.758  1.00  0.00    -0.185 NA
HETATM   28  C   UNL     1      40.755 -15.476   4.168  1.00  0.00     0.150 A 
ENDBRANCH   1  22
TORSDOF 3
ENDMDL
MODEL 6
REMARK VINA RESULT:      -7.4      1.998      2.360
REMARK  3 active torsions:
REMARK  status: ('A' for Active; 'I' for Inactive)
REMARK    1  A    between atoms: C_7  and  C_8 
REMARK    2  A    between atoms: C_17  and  C_18 
REMARK       I    between atoms: C_18  and  N_19 
REMARK    3  A    between atoms: N_19  and  C_20 
ROOT
HETATM    1  C   UNL     1      41.525 -13.004   4.049  1.00  0.00     0.206 C 
HETATM    2  N   UNL     1      40.967 -11.793   4.671  1.00  0.00    -0.084 N 
HETATM    3  C   UNL     1      40.394 -11.775   5.915  1.00  0.00     0.725 A 
HETATM    4  N   UNL     1      40.067 -10.550   6.232  1.00  0.00    -0.054 NA
HETATM    5  C   UNL     1      40.503  -9.831   5.151  1.00  0.00     0.275 A 
HETATM    6  N   UNL     1      41.114 -10.537   4.192  1.00  0.00    -0.149 NA
HETATM    7  N   UNL     1      40.265 -12.927   6.598  1.00  0.00    -0.192 N 
HETATM    8  C   UNL     1      40.579 -14.170   6.064  1.00  0.00     0.037 C 
HETATM    9  C   UNL     1      40.247 -15.355   6.940  1.00  0.00     0.070 C 
HETATM   10  C   UNL     1      41.160 -14.254   4.839  1.00  0.00     0.063 C 
HETATM   11  H   UNL     1      39.777 -12.910   7.490  1.00  0.00     0.184 HD
ENDROOT
BRANCH  10  12
HETATM   12  C   UNL     1      41.337 -15.593   4.214  1.00  0.00     0.256 C 
HETATM   13  N   UNL     1      42.603 -16.119   4.344  1.00  0.00    -0.323 N 
HETATM   14  H   UNL     1      43.309 -15.564   4.807  1.00  0.00     0.169 HD
HETATM   15  O   UNL     1      40.381 -16.104   3.643  1.00  0.00    -0.267 OA
BRANCH  13  16
HETATM   16  C   UNL     1      43.039 -17.380   3.875  1.00  0.00     0.035 A 
HETATM   17  C   UNL     1      43.759 -18.295   4.647  1.00  0.00     0.029 A 
HETATM   18  C   UNL     1      44.169 -19.519   4.107  1.00  0.00     0.002 A 
HETATM   19  C   UNL     1      43.857 -19.843   2.790  1.00  0.00     0.000 A 
HETATM   20  C   UNL     1      43.139 -18.941   2.010  1.00  0.00     0.002 A 
HETATM   21  C   UNL     1      42.735 -17.715   2.549  1.00  0.00     0.029 A 
ENDBRANCH  13  16
ENDBRANCH  10  12
BRANCH   1  22
HETATM   22  C   UNL     1      41.189 -13.048   2.581  1.00  0.00     0.015 A 
HETATM   23  C   UNL     1      39.944 -12.872   1.988  1.00  0.00     0.036 A 
HETATM   24  C   UNL     1      38.600 -12.648   2.583  1.00  0.00     0.070 C 
HETATM   25  N   UNL     1      40.153 -12.985   0.637  1.00  0.00    -0.278 N 
HETATM   26  C   UNL     1      39.174 -12.875  -0.421  1.00  0.00     0.179 C 
HETATM   27  N   UNL     1      41.428 -13.251   0.316  1.00  0.00    -0.185 NA
HETATM   28  C   UNL     1      42.056 -13.297   1.491  1.00  0.00     0.150 A 
ENDBRANCH   1  22
TORSDOF 3
ENDMDL
MODEL 7
REMARK VINA RESULT:      -7.3      2.389      5.821
REMARK  3 active torsions:
REMARK  status: ('A' for Active; 'I' for Inactive)
REMARK    1  A    between atoms: C_7  and  C_8 
REMARK    2  A    between atoms: C_17  and  C_18 
REMARK       I    between atoms: C_18  and  N_19 
REMARK    3  A    between atoms: N_19  and  C_20 
ROOT
HETATM    1  C   UNL     1      42.045 -13.931   4.113  1.00  0.00     0.206 C 
HETATM    2  N   UNL     1      42.923 -14.397   5.198  1.00  0.00    -0.084 N 
HETATM    3  C   UNL     1      43.501 -15.638   5.226  1.00  0.00     0.725 A 
HETATM    4  N   UNL     1      44.289 -15.735   6.265  1.00  0.00    -0.054 NA
HETATM    5  C   UNL     1      44.192 -14.492   6.833  1.00  0.00     0.275 A 
HETATM    6  N   UNL     1      43.414 -13.616   6.188  1.00  0.00    -0.149 NA
HETATM    7  N   UNL     1      43.215 -16.520   4.252  1.00  0.00    -0.192 N 
HETATM    8  C   UNL     1      42.266 -16.286   3.264  1.00  0.00     0.037 C 
HETATM    9  C   UNL     1      41.996 -17.446   2.336  1.00  0.00     0.070 C 
HETATM   10  C   UNL     1      41.665 -15.071   3.177  1.00  0.00     0.063 C 
HETATM   11  H   UNL     1      43.596 -17.460   4.321  1.00  0.00     0.184 HD
ENDROOT
BRANCH  10  12
HETATM   12  C   UNL     1      40.537 -14.890   2.223  1.00  0.00     0.256 C 
HETATM   13  N   UNL     1      40.806 -14.034   1.180  1.00  0.00    -0.323 N 
HETATM   14  H   UNL     1      41.706 -13.576   1.153  1.00  0.00     0.169 HD
HETATM   15  O   UNL     1      39.488 -15.488   2.436  1.00  0.00    -0.267 OA
BRANCH  13  16
HETATM   16  C   UNL     1      39.931 -13.705   0.118  1.00  0.00     0.035 A 
HETATM   17  C   UNL     1      39.678 -14.539  -0.975  1.00  0.00     0.029 A 
HETATM   18  C   UNL     1      38.809 -14.137  -1.994  1.00  0.00     0.002 A 
HETATM   19  C   UNL     1      38.178 -12.899  -1.929  1.00  0.00     0.000 A 
HETATM   20  C   UNL     1      38.419 -12.059  -0.845  1.00  0.00     0.002 A 
HETATM   21  C   UNL     1      39.293 -12.459   0.170  1.00  0.00     0.029 A 
ENDBRANCH  13  16
ENDBRANCH  10  12
BRANCH   1  22
HETATM   22  C   UNL     1      40.889 -13.141   4.669  1.00  0.00     0.015 A 
HETATM   23  C   UNL     1      40.465 -11.873   4.286  1.00  0.00     0.036 A 
HETATM   24  C   UNL     1      41.017 -10.913   3.295  1.00  0.00     0.070 C 
HETATM   25  N   UNL     1      39.371 -11.593   5.066  1.00  0.00    -0.278 N 
HETATM   26  C   UNL     1      38.558 -10.398   5.053  1.00  0.00     0.179 C 
HETATM   27  N   UNL     1      39.077 -12.568   5.940  1.00  0.00    -0.185 NA
HETATM   28  C   UNL     1      39.999 -13.503   5.707  1.00  0.00     0.150 A 
ENDBRANCH   1  22
TORSDOF 3
ENDMDL
MODEL 8
REMARK VINA RESULT:      -7.3     14.703     16.141
REMARK  3 active torsions:
REMARK  status: ('A' for Active; 'I' for Inactive)
REMARK    1  A    between atoms: C_7  and  C_8 
REMARK    2  A    between atoms: C_17  and  C_18 
REMARK       I    between atoms: C_18  and  N_19 
REMARK    3  A    between atoms: N_19  and  C_20 
ROOT
HETATM    1  C   UNL     1      44.925 -28.975   0.191  1.00  0.00     0.206 C 
HETATM    2  N   UNL     1      43.788 -29.342   1.048  1.00  0.00    -0.084 N 
HETATM    3  C   UNL     1      43.880 -29.490   2.407  1.00  0.00     0.725 A 
HETATM    4  N   UNL     1      42.696 -29.737   2.905  1.00  0.00    -0.054 NA
HETATM    5  C   UNL     1      41.888 -29.689   1.800  1.00  0.00     0.275 A 
HETATM    6  N   UNL     1      42.497 -29.394   0.646  1.00  0.00    -0.149 NA
HETATM    7  N   UNL     1      45.078 -29.361   3.005  1.00  0.00    -0.192 N 
HETATM    8  C   UNL     1      46.266 -29.195   2.304  1.00  0.00     0.037 C 
HETATM    9  C   UNL     1      47.520 -29.195   3.146  1.00  0.00     0.070 C 
HETATM   10  C   UNL     1      46.241 -29.032   0.956  1.00  0.00     0.063 C 
HETATM   11  H   UNL     1      45.144 -29.540   4.003  1.00  0.00     0.184 HD
ENDROOT
BRANCH  10  12
HETATM   12  C   UNL     1      47.525 -29.021   0.205  1.00  0.00     0.256 C 
HETATM   13  N   UNL     1      48.178 -30.233   0.176  1.00  0.00    -0.323 N 
HETATM   14  H   UNL     1      47.772 -31.009   0.679  1.00  0.00     0.169 HD
HETATM   15  O   UNL     1      47.897 -27.970  -0.305  1.00  0.00    -0.267 OA
BRANCH  13  16
HETATM   16  C   UNL     1      49.396 -30.514  -0.486  1.00  0.00     0.035 A 
HETATM   17  C   UNL     1      49.674 -30.139  -1.804  1.00  0.00     0.029 A 
HETATM   18  C   UNL     1      50.898 -30.466  -2.395  1.00  0.00     0.002 A 
HETATM   19  C   UNL     1      51.860 -31.167  -1.674  1.00  0.00     0.000 A 
HETATM   20  C   UNL     1      51.597 -31.545  -0.360  1.00  0.00     0.002 A 
HETATM   21  C   UNL     1      50.370 -31.223   0.229  1.00  0.00     0.029 A 
ENDBRANCH  13  16
ENDBRANCH  10  12
BRANCH   1  22
HETATM   22  C   UNL     1      44.894 -29.759  -1.096  1.00  0.00     0.015 A 
HETATM   23  C   UNL     1      45.064 -29.278  -2.389  1.00  0.00     0.036 A 
HETATM   24  C   UNL     1      45.266 -27.897  -2.900  1.00  0.00     0.070 C 
HETATM   25  N   UNL     1      44.968 -30.372  -3.212  1.00  0.00    -0.278 N 
HETATM   26  C   UNL     1      45.080 -30.407  -4.652  1.00  0.00     0.179 C 
HETATM   27  N   UNL     1      44.720 -31.514  -2.552  1.00  0.00    -0.185 NA
HETATM   28  C   UNL     1      44.667 -31.144  -1.272  1.00  0.00     0.150 A 
ENDBRANCH   1  22
TORSDOF 3
ENDMDL
MODEL 9
REMARK VINA RESULT:      -7.0      2.357      3.386
REMARK  3 active torsions:
REMARK  status: ('A' for Active; 'I' for Inactive)
REMARK    1  A    between atoms: C_7  and  C_8 
REMARK    2  A    between atoms: C_17  and  C_18 
REMARK       I    between atoms: C_18  and  N_19 
REMARK    3  A    between atoms: N_19  and  C_20 
ROOT
HETATM    1  C   UNL     1      41.557 -10.864   4.390  1.00  0.00     0.206 C 
HETATM    2  N   UNL     1      40.872 -10.089   5.435  1.00  0.00    -0.084 N 
HETATM    3  C   UNL     1      41.239 -10.106   6.755  1.00  0.00     0.725 A 
HETATM    4  N   UNL     1      40.504  -9.260   7.428  1.00  0.00    -0.054 NA
HETATM    5  C   UNL     1      39.714  -8.707   6.456  1.00  0.00     0.275 A 
HETATM    6  N   UNL     1      39.938  -9.137   5.209  1.00  0.00    -0.149 NA
HETATM    7  N   UNL     1      42.236 -10.917   7.151  1.00  0.00    -0.192 N 
HETATM    8  C   UNL     1      42.851 -11.837   6.311  1.00  0.00     0.037 C 
HETATM    9  C   UNL     1      43.861 -12.745   6.972  1.00  0.00     0.070 C 
HETATM   10  C   UNL     1      42.539 -11.862   4.989  1.00  0.00     0.063 C 
HETATM   11  H   UNL     1      42.452 -10.971   8.143  1.00  0.00     0.184 HD
ENDROOT
BRANCH  10  12
HETATM   12  C   UNL     1      43.081 -12.957   4.139  1.00  0.00     0.256 C 
HETATM   13  N   UNL     1      42.597 -14.208   4.446  1.00  0.00    -0.323 N 
HETATM   14  H   UNL     1      41.957 -14.300   5.222  1.00  0.00     0.169 HD
HETATM   15  O   UNL     1      43.895 -12.673   3.268  1.00  0.00    -0.267 OA
BRANCH  13  16
HETATM   16  C   UNL     1      42.918 -15.416   3.784  1.00  0.00     0.035 A 
HETATM   17  C   UNL     1      42.793 -15.610   2.405  1.00  0.00     0.029 A 
HETATM   18  C   UNL     1      43.117 -16.841   1.825  1.00  0.00     0.002 A 
HETATM   19  C   UNL     1      43.577 -17.889   2.616  1.00  0.00     0.000 A 
HETATM   20  C   UNL     1      43.709 -17.709   3.990  1.00  0.00     0.002 A 
HETATM   21  C   UNL     1      43.378 -16.481   4.570  1.00  0.00     0.029 A 
ENDBRANCH  13  16
ENDBRANCH  10  12
BRANCH   1  22
HETATM   22  C   UNL     1      40.560 -11.443   3.420  1.00  0.00     0.015 A 
HETATM   23  C   UNL     1      40.518 -11.275   2.041  1.00  0.00     0.036 A 
HETATM   24  C   UNL     1      41.367 -10.466   1.128  1.00  0.00     0.070 C 
HETATM   25  N   UNL     1      39.444 -12.010   1.606  1.00  0.00    -0.278 N 
HETATM   26  C   UNL     1      38.974 -12.170   0.249  1.00  0.00     0.179 C 
HETATM   27  N   UNL     1      38.774 -12.613   2.601  1.00  0.00    -0.185 NA
HETATM   28  C   UNL     1      39.443 -12.266   3.700  1.00  0.00     0.150 A 
ENDBRANCH   1  22
TORSDOF 3
ENDMDL
MODEL 10
REMARK VINA RESULT:      -6.9      5.054      8.269
REMARK  3 active torsions:
REMARK  status: ('A' for Active; 'I' for Inactive)
REMARK    1  A    between atoms: C_7  and  C_8 
REMARK    2  A    between atoms: C_17  and  C_18 
REMARK       I    between atoms: C_18  and  N_19 
REMARK    3  A    between atoms: N_19  and  C_20 
ROOT
HETATM    1  C   UNL     1      37.910 -11.533  -1.000  1.00  0.00     0.206 C 
HETATM    2  N   UNL     1      36.894 -10.941  -1.884  1.00  0.00    -0.084 N 
HETATM    3  C   UNL     1      36.328 -11.605  -2.940  1.00  0.00     0.725 A 
HETATM    4  N   UNL     1      35.404 -10.858  -3.486  1.00  0.00    -0.054 NA
HETATM    5  C   UNL     1      35.410  -9.742  -2.693  1.00  0.00     0.275 A 
HETATM    6  N   UNL     1      36.264  -9.765  -1.663  1.00  0.00    -0.149 NA
HETATM    7  N   UNL     1      36.753 -12.844  -3.244  1.00  0.00    -0.192 N 
HETATM    8  C   UNL     1      37.828 -13.458  -2.613  1.00  0.00     0.037 C 
HETATM    9  C   UNL     1      38.233 -14.798  -3.181  1.00  0.00     0.070 C 
HETATM   10  C   UNL     1      38.426 -12.856  -1.553  1.00  0.00     0.063 C 
HETATM   11  H   UNL     1      36.373 -13.299  -4.071  1.00  0.00     0.184 HD
ENDROOT
BRANCH  10  12
HETATM   12  C   UNL     1      39.674 -13.445  -0.996  1.00  0.00     0.256 C 
HETATM   13  N   UNL     1      39.550 -13.935   0.284  1.00  0.00    -0.323 N 
HETATM   14  H   UNL     1      38.662 -13.833   0.754  1.00  0.00     0.169 HD
HETATM   15  O   UNL     1      40.683 -13.441  -1.691  1.00  0.00    -0.267 OA
BRANCH  13  16
HETATM   16  C   UNL     1      40.562 -14.571   1.040  1.00  0.00     0.035 A 
HETATM   17  C   UNL     1      41.809 -14.002   1.314  1.00  0.00     0.029 A 
HETATM   18  C   UNL     1      42.765 -14.700   2.058  1.00  0.00     0.002 A 
HETATM   19  C   UNL     1      42.482 -15.974   2.543  1.00  0.00     0.000 A 
HETATM   20  C   UNL     1      41.244 -16.552   2.280  1.00  0.00     0.002 A 
HETATM   21  C   UNL     1      40.291 -15.855   1.530  1.00  0.00     0.029 A 
ENDBRANCH  13  16
ENDBRANCH  10  12
BRANCH   1  22
HETATM   22  C   UNL     1      38.971 -10.520  -0.659  1.00  0.00     0.015 A 
HETATM   23  C   UNL     1      39.863  -9.898  -1.526  1.00  0.00     0.036 A 
HETATM   24  C   UNL     1      40.083 -10.062  -2.987  1.00  0.00     0.070 C 
HETATM   25  N   UNL     1      40.612  -9.051  -0.748  1.00  0.00    -0.278 N 
HETATM   26  C   UNL     1      41.675  -8.170  -1.173  1.00  0.00     0.179 C 
HETATM   27  N   UNL     1      40.293  -9.103   0.554  1.00  0.00    -0.185 NA
HETATM   28  C   UNL     1      39.305  -9.996   0.612  1.00  0.00     0.150 A 
ENDBRANCH   1  22
TORSDOF 3
ENDMDL
