MODEL 1
REMARK VINA RESULT:      -9.3      0.000      0.000
REMARK  8 active torsions:
REMARK  status: ('A' for Active; 'I' for Inactive)
REMARK    1  A    between atoms: O_2  and  C_3 
REMARK    2  A    between atoms: C_4  and  O_5 
REMARK    3  A    between atoms: C_8  and  C_9 
REMARK    4  A    between atoms: C_13  and  C_14 
REMARK       I    between atoms: C_14  and  N_15 
REMARK    5  A    between atoms: N_15  and  C_16 
REMARK    6  A    between atoms: C_20  and  C_21 
REMARK    7  A    between atoms: C_21  and  C_22 
REMARK    8  A    between atoms: C_22  and  C_23 
ROOT
HETATM    1  C   UNL     1      44.509 -11.531   7.233  1.00  0.00     0.290 C 
HETATM    2  N   UNL     1      43.361 -12.223   6.917  1.00  0.00    -0.149 N 
HETATM    3  O   UNL     1      45.580 -11.623   6.641  1.00  0.00    -0.265 OA
HETATM    4  H   UNL     1      42.562 -12.219   7.525  1.00  0.00     0.188 HD
ENDROOT
BRANCH   1   5
HETATM    5  C   UNL     1      44.351 -10.630   8.403  1.00  0.00     0.147 A 
HETATM    6  N   UNL     1      44.945  -9.425   8.443  1.00  0.00    -0.169 NA
HETATM    7  N   UNL     1      44.522  -8.868   9.582  1.00  0.00    -0.277 N 
HETATM    8  C   UNL     1      43.694  -9.662  10.331  1.00  0.00     0.063 A 
HETATM    9  H   UNL     1      44.818  -7.919   9.779  1.00  0.00     0.189 HD
HETATM   10  C   UNL     1      43.573 -10.821   9.584  1.00  0.00     0.071 A 
BRANCH   8  11
HETATM   11  C   UNL     1      43.070  -9.235  11.587  1.00  0.00    -0.005 A 
HETATM   12  C   UNL     1      41.914  -9.861  12.081  1.00  0.00     0.053 A 
HETATM   13  C   UNL     1      41.352  -9.482  13.310  1.00  0.00     0.102 A 
HETATM   14  C   UNL     1      41.953  -8.456  14.059  1.00  0.00     0.101 A 
HETATM   15  C   UNL     1      43.082  -7.805  13.557  1.00  0.00     0.040 A 
HETATM   16  C   UNL     1      43.636  -8.195  12.334  1.00  0.00     0.017 A 
BRANCH  13  17
HETATM   17  O   UNL     1      40.235 -10.056  13.866  1.00  0.00    -0.353 OA
HETATM   18  C   UNL     1      39.415 -10.861  13.032  1.00  0.00     0.210 C 
ENDBRANCH  13  17
BRANCH  14  19
HETATM   19  O   UNL     1      41.353  -8.130  15.251  1.00  0.00    -0.353 OA
HETATM   20  C   UNL     1      41.927  -7.045  15.968  1.00  0.00     0.210 C 
ENDBRANCH  14  19
ENDBRANCH   8  11
ENDBRANCH   1   5
BRANCH   2  21
HETATM   21  C   UNL     1      43.195 -12.989   5.802  1.00  0.00     0.747 A 
HETATM   22  N   UNL     1      43.261 -12.609   4.528  1.00  0.00     0.020 NA
HETATM   23  N   UNL     1      42.964 -13.736   3.879  1.00  0.00    -0.248 N 
HETATM   24  H   UNL     1      42.934 -13.729   2.865  1.00  0.00     0.191 HD
HETATM   25  C   UNL     1      42.734 -14.763   4.749  1.00  0.00     0.140 A 
HETATM   26  N   UNL     1      42.866 -14.308   5.978  1.00  0.00    -0.046 NA
BRANCH  25  27
HETATM   27  C   UNL     1      42.351 -16.134   4.313  1.00  0.00     0.085 C 
BRANCH  27  28
HETATM   28  C   UNL     1      43.245 -16.656   3.184  1.00  0.00     0.046 C 
BRANCH  28  29
HETATM   29  C   UNL     1      43.484 -18.141   3.293  1.00  0.00    -0.058 A 
HETATM   30  C   UNL     1      43.213 -18.988   2.208  1.00  0.00     0.007 A 
HETATM   31  C   UNL     1      43.424 -20.364   2.316  1.00  0.00     0.001 A 
HETATM   32  C   UNL     1      43.906 -20.905   3.505  1.00  0.00     0.000 A 
HETATM   33  C   UNL     1      44.177 -20.072   4.589  1.00  0.00     0.001 A 
HETATM   34  C   UNL     1      43.964 -18.697   4.486  1.00  0.00     0.007 A 
ENDBRANCH  28  29
ENDBRANCH  27  28
ENDBRANCH  25  27
ENDBRANCH   2  21
TORSDOF 8
ENDMDL
MODEL 2
REMARK VINA RESULT:      -9.1      1.303      1.924
REMARK  8 active torsions:
REMARK  status: ('A' for Active; 'I' for Inactive)
REMARK    1  A    between atoms: O_2  and  C_3 
REMARK    2  A    between atoms: C_4  and  O_5 
REMARK    3  A    between atoms: C_8  and  C_9 
REMARK    4  A    between atoms: C_13  and  C_14 
REMARK       I    between atoms: C_14  and  N_15 
REMARK    5  A    between atoms: N_15  and  C_16 
REMARK    6  A    between atoms: C_20  and  C_21 
REMARK    7  A    between atoms: C_21  and  C_22 
REMARK    8  A    between atoms: C_22  and  C_23 
ROOT
HETATM    1  C   UNL     1      44.464 -11.643   7.242  1.00  0.00     0.290 C 
HETATM    2  N   UNL     1      43.285 -12.310   6.992  1.00  0.00    -0.149 N 
HETATM    3  O   UNL     1      45.472 -11.697   6.544  1.00  0.00    -0.265 OA
HETATM    4  H   UNL     1      42.548 -12.345   7.674  1.00  0.00     0.188 HD
ENDROOT
BRANCH   1   5
HETATM    5  C   UNL     1      44.426 -10.823   8.479  1.00  0.00     0.147 A 
HETATM    6  N   UNL     1      45.458 -10.808   9.340  1.00  0.00    -0.169 NA
HETATM    7  N   UNL     1      45.116  -9.915  10.274  1.00  0.00    -0.277 N 
HETATM    8  C   UNL     1      43.880  -9.350  10.098  1.00  0.00     0.063 A 
HETATM    9  H   UNL     1      45.794  -9.713  11.000  1.00  0.00     0.189 HD
HETATM   10  C   UNL     1      43.407  -9.934   8.935  1.00  0.00     0.071 A 
BRANCH   8  11
HETATM   11  C   UNL     1      43.327  -8.310  10.969  1.00  0.00    -0.005 A 
HETATM   12  C   UNL     1      43.255  -8.482  12.362  1.00  0.00     0.053 A 
HETATM   13  C   UNL     1      42.773  -7.461  13.195  1.00  0.00     0.102 A 
HETATM   14  C   UNL     1      42.350  -6.246  12.628  1.00  0.00     0.101 A 
HETATM   15  C   UNL     1      42.386  -6.081  11.242  1.00  0.00     0.040 A 
HETATM   16  C   UNL     1      42.874  -7.103  10.422  1.00  0.00     0.017 A 
BRANCH  13  17
HETATM   17  O   UNL     1      42.686  -7.547  14.562  1.00  0.00    -0.353 OA
HETATM   18  C   UNL     1      41.694  -8.400  15.115  1.00  0.00     0.210 C 
ENDBRANCH  13  17
BRANCH  14  19
HETATM   19  O   UNL     1      41.886  -5.289  13.497  1.00  0.00    -0.353 OA
HETATM   20  C   UNL     1      40.481  -5.072  13.502  1.00  0.00     0.210 C 
ENDBRANCH  14  19
ENDBRANCH   8  11
ENDBRANCH   1   5
BRANCH   2  21
HETATM   21  C   UNL     1      43.005 -12.998   5.850  1.00  0.00     0.747 A 
HETATM   22  N   UNL     1      42.802 -12.512   4.628  1.00  0.00     0.020 NA
HETATM   23  N   UNL     1      42.516 -13.611   3.927  1.00  0.00    -0.248 N 
HETATM   24  H   UNL     1      42.306 -13.526   2.938  1.00  0.00     0.191 HD
HETATM   25  C   UNL     1      42.556 -14.725   4.716  1.00  0.00     0.140 A 
HETATM   26  N   UNL     1      42.856 -14.357   5.945  1.00  0.00    -0.046 NA
BRANCH  25  27
HETATM   27  C   UNL     1      42.251 -16.093   4.215  1.00  0.00     0.085 C 
BRANCH  27  28
HETATM   28  C   UNL     1      43.301 -16.595   3.219  1.00  0.00     0.046 C 
BRANCH  28  29
HETATM   29  C   UNL     1      43.497 -18.088   3.310  1.00  0.00    -0.058 A 
HETATM   30  C   UNL     1      43.959 -18.676   4.496  1.00  0.00     0.007 A 
HETATM   31  C   UNL     1      44.151 -20.056   4.574  1.00  0.00     0.001 A 
HETATM   32  C   UNL     1      43.884 -20.861   3.469  1.00  0.00     0.000 A 
HETATM   33  C   UNL     1      43.426 -20.287   2.284  1.00  0.00     0.001 A 
HETATM   34  C   UNL     1      43.236 -18.907   2.203  1.00  0.00     0.007 A 
ENDBRANCH  28  29
ENDBRANCH  27  28
ENDBRANCH  25  27
ENDBRANCH   2  21
TORSDOF 8
ENDMDL
MODEL 3
REMARK VINA RESULT:      -9.0      1.657      2.377
REMARK  8 active torsions:
REMARK  status: ('A' for Active; 'I' for Inactive)
REMARK    1  A    between atoms: O_2  and  C_3 
REMARK    2  A    between atoms: C_4  and  O_5 
REMARK    3  A    between atoms: C_8  and  C_9 
REMARK    4  A    between atoms: C_13  and  C_14 
REMARK       I    between atoms: C_14  and  N_15 
REMARK    5  A    between atoms: N_15  and  C_16 
REMARK    6  A    between atoms: C_20  and  C_21 
REMARK    7  A    between atoms: C_21  and  C_22 
REMARK    8  A    between atoms: C_22  and  C_23 
ROOT
HETATM    1  C   UNL     1      44.344 -11.662   7.332  1.00  0.00     0.290 C 
HETATM    2  N   UNL     1      43.159 -12.337   7.139  1.00  0.00    -0.149 N 
HETATM    3  O   UNL     1      45.312 -11.696   6.578  1.00  0.00    -0.265 OA
HETATM    4  H   UNL     1      42.462 -12.389   7.859  1.00  0.00     0.188 HD
ENDROOT
BRANCH   1   5
HETATM    5  C   UNL     1      44.368 -10.859   8.581  1.00  0.00     0.147 A 
HETATM    6  N   UNL     1      45.449 -10.840   9.379  1.00  0.00    -0.169 NA
HETATM    7  N   UNL     1      45.151  -9.965  10.345  1.00  0.00    -0.277 N 
HETATM    8  C   UNL     1      43.898  -9.418  10.251  1.00  0.00     0.063 A 
HETATM    9  H   UNL     1      45.868  -9.763  11.033  1.00  0.00     0.189 HD
HETATM   10  C   UNL     1      43.365  -9.993   9.110  1.00  0.00     0.071 A 
BRANCH   8  11
HETATM   11  C   UNL     1      43.383  -8.398  11.169  1.00  0.00    -0.005 A 
HETATM   12  C   UNL     1      42.872  -7.178  10.696  1.00  0.00     0.053 A 
HETATM   13  C   UNL     1      42.332  -6.227  11.575  1.00  0.00     0.102 A 
HETATM   14  C   UNL     1      42.304  -6.497  12.954  1.00  0.00     0.101 A 
HETATM   15  C   UNL     1      42.842  -7.693  13.435  1.00  0.00     0.040 A 
HETATM   16  C   UNL     1      43.372  -8.635  12.548  1.00  0.00     0.017 A 
BRANCH  13  17
HETATM   17  O   UNL     1      41.801  -5.022  11.189  1.00  0.00    -0.353 OA
HETATM   18  C   UNL     1      42.661  -4.089  10.550  1.00  0.00     0.210 C 
ENDBRANCH  13  17
BRANCH  14  19
HETATM   19  O   UNL     1      41.765  -5.526  13.762  1.00  0.00    -0.353 OA
HETATM   20  C   UNL     1      40.588  -5.882  14.476  1.00  0.00     0.210 C 
ENDBRANCH  14  19
ENDBRANCH   8  11
ENDBRANCH   1   5
BRANCH   2  21
HETATM   21  C   UNL     1      42.822 -13.011   6.003  1.00  0.00     0.747 A 
HETATM   22  N   UNL     1      42.416 -12.509   4.840  1.00  0.00     0.020 NA
HETATM   23  N   UNL     1      42.175 -13.609   4.123  1.00  0.00    -0.248 N 
HETATM   24  H   UNL     1      41.836 -13.514   3.172  1.00  0.00     0.191 HD
HETATM   25  C   UNL     1      42.441 -14.738   4.844  1.00  0.00     0.140 A 
HETATM   26  N   UNL     1      42.845 -14.381   6.046  1.00  0.00    -0.046 NA
BRANCH  25  27
HETATM   27  C   UNL     1      42.237 -16.113   4.313  1.00  0.00     0.085 C 
BRANCH  27  28
HETATM   28  C   UNL     1      43.395 -16.570   3.422  1.00  0.00     0.046 C 
BRANCH  28  29
HETATM   29  C   UNL     1      43.536 -18.072   3.405  1.00  0.00    -0.058 A 
HETATM   30  C   UNL     1      44.070 -18.750   4.510  1.00  0.00     0.007 A 
HETATM   31  C   UNL     1      44.211 -20.139   4.487  1.00  0.00     0.001 A 
HETATM   32  C   UNL     1      43.821 -20.862   3.361  1.00  0.00     0.000 A 
HETATM   33  C   UNL     1      43.291 -20.197   2.257  1.00  0.00     0.001 A 
HETATM   34  C   UNL     1      43.152 -18.808   2.276  1.00  0.00     0.007 A 
ENDBRANCH  28  29
ENDBRANCH  27  28
ENDBRANCH  25  27
ENDBRANCH   2  21
TORSDOF 8
ENDMDL
MODEL 4
REMARK VINA RESULT:      -8.9      2.594     11.705
REMARK  8 active torsions:
REMARK  status: ('A' for Active; 'I' for Inactive)
REMARK    1  A    between atoms: O_2  and  C_3 
REMARK    2  A    between atoms: C_4  and  O_5 
REMARK    3  A    between atoms: C_8  and  C_9 
REMARK    4  A    between atoms: C_13  and  C_14 
REMARK       I    between atoms: C_14  and  N_15 
REMARK    5  A    between atoms: N_15  and  C_16 
REMARK    6  A    between atoms: C_20  and  C_21 
REMARK    7  A    between atoms: C_21  and  C_22 
REMARK    8  A    between atoms: C_22  and  C_23 
ROOT
HETATM    1  C   UNL     1      42.898 -11.376   6.569  1.00  0.00     0.290 C 
HETATM    2  N   UNL     1      43.534 -11.582   7.773  1.00  0.00    -0.149 N 
HETATM    3  O   UNL     1      42.570 -10.284   6.117  1.00  0.00    -0.265 OA
HETATM    4  H   UNL     1      43.644 -12.503   8.157  1.00  0.00     0.188 HD
ENDROOT
BRANCH   1   5
HETATM    5  C   UNL     1      42.619 -12.633   5.828  1.00  0.00     0.147 A 
HETATM    6  N   UNL     1      41.488 -12.790   5.120  1.00  0.00    -0.169 NA
HETATM    7  N   UNL     1      41.612 -13.984   4.530  1.00  0.00    -0.277 N 
HETATM    8  C   UNL     1      42.766 -14.654   4.839  1.00  0.00     0.063 A 
HETATM    9  H   UNL     1      40.875 -14.273   3.897  1.00  0.00     0.189 HD
HETATM   10  C   UNL     1      43.437 -13.794   5.692  1.00  0.00     0.071 A 
BRANCH   8  11
HETATM   11  C   UNL     1      43.134 -15.952   4.265  1.00  0.00    -0.005 A 
HETATM   12  C   UNL     1      43.596 -17.005   5.072  1.00  0.00     0.053 A 
HETATM   13  C   UNL     1      43.897 -18.261   4.524  1.00  0.00     0.102 A 
HETATM   14  C   UNL     1      43.737 -18.470   3.143  1.00  0.00     0.101 A 
HETATM   15  C   UNL     1      43.312 -17.418   2.330  1.00  0.00     0.040 A 
HETATM   16  C   UNL     1      43.009 -16.172   2.889  1.00  0.00     0.017 A 
BRANCH  13  17
HETATM   17  O   UNL     1      44.337 -19.342   5.247  1.00  0.00    -0.353 OA
HETATM   18  C   UNL     1      43.468 -19.885   6.229  1.00  0.00     0.210 C 
ENDBRANCH  13  17
BRANCH  14  19
HETATM   19  O   UNL     1      44.051 -19.720   2.668  1.00  0.00    -0.353 OA
HETATM   20  C   UNL     1      43.134 -20.291   1.744  1.00  0.00     0.210 C 
ENDBRANCH  14  19
ENDBRANCH   8  11
ENDBRANCH   1   5
BRANCH   2  21
HETATM   21  C   UNL     1      44.041 -10.596   8.566  1.00  0.00     0.747 A 
HETATM   22  N   UNL     1      45.177  -9.922   8.412  1.00  0.00     0.020 NA
HETATM   23  N   UNL     1      45.192  -9.138   9.492  1.00  0.00    -0.248 N 
HETATM   24  H   UNL     1      45.975  -8.508   9.635  1.00  0.00     0.191 HD
HETATM   25  C   UNL     1      44.085  -9.338  10.265  1.00  0.00     0.140 A 
HETATM   26  N   UNL     1      43.343 -10.269   9.700  1.00  0.00    -0.046 NA
BRANCH  25  27
HETATM   27  C   UNL     1      43.843  -8.625  11.549  1.00  0.00     0.085 C 
BRANCH  27  28
HETATM   28  C   UNL     1      42.870  -9.379  12.459  1.00  0.00     0.046 C 
BRANCH  28  29
HETATM   29  C   UNL     1      42.493  -8.571  13.675  1.00  0.00    -0.058 A 
HETATM   30  C   UNL     1      41.404  -8.952  14.474  1.00  0.00     0.007 A 
HETATM   31  C   UNL     1      41.049  -8.195  15.592  1.00  0.00     0.001 A 
HETATM   32  C   UNL     1      41.777  -7.055  15.923  1.00  0.00     0.000 A 
HETATM   33  C   UNL     1      42.859  -6.667  15.135  1.00  0.00     0.001 A 
HETATM   34  C   UNL     1      43.214  -7.419  14.015  1.00  0.00     0.007 A 
ENDBRANCH  28  29
ENDBRANCH  27  28
ENDBRANCH  25  27
ENDBRANCH   2  21
TORSDOF 8
ENDMDL
MODEL 5
REMARK VINA RESULT:      -8.2      3.420     11.586
REMARK  8 active torsions:
REMARK  status: ('A' for Active; 'I' for Inactive)
REMARK    1  A    between atoms: O_2  and  C_3 
REMARK    2  A    between atoms: C_4  and  O_5 
REMARK    3  A    between atoms: C_8  and  C_9 
REMARK    4  A    between atoms: C_13  and  C_14 
REMARK       I    between atoms: C_14  and  N_15 
REMARK    5  A    between atoms: N_15  and  C_16 
REMARK    6  A    between atoms: C_20  and  C_21 
REMARK    7  A    between atoms: C_21  and  C_22 
REMARK    8  A    between atoms: C_22  and  C_23 
ROOT
HETATM    1  C   UNL     1      40.651 -11.338   6.363  1.00  0.00     0.290 C 
HETATM    2  N   UNL     1      39.580 -11.113   7.199  1.00  0.00    -0.149 N 
HETATM    3  O   UNL     1      41.433 -10.480   5.964  1.00  0.00    -0.265 OA
HETATM    4  H   UNL     1      38.892 -11.824   7.372  1.00  0.00     0.188 HD
ENDROOT
BRANCH   1   5
HETATM    5  C   UNL     1      40.792 -12.759   5.954  1.00  0.00     0.147 A 
HETATM    6  N   UNL     1      39.783 -13.633   6.106  1.00  0.00    -0.169 NA
HETATM    7  N   UNL     1      40.227 -14.772   5.565  1.00  0.00    -0.277 N 
HETATM    8  C   UNL     1      41.509 -14.712   5.085  1.00  0.00     0.063 A 
HETATM    9  H   UNL     1      39.586 -15.556   5.530  1.00  0.00     0.189 HD
HETATM   10  C   UNL     1      41.901 -13.408   5.335  1.00  0.00     0.071 A 
BRANCH   8  11
HETATM   11  C   UNL     1      42.177 -15.824   4.404  1.00  0.00    -0.005 A 
HETATM   12  C   UNL     1      42.972 -16.744   5.108  1.00  0.00     0.053 A 
HETATM   13  C   UNL     1      43.567 -17.837   4.459  1.00  0.00     0.102 A 
HETATM   14  C   UNL     1      43.368 -18.014   3.079  1.00  0.00     0.101 A 
HETATM   15  C   UNL     1      42.609 -17.084   2.365  1.00  0.00     0.040 A 
HETATM   16  C   UNL     1      42.017 -16.002   3.024  1.00  0.00     0.017 A 
BRANCH  13  17
HETATM   17  O   UNL     1      44.342 -18.785   5.080  1.00  0.00    -0.353 OA
HETATM   18  C   UNL     1      43.704 -19.684   5.975  1.00  0.00     0.210 C 
ENDBRANCH  13  17
BRANCH  14  19
HETATM   19  O   UNL     1      43.980 -19.100   2.502  1.00  0.00    -0.353 OA
HETATM   20  C   UNL     1      43.120 -20.134   2.039  1.00  0.00     0.210 C 
ENDBRANCH  14  19
ENDBRANCH   8  11
ENDBRANCH   1   5
BRANCH   2  21
HETATM   21  C   UNL     1      39.324  -9.938   7.839  1.00  0.00     0.747 A 
HETATM   22  N   UNL     1      38.976  -8.770   7.304  1.00  0.00     0.020 NA
HETATM   23  N   UNL     1      38.915  -7.973   8.373  1.00  0.00    -0.248 N 
HETATM   24  H   UNL     1      38.673  -6.996   8.247  1.00  0.00     0.191 HD
HETATM   25  C   UNL     1      39.214  -8.656   9.517  1.00  0.00     0.140 A 
HETATM   26  N   UNL     1      39.487  -9.905   9.200  1.00  0.00    -0.046 NA
BRANCH  25  27
HETATM   27  C   UNL     1      39.256  -8.019  10.862  1.00  0.00     0.085 C 
BRANCH  27  28
HETATM   28  C   UNL     1      39.789  -8.968  11.939  1.00  0.00     0.046 C 
BRANCH  28  29
HETATM   29  C   UNL     1      40.956  -8.374  12.688  1.00  0.00    -0.058 A 
HETATM   30  C   UNL     1      40.746  -7.633  13.860  1.00  0.00     0.007 A 
HETATM   31  C   UNL     1      41.826  -7.073  14.545  1.00  0.00     0.001 A 
HETATM   32  C   UNL     1      43.123  -7.248  14.066  1.00  0.00     0.000 A 
HETATM   33  C   UNL     1      43.341  -7.981  12.901  1.00  0.00     0.001 A 
HETATM   34  C   UNL     1      42.263  -8.539  12.213  1.00  0.00     0.007 A 
ENDBRANCH  28  29
ENDBRANCH  27  28
ENDBRANCH  25  27
ENDBRANCH   2  21
TORSDOF 8
ENDMDL
MODEL 6
REMARK VINA RESULT:      -8.1      4.462     11.681
REMARK  8 active torsions:
REMARK  status: ('A' for Active; 'I' for Inactive)
REMARK    1  A    between atoms: O_2  and  C_3 
REMARK    2  A    between atoms: C_4  and  O_5 
REMARK    3  A    between atoms: C_8  and  C_9 
REMARK    4  A    between atoms: C_13  and  C_14 
REMARK       I    between atoms: C_14  and  N_15 
REMARK    5  A    between atoms: N_15  and  C_16 
REMARK    6  A    between atoms: C_20  and  C_21 
REMARK    7  A    between atoms: C_21  and  C_22 
REMARK    8  A    between atoms: C_22  and  C_23 
ROOT
HETATM    1  C   UNL     1      43.000 -13.243   5.830  1.00  0.00     0.290 C 
HETATM    2  N   UNL     1      43.354 -11.915   5.927  1.00  0.00    -0.149 N 
HETATM    3  O   UNL     1      43.485 -14.157   6.489  1.00  0.00    -0.265 OA
HETATM    4  H   UNL     1      43.030 -11.236   5.261  1.00  0.00     0.188 HD
ENDROOT
BRANCH   1   5
HETATM    5  C   UNL     1      41.946 -13.499   4.816  1.00  0.00     0.147 A 
HETATM    6  N   UNL     1      40.704 -13.867   5.176  1.00  0.00    -0.169 NA
HETATM    7  N   UNL     1      40.015 -13.927   4.032  1.00  0.00    -0.277 N 
HETATM    8  C   UNL     1      40.750 -13.648   2.910  1.00  0.00     0.063 A 
HETATM    9  H   UNL     1      39.026 -14.140   4.091  1.00  0.00     0.189 HD
HETATM   10  C   UNL     1      42.016 -13.372   3.397  1.00  0.00     0.071 A 
BRANCH   8  11
HETATM   11  C   UNL     1      40.187 -13.602   1.557  1.00  0.00    -0.005 A 
HETATM   12  C   UNL     1      39.563 -12.444   1.062  1.00  0.00     0.053 A 
HETATM   13  C   UNL     1      39.073 -12.389  -0.251  1.00  0.00     0.102 A 
HETATM   14  C   UNL     1      39.204 -13.511  -1.087  1.00  0.00     0.101 A 
HETATM   15  C   UNL     1      39.791 -14.677  -0.591  1.00  0.00     0.040 A 
HETATM   16  C   UNL     1      40.281 -14.718   0.718  1.00  0.00     0.017 A 
BRANCH  13  17
HETATM   17  O   UNL     1      38.467 -11.292  -0.811  1.00  0.00    -0.353 OA
HETATM   18  C   UNL     1      37.226 -10.867  -0.267  1.00  0.00     0.210 C 
ENDBRANCH  13  17
BRANCH  14  19
HETATM   19  O   UNL     1      38.701 -13.395  -2.360  1.00  0.00    -0.353 OA
HETATM   20  C   UNL     1      38.353 -14.609  -3.013  1.00  0.00     0.210 C 
ENDBRANCH  14  19
ENDBRANCH   8  11
ENDBRANCH   1   5
BRANCH   2  21
HETATM   21  C   UNL     1      44.175 -11.395   6.881  1.00  0.00     0.747 A 
HETATM   22  N   UNL     1      45.504 -11.324   6.870  1.00  0.00     0.020 NA
HETATM   23  N   UNL     1      45.771 -10.785   8.062  1.00  0.00    -0.248 N 
HETATM   24  H   UNL     1      46.737 -10.623   8.326  1.00  0.00     0.191 HD
HETATM   25  C   UNL     1      44.624 -10.536   8.760  1.00  0.00     0.140 A 
HETATM   26  N   UNL     1      43.598 -10.925   8.032  1.00  0.00    -0.046 NA
BRANCH  25  27
HETATM   27  C   UNL     1      44.612  -9.963  10.134  1.00  0.00     0.085 C 
BRANCH  27  28
HETATM   28  C   UNL     1      43.485 -10.542  10.995  1.00  0.00     0.046 C 
BRANCH  28  29
HETATM   29  C   UNL     1      43.102  -9.615  12.122  1.00  0.00    -0.058 A 
HETATM   30  C   UNL     1      42.183 -10.024  13.099  1.00  0.00     0.007 A 
HETATM   31  C   UNL     1      41.820  -9.160  14.134  1.00  0.00     0.001 A 
HETATM   32  C   UNL     1      42.371  -7.882  14.202  1.00  0.00     0.000 A 
HETATM   33  C   UNL     1      43.284  -7.466  13.234  1.00  0.00     0.001 A 
HETATM   34  C   UNL     1      43.646  -8.326  12.197  1.00  0.00     0.007 A 
ENDBRANCH  28  29
ENDBRANCH  27  28
ENDBRANCH  25  27
ENDBRANCH   2  21
TORSDOF 8
ENDMDL
MODEL 7
REMARK VINA RESULT:      -8.1      8.501     11.537
REMARK  8 active torsions:
REMARK  status: ('A' for Active; 'I' for Inactive)
REMARK    1  A    between atoms: O_2  and  C_3 
REMARK    2  A    between atoms: C_4  and  O_5 
REMARK    3  A    between atoms: C_8  and  C_9 
REMARK    4  A    between atoms: C_13  and  C_14 
REMARK       I    between atoms: C_14  and  N_15 
REMARK    5  A    between atoms: N_15  and  C_16 
REMARK    6  A    between atoms: C_20  and  C_21 
REMARK    7  A    between atoms: C_21  and  C_22 
REMARK    8  A    between atoms: C_22  and  C_23 
ROOT
HETATM    1  C   UNL     1      40.312 -13.622  -0.476  1.00  0.00     0.290 C 
HETATM    2  N   UNL     1      40.944 -13.371   0.722  1.00  0.00    -0.149 N 
HETATM    3  O   UNL     1      39.591 -14.588  -0.710  1.00  0.00    -0.265 OA
HETATM    4  H   UNL     1      41.636 -12.648   0.808  1.00  0.00     0.188 HD
ENDROOT
BRANCH   1   5
HETATM    5  C   UNL     1      40.584 -12.595  -1.513  1.00  0.00     0.147 A 
HETATM    6  N   UNL     1      40.402 -12.854  -2.819  1.00  0.00    -0.169 NA
HETATM    7  N   UNL     1      40.660 -11.699  -3.441  1.00  0.00    -0.277 N 
HETATM    8  C   UNL     1      41.042 -10.678  -2.610  1.00  0.00     0.063 A 
HETATM    9  H   UNL     1      40.526 -11.667  -4.445  1.00  0.00     0.189 HD
HETATM   10  C   UNL     1      41.007 -11.242  -1.346  1.00  0.00     0.071 A 
BRANCH   8  11
HETATM   11  C   UNL     1      41.320  -9.315  -3.069  1.00  0.00    -0.005 A 
HETATM   12  C   UNL     1      42.202  -8.472  -2.372  1.00  0.00     0.053 A 
HETATM   13  C   UNL     1      42.504  -7.186  -2.844  1.00  0.00     0.102 A 
HETATM   14  C   UNL     1      41.911  -6.729  -4.034  1.00  0.00     0.101 A 
HETATM   15  C   UNL     1      41.006  -7.547  -4.713  1.00  0.00     0.040 A 
HETATM   16  C   UNL     1      40.717  -8.829  -4.236  1.00  0.00     0.017 A 
BRANCH  13  17
HETATM   17  O   UNL     1      43.366  -6.312  -2.230  1.00  0.00    -0.353 OA
HETATM   18  C   UNL     1      43.158  -6.029  -0.854  1.00  0.00     0.210 C 
ENDBRANCH  13  17
BRANCH  14  19
HETATM   19  O   UNL     1      42.245  -5.460  -4.442  1.00  0.00    -0.353 OA
HETATM   20  C   UNL     1      42.239  -5.228  -5.845  1.00  0.00     0.210 C 
ENDBRANCH  14  19
ENDBRANCH   8  11
ENDBRANCH   1   5
BRANCH   2  21
HETATM   21  C   UNL     1      40.736 -14.067   1.875  1.00  0.00     0.747 A 
HETATM   22  N   UNL     1      39.704 -13.980   2.710  1.00  0.00     0.020 NA
HETATM   23  N   UNL     1      40.049 -14.831   3.679  1.00  0.00    -0.248 N 
HETATM   24  H   UNL     1      39.427 -14.957   4.471  1.00  0.00     0.191 HD
HETATM   25  C   UNL     1      41.256 -15.415   3.419  1.00  0.00     0.140 A 
HETATM   26  N   UNL     1      41.715 -14.936   2.281  1.00  0.00    -0.046 NA
BRANCH  25  27
HETATM   27  C   UNL     1      41.909 -16.385   4.338  1.00  0.00     0.085 C 
BRANCH  27  28
HETATM   28  C   UNL     1      43.341 -16.720   3.908  1.00  0.00     0.046 C 
BRANCH  28  29
HETATM   29  C   UNL     1      43.532 -18.199   3.683  1.00  0.00    -0.058 A 
HETATM   30  C   UNL     1      44.000 -19.022   4.718  1.00  0.00     0.007 A 
HETATM   31  C   UNL     1      44.189 -20.389   4.504  1.00  0.00     0.001 A 
HETATM   32  C   UNL     1      43.912 -20.945   3.257  1.00  0.00     0.000 A 
HETATM   33  C   UNL     1      43.448 -20.135   2.222  1.00  0.00     0.001 A 
HETATM   34  C   UNL     1      43.262 -18.768   2.432  1.00  0.00     0.007 A 
ENDBRANCH  28  29
ENDBRANCH  27  28
ENDBRANCH  25  27
ENDBRANCH   2  21
TORSDOF 8
ENDMDL
MODEL 8
REMARK VINA RESULT:      -8.0      3.523     10.696
REMARK  8 active torsions:
REMARK  status: ('A' for Active; 'I' for Inactive)
REMARK    1  A    between atoms: O_2  and  C_3 
REMARK    2  A    between atoms: C_4  and  O_5 
REMARK    3  A    between atoms: C_8  and  C_9 
REMARK    4  A    between atoms: C_13  and  C_14 
REMARK       I    between atoms: C_14  and  N_15 
REMARK    5  A    between atoms: N_15  and  C_16 
REMARK    6  A    between atoms: C_20  and  C_21 
REMARK    7  A    between atoms: C_21  and  C_22 
REMARK    8  A    between atoms: C_22  and  C_23 
ROOT
HETATM    1  C   UNL     1      39.936 -10.454   6.856  1.00  0.00     0.290 C 
HETATM    2  N   UNL     1      39.438 -10.539   8.137  1.00  0.00    -0.149 N 
HETATM    3  O   UNL     1      40.253  -9.415   6.285  1.00  0.00    -0.265 OA
HETATM    4  H   UNL     1      39.059 -11.397   8.497  1.00  0.00     0.188 HD
ENDROOT
BRANCH   1   5
HETATM    5  C   UNL     1      40.061 -11.772   6.183  1.00  0.00     0.147 A 
HETATM    6  N   UNL     1      38.983 -12.419   5.708  1.00  0.00    -0.169 NA
HETATM    7  N   UNL     1      39.471 -13.508   5.106  1.00  0.00    -0.277 N 
HETATM    8  C   UNL     1      40.832 -13.641   5.185  1.00  0.00     0.063 A 
HETATM    9  H   UNL     1      38.814 -14.114   4.628  1.00  0.00     0.189 HD
HETATM   10  C   UNL     1      41.239 -12.522   5.891  1.00  0.00     0.071 A 
BRANCH   8  11
HETATM   11  C   UNL     1      41.584 -14.728   4.551  1.00  0.00    -0.005 A 
HETATM   12  C   UNL     1      42.733 -15.270   5.150  1.00  0.00     0.053 A 
HETATM   13  C   UNL     1      43.418 -16.345   4.563  1.00  0.00     0.102 A 
HETATM   14  C   UNL     1      42.950 -16.888   3.354  1.00  0.00     0.101 A 
HETATM   15  C   UNL     1      41.830 -16.331   2.735  1.00  0.00     0.040 A 
HETATM   16  C   UNL     1      41.152 -15.263   3.332  1.00  0.00     0.017 A 
BRANCH  13  17
HETATM   17  O   UNL     1      44.537 -16.939   5.094  1.00  0.00    -0.353 OA
HETATM   18  C   UNL     1      44.903 -16.601   6.423  1.00  0.00     0.210 C 
ENDBRANCH  13  17
BRANCH  14  19
HETATM   19  O   UNL     1      43.667 -17.936   2.830  1.00  0.00    -0.353 OA
HETATM   20  C   UNL     1      42.907 -18.991   2.253  1.00  0.00     0.210 C 
ENDBRANCH  14  19
ENDBRANCH   8  11
ENDBRANCH   1   5
BRANCH   2  21
HETATM   21  C   UNL     1      39.375  -9.503   9.020  1.00  0.00     0.747 A 
HETATM   22  N   UNL     1      38.452  -8.548   9.101  1.00  0.00     0.020 NA
HETATM   23  N   UNL     1      38.918  -7.784  10.091  1.00  0.00    -0.248 N 
HETATM   24  H   UNL     1      38.398  -6.956  10.363  1.00  0.00     0.191 HD
HETATM   25  C   UNL     1      40.088  -8.279  10.591  1.00  0.00     0.140 A 
HETATM   26  N   UNL     1      40.403  -9.368   9.918  1.00  0.00    -0.046 NA
BRANCH  25  27
HETATM   27  C   UNL     1      40.855  -7.620  11.682  1.00  0.00     0.085 C 
BRANCH  27  28
HETATM   28  C   UNL     1      42.026  -6.789  11.150  1.00  0.00     0.046 C 
BRANCH  28  29
HETATM   29  C   UNL     1      43.122  -7.655  10.582  1.00  0.00    -0.058 A 
HETATM   30  C   UNL     1      43.602  -7.434   9.283  1.00  0.00     0.007 A 
HETATM   31  C   UNL     1      44.608  -8.245   8.753  1.00  0.00     0.001 A 
HETATM   32  C   UNL     1      45.143  -9.282   9.516  1.00  0.00     0.000 A 
HETATM   33  C   UNL     1      44.671  -9.510  10.807  1.00  0.00     0.001 A 
HETATM   34  C   UNL     1      43.663  -8.703  11.337  1.00  0.00     0.007 A 
ENDBRANCH  28  29
ENDBRANCH  27  28
ENDBRANCH  25  27
ENDBRANCH   2  21
TORSDOF 8
ENDMDL
MODEL 9
REMARK VINA RESULT:      -8.0      2.010      2.732
REMARK  8 active torsions:
REMARK  status: ('A' for Active; 'I' for Inactive)
REMARK    1  A    between atoms: O_2  and  C_3 
REMARK    2  A    between atoms: C_4  and  O_5 
REMARK    3  A    between atoms: C_8  and  C_9 
REMARK    4  A    between atoms: C_13  and  C_14 
REMARK       I    between atoms: C_14  and  N_15 
REMARK    5  A    between atoms: N_15  and  C_16 
REMARK    6  A    between atoms: C_20  and  C_21 
REMARK    7  A    between atoms: C_21  and  C_22 
REMARK    8  A    between atoms: C_22  and  C_23 
ROOT
HETATM    1  C   UNL     1      42.514  -9.624   6.959  1.00  0.00     0.290 C 
HETATM    2  N   UNL     1      43.526 -10.499   6.634  1.00  0.00    -0.149 N 
HETATM    3  O   UNL     1      41.450  -9.513   6.357  1.00  0.00    -0.265 OA
HETATM    4  H   UNL     1      44.429 -10.441   7.069  1.00  0.00     0.188 HD
ENDROOT
BRANCH   1   5
HETATM    5  C   UNL     1      42.823  -8.779   8.140  1.00  0.00     0.147 A 
HETATM    6  N   UNL     1      43.592  -7.682   8.034  1.00  0.00    -0.169 NA
HETATM    7  N   UNL     1      43.586  -7.136   9.254  1.00  0.00    -0.277 N 
HETATM    8  C   UNL     1      42.872  -7.837  10.189  1.00  0.00     0.063 A 
HETATM    9  H   UNL     1      44.074  -6.255   9.376  1.00  0.00     0.189 HD
HETATM   10  C   UNL     1      42.369  -8.919   9.486  1.00  0.00     0.071 A 
BRANCH   8  11
HETATM   11  C   UNL     1      42.685  -7.395  11.574  1.00  0.00    -0.005 A 
HETATM   12  C   UNL     1      41.966  -6.227  11.879  1.00  0.00     0.053 A 
HETATM   13  C   UNL     1      41.746  -5.837  13.209  1.00  0.00     0.102 A 
HETATM   14  C   UNL     1      42.257  -6.625  14.255  1.00  0.00     0.101 A 
HETATM   15  C   UNL     1      43.004  -7.767  13.959  1.00  0.00     0.040 A 
HETATM   16  C   UNL     1      43.211  -8.149  12.630  1.00  0.00     0.017 A 
BRANCH  13  17
HETATM   17  O   UNL     1      41.042  -4.721  13.588  1.00  0.00    -0.353 OA
HETATM   18  C   UNL     1      41.637  -3.451  13.367  1.00  0.00     0.210 C 
ENDBRANCH  13  17
BRANCH  14  19
HETATM   19  O   UNL     1      42.011  -6.187  15.534  1.00  0.00    -0.353 OA
HETATM   20  C   UNL     1      41.384  -7.118  16.407  1.00  0.00     0.210 C 
ENDBRANCH  14  19
ENDBRANCH   8  11
ENDBRANCH   1   5
BRANCH   2  21
HETATM   21  C   UNL     1      43.433 -11.486   5.699  1.00  0.00     0.747 A 
HETATM   22  N   UNL     1      43.561 -11.380   4.378  1.00  0.00     0.020 NA
HETATM   23  N   UNL     1      43.319 -12.627   3.968  1.00  0.00    -0.248 N 
HETATM   24  H   UNL     1      43.343 -12.834   2.974  1.00  0.00     0.191 HD
HETATM   25  C   UNL     1      43.060 -13.454   5.022  1.00  0.00     0.140 A 
HETATM   26  N   UNL     1      43.118 -12.747   6.133  1.00  0.00    -0.046 NA
BRANCH  25  27
HETATM   27  C   UNL     1      42.725 -14.896   4.868  1.00  0.00     0.085 C 
BRANCH  27  28
HETATM   28  C   UNL     1      42.934 -15.391   3.434  1.00  0.00     0.046 C 
BRANCH  28  29
HETATM   29  C   UNL     1      43.257 -16.864   3.385  1.00  0.00    -0.058 A 
HETATM   30  C   UNL     1      43.938 -17.479   4.446  1.00  0.00     0.007 A 
HETATM   31  C   UNL     1      44.247 -18.839   4.394  1.00  0.00     0.001 A 
HETATM   32  C   UNL     1      43.879 -19.596   3.284  1.00  0.00     0.000 A 
HETATM   33  C   UNL     1      43.204 -18.994   2.223  1.00  0.00     0.001 A 
HETATM   34  C   UNL     1      42.897 -17.633   2.272  1.00  0.00     0.007 A 
ENDBRANCH  28  29
ENDBRANCH  27  28
ENDBRANCH  25  27
ENDBRANCH   2  21
TORSDOF 8
ENDMDL
MODEL 10
REMARK VINA RESULT:      -8.0     17.900     19.580
REMARK  8 active torsions:
REMARK  status: ('A' for Active; 'I' for Inactive)
REMARK    1  A    between atoms: O_2  and  C_3 
REMARK    2  A    between atoms: C_4  and  O_5 
REMARK    3  A    between atoms: C_8  and  C_9 
REMARK    4  A    between atoms: C_13  and  C_14 
REMARK       I    between atoms: C_14  and  N_15 
REMARK    5  A    between atoms: N_15  and  C_16 
REMARK    6  A    between atoms: C_20  and  C_21 
REMARK    7  A    between atoms: C_21  and  C_22 
REMARK    8  A    between atoms: C_22  and  C_23 
ROOT
HETATM    1  C   UNL     1      40.983 -31.093   3.985  1.00  0.00     0.290 C 
HETATM    2  N   UNL     1      41.894 -30.069   3.854  1.00  0.00    -0.149 N 
HETATM    3  O   UNL     1      40.427 -31.673   3.057  1.00  0.00    -0.265 OA
HETATM    4  H   UNL     1      42.202 -29.536   4.647  1.00  0.00     0.188 HD
ENDROOT
BRANCH   1   5
HETATM    5  C   UNL     1      40.703 -31.456   5.397  1.00  0.00     0.147 A 
HETATM    6  N   UNL     1      39.485 -31.871   5.785  1.00  0.00    -0.169 NA
HETATM    7  N   UNL     1      39.620 -32.182   7.078  1.00  0.00    -0.277 N 
HETATM    8  C   UNL     1      40.873 -31.962   7.589  1.00  0.00     0.063 A 
HETATM    9  H   UNL     1      38.815 -32.573   7.553  1.00  0.00     0.189 HD
HETATM   10  C   UNL     1      41.595 -31.480   6.510  1.00  0.00     0.071 A 
BRANCH   8  11
HETATM   11  C   UNL     1      41.260 -32.283   8.965  1.00  0.00    -0.005 A 
HETATM   12  C   UNL     1      42.255 -31.552   9.636  1.00  0.00     0.053 A 
HETATM   13  C   UNL     1      42.585 -31.831  10.971  1.00  0.00     0.102 A 
HETATM   14  C   UNL     1      41.912 -32.862  11.649  1.00  0.00     0.101 A 
HETATM   15  C   UNL     1      40.948 -33.616  10.978  1.00  0.00     0.040 A 
HETATM   16  C   UNL     1      40.623 -33.325   9.650  1.00  0.00     0.017 A 
BRANCH  13  17
HETATM   17  O   UNL     1      43.531 -31.152  11.697  1.00  0.00    -0.353 OA
HETATM   18  C   UNL     1      43.194 -29.865  12.193  1.00  0.00     0.210 C 
ENDBRANCH  13  17
BRANCH  14  19
HETATM   19  O   UNL     1      42.283 -33.087  12.953  1.00  0.00    -0.353 OA
HETATM   20  C   UNL     1      43.098 -34.228  13.187  1.00  0.00     0.210 C 
ENDBRANCH  14  19
ENDBRANCH   8  11
ENDBRANCH   1   5
BRANCH   2  21
HETATM   21  C   UNL     1      42.439 -29.657   2.674  1.00  0.00     0.747 A 
HETATM   22  N   UNL     1      41.838 -29.024   1.670  1.00  0.00     0.020 NA
HETATM   23  N   UNL     1      42.817 -28.925   0.768  1.00  0.00    -0.248 N 
HETATM   24  H   UNL     1      42.626 -28.479  -0.123  1.00  0.00     0.191 HD
HETATM   25  C   UNL     1      43.975 -29.481   1.232  1.00  0.00     0.140 A 
HETATM   26  N   UNL     1      43.755 -29.961   2.439  1.00  0.00    -0.046 NA
BRANCH  25  27
HETATM   27  C   UNL     1      45.229 -29.545   0.433  1.00  0.00     0.085 C 
BRANCH  27  28
HETATM   28  C   UNL     1      45.343 -28.387  -0.563  1.00  0.00     0.046 C 
BRANCH  28  29
HETATM   29  C   UNL     1      45.040 -28.824  -1.974  1.00  0.00    -0.058 A 
HETATM   30  C   UNL     1      44.457 -30.075  -2.223  1.00  0.00     0.007 A 
HETATM   31  C   UNL     1      44.188 -30.482  -3.531  1.00  0.00     0.001 A 
HETATM   32  C   UNL     1      44.498 -29.645  -4.601  1.00  0.00     0.000 A 
HETATM   33  C   UNL     1      45.079 -28.400  -4.364  1.00  0.00     0.001 A 
HETATM   34  C   UNL     1      45.352 -27.992  -3.058  1.00  0.00     0.007 A 
ENDBRANCH  28  29
ENDBRANCH  27  28
ENDBRANCH  25  27
ENDBRANCH   2  21
TORSDOF 8
ENDMDL
