MODEL 1
REMARK VINA RESULT:      -8.5      0.000      0.000
REMARK  5 active torsions:
REMARK  status: ('A' for Active; 'I' for Inactive)
REMARK    1  A    between atoms: C_2  and  C_3 
REMARK    2  A    between atoms: C_6  and  C_7 
REMARK    3  A    between atoms: C_7  and  N_8 
REMARK    4  A    between atoms: C_7  and  C_21 
REMARK       I    between atoms: N_8  and  C_9 
REMARK       I    between atoms: C_9  and  N_10 
REMARK    5  A    between atoms: N_10  and  N_11 
ROOT
HETATM    1  N   UNL     1      41.116 -14.303   2.979  1.00  0.00    -0.333 N 
HETATM    2  C   UNL     1      41.638 -15.356   3.661  1.00  0.00     0.335 C 
HETATM    3  N   UNL     1      42.849 -15.802   3.229  1.00  0.00    -0.244 N 
HETATM    4  O   UNL     1      41.018 -15.816   4.613  1.00  0.00    -0.246 OA
HETATM    5  H   UNL     1      40.203 -14.036   3.323  1.00  0.00     0.165 HD
HETATM    6  H   UNL     1      43.021 -15.813   2.234  1.00  0.00     0.192 HD
ENDROOT
BRANCH   1   7
HETATM    7  C   UNL     1      41.759 -13.448   1.986  1.00  0.00     0.122 C 
BRANCH   7   8
HETATM    8  C   UNL     1      40.996 -13.405   0.670  1.00  0.00    -0.035 A 
HETATM    9  C   UNL     1      41.043 -12.302  -0.196  1.00  0.00     0.010 A 
HETATM   10  C   UNL     1      40.374 -12.328  -1.423  1.00  0.00     0.007 A 
HETATM   11  C   UNL     1      39.643 -13.454  -1.816  1.00  0.00    -0.059 A 
HETATM   12  C   UNL     1      39.589 -14.556  -0.956  1.00  0.00     0.007 A 
HETATM   13  C   UNL     1      40.254 -14.531   0.273  1.00  0.00     0.010 A 
BRANCH  11  14
HETATM   14  C   UNL     1      38.967 -13.500  -3.162  1.00  0.00     0.034 C 
HETATM   15  C   UNL     1      38.307 -14.847  -3.417  1.00  0.00     0.010 C 
ENDBRANCH  11  14
ENDBRANCH   7   8
BRANCH   7  16
HETATM   16  C   UNL     1      42.058 -12.029   2.544  1.00  0.00     0.005 C 
HETATM   17  C   UNL     1      41.000 -11.504   3.521  1.00  0.00     0.012 C 
HETATM   18  C   UNL     1      43.441 -11.982   3.204  1.00  0.00     0.012 C 
ENDBRANCH   7  16
ENDBRANCH   1   7
BRANCH   3  19
HETATM   19  N   UNL     1      43.444 -16.813   3.902  1.00  0.00    -0.244 N 
HETATM   20  C   UNL     1      43.463 -18.104   3.457  1.00  0.00     0.086 A 
HETATM   21  C   UNL     1      44.021 -18.799   4.531  1.00  0.00     0.086 A 
HETATM   22  C   UNL     1      43.064 -18.725   2.268  1.00  0.00     0.034 A 
HETATM   23  C   UNL     1      44.206 -20.185   4.423  1.00  0.00     0.034 A 
HETATM   24  N   UNL     1      44.299 -17.955   5.586  1.00  0.00    -0.240 NA
HETATM   25  C   UNL     1      43.817 -20.829   3.240  1.00  0.00     0.002 A 
HETATM   26  C   UNL     1      43.254 -20.109   2.184  1.00  0.00     0.002 A 
HETATM   27  C   UNL     1      43.935 -16.759   5.171  1.00  0.00     0.234 A 
ENDBRANCH   3  19
TORSDOF 5
ENDMDL
MODEL 2
REMARK VINA RESULT:      -8.2      2.250      7.179
REMARK  5 active torsions:
REMARK  status: ('A' for Active; 'I' for Inactive)
REMARK    1  A    between atoms: C_2  and  C_3 
REMARK    2  A    between atoms: C_6  and  C_7 
REMARK    3  A    between atoms: C_7  and  N_8 
REMARK    4  A    between atoms: C_7  and  C_21 
REMARK       I    between atoms: N_8  and  C_9 
REMARK       I    between atoms: C_9  and  N_10 
REMARK    5  A    between atoms: N_10  and  N_11 
ROOT
HETATM    1  N   UNL     1      42.031 -13.227   2.828  1.00  0.00    -0.333 N 
HETATM    2  C   UNL     1      41.276 -12.696   1.830  1.00  0.00     0.335 C 
HETATM    3  N   UNL     1      40.075 -13.296   1.612  1.00  0.00    -0.244 N 
HETATM    4  O   UNL     1      41.699 -11.722   1.218  1.00  0.00    -0.246 OA
HETATM    5  H   UNL     1      42.925 -12.762   2.924  1.00  0.00     0.165 HD
HETATM    6  H   UNL     1      40.027 -14.301   1.691  1.00  0.00     0.192 HD
ENDROOT
BRANCH   1   7
HETATM    7  C   UNL     1      41.652 -14.212   3.836  1.00  0.00     0.122 C 
BRANCH   7   8
HETATM    8  C   UNL     1      42.331 -15.556   3.624  1.00  0.00    -0.035 A 
HETATM    9  C   UNL     1      43.281 -16.073   4.518  1.00  0.00     0.010 A 
HETATM   10  C   UNL     1      43.838 -17.340   4.317  1.00  0.00     0.007 A 
HETATM   11  C   UNL     1      43.460 -18.121   3.219  1.00  0.00    -0.059 A 
HETATM   12  C   UNL     1      42.517 -17.611   2.322  1.00  0.00     0.007 A 
HETATM   13  C   UNL     1      41.961 -16.343   2.520  1.00  0.00     0.010 A 
BRANCH  11  14
HETATM   14  C   UNL     1      44.022 -19.507   3.033  1.00  0.00     0.034 C 
HETATM   15  C   UNL     1      43.318 -20.256   1.912  1.00  0.00     0.010 C 
ENDBRANCH  11  14
ENDBRANCH   7   8
BRANCH   7  16
HETATM   16  C   UNL     1      41.844 -13.672   5.281  1.00  0.00     0.005 C 
HETATM   17  C   UNL     1      42.621 -12.353   5.359  1.00  0.00     0.012 C 
HETATM   18  C   UNL     1      40.494 -13.521   5.991  1.00  0.00     0.012 C 
ENDBRANCH   7  16
ENDBRANCH   1   7
BRANCH   3  19
HETATM   19  N   UNL     1      39.256 -12.779   0.668  1.00  0.00    -0.244 N 
HETATM   20  C   UNL     1      39.103 -13.323  -0.576  1.00  0.00     0.086 A 
HETATM   21  C   UNL     1      38.317 -12.379  -1.238  1.00  0.00     0.086 A 
HETATM   22  C   UNL     1      39.554 -14.502  -1.179  1.00  0.00     0.034 A 
HETATM   23  C   UNL     1      37.944 -12.617  -2.569  1.00  0.00     0.034 A 
HETATM   24  N   UNL     1      38.034 -11.301  -0.426  1.00  0.00    -0.240 NA
HETATM   25  C   UNL     1      38.381 -13.794  -3.193  1.00  0.00     0.002 A 
HETATM   26  C   UNL     1      39.173 -14.717  -2.508  1.00  0.00     0.002 A 
HETATM   27  C   UNL     1      38.621 -11.575   0.722  1.00  0.00     0.234 A 
ENDBRANCH   3  19
TORSDOF 5
ENDMDL
MODEL 3
REMARK VINA RESULT:      -7.9     14.204     15.888
REMARK  5 active torsions:
REMARK  status: ('A' for Active; 'I' for Inactive)
REMARK    1  A    between atoms: C_2  and  C_3 
REMARK    2  A    between atoms: C_6  and  C_7 
REMARK    3  A    between atoms: C_7  and  N_8 
REMARK    4  A    between atoms: C_7  and  C_21 
REMARK       I    between atoms: N_8  and  C_9 
REMARK       I    between atoms: C_9  and  N_10 
REMARK    5  A    between atoms: N_10  and  N_11 
ROOT
HETATM    1  N   UNL     1      45.995 -28.415  -1.153  1.00  0.00    -0.333 N 
HETATM    2  C   UNL     1      47.206 -28.578  -0.557  1.00  0.00     0.335 C 
HETATM    3  N   UNL     1      47.533 -29.854  -0.218  1.00  0.00    -0.244 N 
HETATM    4  O   UNL     1      47.921 -27.598  -0.384  1.00  0.00    -0.246 OA
HETATM    5  H   UNL     1      45.792 -27.444  -1.353  1.00  0.00     0.165 HD
HETATM    6  H   UNL     1      46.801 -30.452   0.137  1.00  0.00     0.192 HD
ENDROOT
BRANCH   1   7
HETATM    7  C   UNL     1      45.088 -29.433  -1.673  1.00  0.00     0.122 C 
BRANCH   7   8
HETATM    8  C   UNL     1      44.104 -29.930  -0.623  1.00  0.00    -0.035 A 
HETATM    9  C   UNL     1      43.918 -31.292  -0.345  1.00  0.00     0.010 A 
HETATM   10  C   UNL     1      43.048 -31.703   0.669  1.00  0.00     0.007 A 
HETATM   11  C   UNL     1      42.343 -30.764   1.430  1.00  0.00    -0.059 A 
HETATM   12  C   UNL     1      42.521 -29.404   1.157  1.00  0.00     0.007 A 
HETATM   13  C   UNL     1      43.389 -28.992   0.141  1.00  0.00     0.010 A 
BRANCH  11  14
HETATM   14  C   UNL     1      41.446 -31.207   2.557  1.00  0.00     0.034 C 
HETATM   15  C   UNL     1      40.158 -31.832   2.041  1.00  0.00     0.010 C 
ENDBRANCH  11  14
ENDBRANCH   7   8
BRANCH   7  16
HETATM   16  C   UNL     1      44.379 -28.972  -2.977  1.00  0.00     0.005 C 
HETATM   17  C   UNL     1      45.117 -27.860  -3.732  1.00  0.00     0.012 C 
HETATM   18  C   UNL     1      44.135 -30.161  -3.915  1.00  0.00     0.012 C 
ENDBRANCH   7  16
ENDBRANCH   1   7
BRANCH   3  19
HETATM   19  N   UNL     1      48.748 -30.087   0.330  1.00  0.00    -0.244 N 
HETATM   20  C   UNL     1      48.983 -30.064   1.675  1.00  0.00     0.086 A 
HETATM   21  C   UNL     1      50.371 -30.185   1.754  1.00  0.00     0.086 A 
HETATM   22  C   UNL     1      48.159 -29.951   2.801  1.00  0.00     0.034 A 
HETATM   23  C   UNL     1      50.981 -30.208   3.017  1.00  0.00     0.034 A 
HETATM   24  N   UNL     1      50.942 -30.252   0.501  1.00  0.00    -0.240 NA
HETATM   25  C   UNL     1      50.176 -30.100   4.159  1.00  0.00     0.002 A 
HETATM   26  C   UNL     1      48.790 -29.972   4.049  1.00  0.00     0.002 A 
HETATM   27  C   UNL     1      49.929 -30.187  -0.340  1.00  0.00     0.234 A 
ENDBRANCH   3  19
TORSDOF 5
ENDMDL
MODEL 4
REMARK VINA RESULT:      -7.9      3.048      7.438
REMARK  5 active torsions:
REMARK  status: ('A' for Active; 'I' for Inactive)
REMARK    1  A    between atoms: C_2  and  C_3 
REMARK    2  A    between atoms: C_6  and  C_7 
REMARK    3  A    between atoms: C_7  and  N_8 
REMARK    4  A    between atoms: C_7  and  C_21 
REMARK       I    between atoms: N_8  and  C_9 
REMARK       I    between atoms: C_9  and  N_10 
REMARK    5  A    between atoms: N_10  and  N_11 
ROOT
HETATM    1  N   UNL     1      41.298 -14.668   4.465  1.00  0.00    -0.333 N 
HETATM    2  C   UNL     1      41.345 -13.543   5.227  1.00  0.00     0.335 C 
HETATM    3  N   UNL     1      42.427 -12.741   5.034  1.00  0.00    -0.244 N 
HETATM    4  O   UNL     1      40.425 -13.311   6.004  1.00  0.00    -0.246 OA
HETATM    5  H   UNL     1      40.490 -15.240   4.673  1.00  0.00     0.165 HD
HETATM    6  H   UNL     1      43.320 -13.183   4.874  1.00  0.00     0.192 HD
ENDROOT
BRANCH   1   7
HETATM    7  C   UNL     1      42.131 -15.034   3.324  1.00  0.00     0.122 C 
BRANCH   7   8
HETATM    8  C   UNL     1      42.730 -16.426   3.460  1.00  0.00    -0.035 A 
HETATM    9  C   UNL     1      43.221 -16.922   4.677  1.00  0.00     0.010 A 
HETATM   10  C   UNL     1      43.709 -18.228   4.773  1.00  0.00     0.007 A 
HETATM   11  C   UNL     1      43.720 -19.071   3.655  1.00  0.00    -0.059 A 
HETATM   12  C   UNL     1      43.236 -18.582   2.438  1.00  0.00     0.007 A 
HETATM   13  C   UNL     1      42.750 -17.275   2.341  1.00  0.00     0.010 A 
BRANCH  11  14
HETATM   14  C   UNL     1      44.197 -20.495   3.772  1.00  0.00     0.034 C 
HETATM   15  C   UNL     1      44.360 -20.919   5.225  1.00  0.00     0.010 C 
ENDBRANCH  11  14
ENDBRANCH   7   8
BRANCH   7  16
HETATM   16  C   UNL     1      41.386 -14.839   1.973  1.00  0.00     0.005 C 
HETATM   17  C   UNL     1      39.881 -15.117   2.041  1.00  0.00     0.012 C 
HETATM   18  C   UNL     1      41.629 -13.432   1.414  1.00  0.00     0.012 C 
ENDBRANCH   7  16
ENDBRANCH   1   7
BRANCH   3  19
HETATM   19  N   UNL     1      42.502 -11.580   5.725  1.00  0.00    -0.244 N 
HETATM   20  C   UNL     1      43.574 -11.232   6.496  1.00  0.00     0.086 A 
HETATM   21  C   UNL     1      43.141 -10.067   7.131  1.00  0.00     0.086 A 
HETATM   22  C   UNL     1      44.840 -11.791   6.704  1.00  0.00     0.034 A 
HETATM   23  C   UNL     1      44.009  -9.410   8.014  1.00  0.00     0.034 A 
HETATM   24  N   UNL     1      41.848  -9.750   6.770  1.00  0.00    -0.240 NA
HETATM   25  C   UNL     1      45.283  -9.949   8.237  1.00  0.00     0.002 A 
HETATM   26  C   UNL     1      45.688 -11.121   7.593  1.00  0.00     0.002 A 
HETATM   27  C   UNL     1      41.491 -10.689   5.918  1.00  0.00     0.234 A 
ENDBRANCH   3  19
TORSDOF 5
ENDMDL
MODEL 5
REMARK VINA RESULT:      -7.6      2.709      7.837
REMARK  5 active torsions:
REMARK  status: ('A' for Active; 'I' for Inactive)
REMARK    1  A    between atoms: C_2  and  C_3 
REMARK    2  A    between atoms: C_6  and  C_7 
REMARK    3  A    between atoms: C_7  and  N_8 
REMARK    4  A    between atoms: C_7  and  C_21 
REMARK       I    between atoms: N_8  and  C_9 
REMARK       I    between atoms: C_9  and  N_10 
REMARK    5  A    between atoms: N_10  and  N_11 
ROOT
HETATM    1  N   UNL     1      40.936 -14.153   3.332  1.00  0.00    -0.333 N 
HETATM    2  C   UNL     1      39.991 -13.700   2.466  1.00  0.00     0.335 C 
HETATM    3  N   UNL     1      40.451 -12.965   1.417  1.00  0.00    -0.244 N 
HETATM    4  O   UNL     1      38.816 -13.990   2.661  1.00  0.00    -0.246 OA
HETATM    5  H   UNL     1      40.534 -14.664   4.107  1.00  0.00     0.165 HD
HETATM    6  H   UNL     1      41.213 -12.325   1.586  1.00  0.00     0.192 HD
ENDROOT
BRANCH   1   7
HETATM    7  C   UNL     1      42.388 -14.143   3.187  1.00  0.00     0.122 C 
BRANCH   7   8
HETATM    8  C   UNL     1      43.083 -13.383   4.307  1.00  0.00    -0.035 A 
HETATM    9  C   UNL     1      43.556 -12.072   4.151  1.00  0.00     0.010 A 
HETATM   10  C   UNL     1      44.135 -11.388   5.224  1.00  0.00     0.007 A 
HETATM   11  C   UNL     1      44.255 -11.996   6.478  1.00  0.00    -0.059 A 
HETATM   12  C   UNL     1      43.789 -13.304   6.640  1.00  0.00     0.007 A 
HETATM   13  C   UNL     1      43.212 -13.990   5.567  1.00  0.00     0.010 A 
BRANCH  11  14
HETATM   14  C   UNL     1      44.832 -11.239   7.647  1.00  0.00     0.034 C 
HETATM   15  C   UNL     1      46.273 -10.822   7.394  1.00  0.00     0.010 C 
ENDBRANCH  11  14
ENDBRANCH   7   8
BRANCH   7  16
HETATM   16  C   UNL     1      42.964 -15.574   2.996  1.00  0.00     0.005 C 
HETATM   17  C   UNL     1      41.998 -16.696   3.392  1.00  0.00     0.012 C 
HETATM   18  C   UNL     1      43.439 -15.783   1.553  1.00  0.00     0.012 C 
ENDBRANCH   7  16
ENDBRANCH   1   7
BRANCH   3  19
HETATM   19  N   UNL     1      39.563 -12.532   0.492  1.00  0.00    -0.244 N 
HETATM   20  C   UNL     1      39.251 -13.233  -0.637  1.00  0.00     0.086 A 
HETATM   21  C   UNL     1      38.448 -12.342  -1.349  1.00  0.00     0.086 A 
HETATM   22  C   UNL     1      39.574 -14.513  -1.103  1.00  0.00     0.034 A 
HETATM   23  C   UNL     1      37.924 -12.738  -2.588  1.00  0.00     0.034 A 
HETATM   24  N   UNL     1      38.310 -11.144  -0.679  1.00  0.00    -0.240 NA
HETATM   25  C   UNL     1      38.230 -14.016  -3.075  1.00  0.00     0.002 A 
HETATM   26  C   UNL     1      39.043 -14.885  -2.343  1.00  0.00     0.002 A 
HETATM   27  C   UNL     1      39.000 -11.294   0.433  1.00  0.00     0.234 A 
ENDBRANCH   3  19
TORSDOF 5
ENDMDL
MODEL 6
REMARK VINA RESULT:      -7.5      7.476     10.350
REMARK  5 active torsions:
REMARK  status: ('A' for Active; 'I' for Inactive)
REMARK    1  A    between atoms: C_2  and  C_3 
REMARK    2  A    between atoms: C_6  and  C_7 
REMARK    3  A    between atoms: C_7  and  N_8 
REMARK    4  A    between atoms: C_7  and  C_21 
REMARK       I    between atoms: N_8  and  C_9 
REMARK       I    between atoms: C_9  and  N_10 
REMARK    5  A    between atoms: N_10  and  N_11 
ROOT
HETATM    1  N   UNL     1      42.697  -9.475   8.036  1.00  0.00    -0.333 N 
HETATM    2  C   UNL     1      41.957  -9.108   9.115  1.00  0.00     0.335 C 
HETATM    3  N   UNL     1      42.059  -9.915  10.206  1.00  0.00    -0.244 N 
HETATM    4  O   UNL     1      41.279  -8.089   9.054  1.00  0.00    -0.246 OA
HETATM    5  H   UNL     1      42.558  -8.858   7.246  1.00  0.00     0.165 HD
HETATM    6  H   UNL     1      42.121 -10.911  10.053  1.00  0.00     0.192 HD
ENDROOT
BRANCH   1   7
HETATM    7  C   UNL     1      43.743 -10.489   7.947  1.00  0.00     0.122 C 
BRANCH   7   8
HETATM    8  C   UNL     1      43.465 -11.523   6.865  1.00  0.00    -0.035 A 
HETATM    9  C   UNL     1      43.125 -11.170   5.551  1.00  0.00     0.010 A 
HETATM   10  C   UNL     1      42.936 -12.151   4.573  1.00  0.00     0.007 A 
HETATM   11  C   UNL     1      43.081 -13.508   4.883  1.00  0.00    -0.059 A 
HETATM   12  C   UNL     1      43.415 -13.867   6.193  1.00  0.00     0.007 A 
HETATM   13  C   UNL     1      43.602 -12.887   7.172  1.00  0.00     0.010 A 
BRANCH  11  14
HETATM   14  C   UNL     1      42.928 -14.560   3.816  1.00  0.00     0.034 C 
HETATM   15  C   UNL     1      43.229 -14.008   2.431  1.00  0.00     0.010 C 
ENDBRANCH  11  14
ENDBRANCH   7   8
BRANCH   7  16
HETATM   16  C   UNL     1      45.157  -9.857   7.812  1.00  0.00     0.005 C 
HETATM   17  C   UNL     1      45.676  -9.204   9.098  1.00  0.00     0.012 C 
HETATM   18  C   UNL     1      46.171 -10.891   7.310  1.00  0.00     0.012 C 
ENDBRANCH   7  16
ENDBRANCH   1   7
BRANCH   3  19
HETATM   19  N   UNL     1      41.388  -9.572  11.330  1.00  0.00    -0.244 N 
HETATM   20  C   UNL     1      41.942  -8.845  12.345  1.00  0.00     0.086 A 
HETATM   21  C   UNL     1      40.958  -8.885  13.334  1.00  0.00     0.086 A 
HETATM   22  C   UNL     1      43.161  -8.178  12.504  1.00  0.00     0.034 A 
HETATM   23  C   UNL     1      41.185  -8.219  14.547  1.00  0.00     0.034 A 
HETATM   24  N   UNL     1      39.870  -9.630  12.930  1.00  0.00    -0.240 NA
HETATM   25  C   UNL     1      42.398  -7.540  14.729  1.00  0.00     0.002 A 
HETATM   26  C   UNL     1      43.367  -7.523  13.724  1.00  0.00     0.002 A 
HETATM   27  C   UNL     1      40.165 -10.033  11.711  1.00  0.00     0.234 A 
ENDBRANCH   3  19
TORSDOF 5
ENDMDL
MODEL 7
REMARK VINA RESULT:      -7.3      1.682      4.297
REMARK  5 active torsions:
REMARK  status: ('A' for Active; 'I' for Inactive)
REMARK    1  A    between atoms: C_2  and  C_3 
REMARK    2  A    between atoms: C_6  and  C_7 
REMARK    3  A    between atoms: C_7  and  N_8 
REMARK    4  A    between atoms: C_7  and  C_21 
REMARK       I    between atoms: N_8  and  C_9 
REMARK       I    between atoms: C_9  and  N_10 
REMARK    5  A    between atoms: N_10  and  N_11 
ROOT
HETATM    1  N   UNL     1      42.173 -14.021   1.283  1.00  0.00    -0.333 N 
HETATM    2  C   UNL     1      42.965 -14.916   1.931  1.00  0.00     0.335 C 
HETATM    3  N   UNL     1      42.429 -15.484   3.046  1.00  0.00    -0.244 N 
HETATM    4  O   UNL     1      44.074 -15.170   1.475  1.00  0.00    -0.246 OA
HETATM    5  H   UNL     1      42.634 -13.609   0.483  1.00  0.00     0.165 HD
HETATM    6  H   UNL     1      41.865 -14.902   3.648  1.00  0.00     0.192 HD
ENDROOT
BRANCH   1   7
HETATM    7  C   UNL     1      40.756 -13.737   1.490  1.00  0.00     0.122 C 
BRANCH   7   8
HETATM    8  C   UNL     1      40.526 -12.594   2.467  1.00  0.00    -0.035 A 
HETATM    9  C   UNL     1      39.380 -12.506   3.272  1.00  0.00     0.010 A 
HETATM   10  C   UNL     1      39.235 -11.471   4.200  1.00  0.00     0.007 A 
HETATM   11  C   UNL     1      40.230 -10.498   4.347  1.00  0.00    -0.059 A 
HETATM   12  C   UNL     1      41.374 -10.577   3.546  1.00  0.00     0.007 A 
HETATM   13  C   UNL     1      41.518 -11.611   2.616  1.00  0.00     0.010 A 
BRANCH  11  14
HETATM   14  C   UNL     1      40.096  -9.414   5.385  1.00  0.00     0.034 C 
HETATM   15  C   UNL     1      38.649  -8.982   5.567  1.00  0.00     0.010 C 
ENDBRANCH  11  14
ENDBRANCH   7   8
BRANCH   7  16
HETATM   16  C   UNL     1      40.002 -13.529   0.147  1.00  0.00     0.005 C 
HETATM   17  C   UNL     1      40.705 -12.577  -0.827  1.00  0.00     0.012 C 
HETATM   18  C   UNL     1      39.737 -14.873  -0.544  1.00  0.00     0.012 C 
ENDBRANCH   7  16
ENDBRANCH   1   7
BRANCH   3  19
HETATM   19  N   UNL     1      43.148 -16.422   3.703  1.00  0.00    -0.244 N 
HETATM   20  C   UNL     1      43.239 -17.723   3.296  1.00  0.00     0.086 A 
HETATM   21  C   UNL     1      43.924 -18.335   4.347  1.00  0.00     0.086 A 
HETATM   22  C   UNL     1      42.808 -18.414   2.158  1.00  0.00     0.034 A 
HETATM   23  C   UNL     1      44.210 -19.705   4.266  1.00  0.00     0.034 A 
HETATM   24  N   UNL     1      44.207 -17.435   5.353  1.00  0.00    -0.240 NA
HETATM   25  C   UNL     1      43.792 -20.418   3.135  1.00  0.00     0.002 A 
HETATM   26  C   UNL     1      43.101 -19.781   2.101  1.00  0.00     0.002 A 
HETATM   27  C   UNL     1      43.721 -16.286   4.931  1.00  0.00     0.234 A 
ENDBRANCH   3  19
TORSDOF 5
ENDMDL
MODEL 8
REMARK VINA RESULT:      -7.2      2.597      7.860
REMARK  5 active torsions:
REMARK  status: ('A' for Active; 'I' for Inactive)
REMARK    1  A    between atoms: C_2  and  C_3 
REMARK    2  A    between atoms: C_6  and  C_7 
REMARK    3  A    between atoms: C_7  and  N_8 
REMARK    4  A    between atoms: C_7  and  C_21 
REMARK       I    between atoms: N_8  and  C_9 
REMARK       I    between atoms: C_9  and  N_10 
REMARK    5  A    between atoms: N_10  and  N_11 
ROOT
HETATM    1  N   UNL     1      41.039 -14.626   4.244  1.00  0.00    -0.333 N 
HETATM    2  C   UNL     1      40.910 -13.395   4.805  1.00  0.00     0.335 C 
HETATM    3  N   UNL     1      41.881 -12.495   4.492  1.00  0.00    -0.244 N 
HETATM    4  O   UNL     1      39.943 -13.166   5.523  1.00  0.00    -0.246 OA
HETATM    5  H   UNL     1      40.309 -15.262   4.537  1.00  0.00     0.165 HD
HETATM    6  H   UNL     1      42.830 -12.830   4.418  1.00  0.00     0.192 HD
ENDROOT
BRANCH   1   7
HETATM    7  C   UNL     1      41.951 -15.058   3.189  1.00  0.00     0.122 C 
BRANCH   7   8
HETATM    8  C   UNL     1      42.619 -16.389   3.503  1.00  0.00    -0.035 A 
HETATM    9  C   UNL     1      43.035 -17.281   2.503  1.00  0.00     0.010 A 
HETATM   10  C   UNL     1      43.699 -18.466   2.833  1.00  0.00     0.007 A 
HETATM   11  C   UNL     1      43.964 -18.790   4.169  1.00  0.00    -0.059 A 
HETATM   12  C   UNL     1      43.549 -17.907   5.171  1.00  0.00     0.007 A 
HETATM   13  C   UNL     1      42.883 -16.722   4.842  1.00  0.00     0.010 A 
BRANCH  11  14
HETATM   14  C   UNL     1      44.725 -20.041   4.519  1.00  0.00     0.034 C 
HETATM   15  C   UNL     1      43.909 -20.970   5.406  1.00  0.00     0.010 C 
ENDBRANCH  11  14
ENDBRANCH   7   8
BRANCH   7  16
HETATM   16  C   UNL     1      41.271 -15.052   1.792  1.00  0.00     0.005 C 
HETATM   17  C   UNL     1      39.804 -15.494   1.807  1.00  0.00     0.012 C 
HETATM   18  C   UNL     1      41.390 -13.672   1.133  1.00  0.00     0.012 C 
ENDBRANCH   7  16
ENDBRANCH   1   7
BRANCH   3  19
HETATM   19  N   UNL     1      41.778 -11.237   4.977  1.00  0.00    -0.244 N 
HETATM   20  C   UNL     1      41.285 -10.188   4.254  1.00  0.00     0.086 A 
HETATM   21  C   UNL     1      41.526  -9.092   5.083  1.00  0.00     0.086 A 
HETATM   22  C   UNL     1      40.674 -10.080   2.999  1.00  0.00     0.034 A 
HETATM   23  C   UNL     1      41.132  -7.816   4.656  1.00  0.00     0.034 A 
HETATM   24  N   UNL     1      42.162  -9.472   6.246  1.00  0.00    -0.240 NA
HETATM   25  C   UNL     1      40.514  -7.682   3.405  1.00  0.00     0.002 A 
HETATM   26  C   UNL     1      40.293  -8.796   2.592  1.00  0.00     0.002 A 
HETATM   27  C   UNL     1      42.301 -10.779   6.148  1.00  0.00     0.234 A 
ENDBRANCH   3  19
TORSDOF 5
ENDMDL
MODEL 9
REMARK VINA RESULT:      -7.0      6.300      9.561
REMARK  5 active torsions:
REMARK  status: ('A' for Active; 'I' for Inactive)
REMARK    1  A    between atoms: C_2  and  C_3 
REMARK    2  A    between atoms: C_6  and  C_7 
REMARK    3  A    between atoms: C_7  and  N_8 
REMARK    4  A    between atoms: C_7  and  C_21 
REMARK       I    between atoms: N_8  and  C_9 
REMARK       I    between atoms: C_9  and  N_10 
REMARK    5  A    between atoms: N_10  and  N_11 
ROOT
HETATM    1  N   UNL     1      43.795 -10.395   8.001  1.00  0.00    -0.333 N 
HETATM    2  C   UNL     1      43.888 -11.459   7.160  1.00  0.00     0.335 C 
HETATM    3  N   UNL     1      42.712 -12.054   6.823  1.00  0.00    -0.244 N 
HETATM    4  O   UNL     1      44.992 -11.796   6.746  1.00  0.00    -0.246 OA
HETATM    5  H   UNL     1      44.700 -10.013   8.241  1.00  0.00     0.165 HD
HETATM    6  H   UNL     1      42.004 -12.139   7.538  1.00  0.00     0.192 HD
ENDROOT
BRANCH   1   7
HETATM    7  C   UNL     1      42.602  -9.670   8.429  1.00  0.00     0.122 C 
BRANCH   7   8
HETATM    8  C   UNL     1      42.603  -9.373   9.921  1.00  0.00    -0.035 A 
HETATM    9  C   UNL     1      43.773  -9.059  10.629  1.00  0.00     0.010 A 
HETATM   10  C   UNL     1      43.721  -8.734  11.988  1.00  0.00     0.007 A 
HETATM   11  C   UNL     1      42.501  -8.714  12.673  1.00  0.00    -0.059 A 
HETATM   12  C   UNL     1      41.331  -9.029  11.974  1.00  0.00     0.007 A 
HETATM   13  C   UNL     1      41.382  -9.357  10.616  1.00  0.00     0.010 A 
BRANCH  11  14
HETATM   14  C   UNL     1      42.441  -8.312  14.123  1.00  0.00     0.034 C 
HETATM   15  C   UNL     1      43.165  -6.998  14.376  1.00  0.00     0.010 C 
ENDBRANCH  11  14
ENDBRANCH   7   8
BRANCH   7  16
HETATM   16  C   UNL     1      42.355  -8.398   7.571  1.00  0.00     0.005 C 
HETATM   17  C   UNL     1      40.888  -8.178   7.184  1.00  0.00     0.012 C 
HETATM   18  C   UNL     1      42.897  -7.150   8.277  1.00  0.00     0.012 C 
ENDBRANCH   7  16
ENDBRANCH   1   7
BRANCH   3  19
HETATM   19  N   UNL     1      42.736 -13.084   5.947  1.00  0.00    -0.244 N 
HETATM   20  C   UNL     1      42.924 -14.384   6.319  1.00  0.00     0.086 A 
HETATM   21  C   UNL     1      43.041 -15.048   5.097  1.00  0.00     0.086 A 
HETATM   22  C   UNL     1      43.004 -15.036   7.555  1.00  0.00     0.034 A 
HETATM   23  C   UNL     1      43.238 -16.437   5.092  1.00  0.00     0.034 A 
HETATM   24  N   UNL     1      42.952 -14.169   4.037  1.00  0.00    -0.240 NA
HETATM   25  C   UNL     1      43.318 -17.112   6.318  1.00  0.00     0.002 A 
HETATM   26  C   UNL     1      43.205 -16.421   7.526  1.00  0.00     0.002 A 
HETATM   27  C   UNL     1      42.769 -12.987   4.589  1.00  0.00     0.234 A 
ENDBRANCH   3  19
TORSDOF 5
ENDMDL
MODEL 10
REMARK VINA RESULT:      -6.9      3.796      7.335
REMARK  5 active torsions:
REMARK  status: ('A' for Active; 'I' for Inactive)
REMARK    1  A    between atoms: C_2  and  C_3 
REMARK    2  A    between atoms: C_6  and  C_7 
REMARK    3  A    between atoms: C_7  and  N_8 
REMARK    4  A    between atoms: C_7  and  C_21 
REMARK       I    between atoms: N_8  and  C_9 
REMARK       I    between atoms: C_9  and  N_10 
REMARK    5  A    between atoms: N_10  and  N_11 
ROOT
HETATM    1  N   UNL     1      40.734 -12.734   4.535  1.00  0.00    -0.333 N 
HETATM    2  C   UNL     1      41.023 -11.796   5.475  1.00  0.00     0.335 C 
HETATM    3  N   UNL     1      42.143 -11.056   5.250  1.00  0.00    -0.244 N 
HETATM    4  O   UNL     1      40.269 -11.659   6.432  1.00  0.00    -0.246 OA
HETATM    5  H   UNL     1      39.911 -13.273   4.770  1.00  0.00     0.165 HD
HETATM    6  H   UNL     1      42.946 -11.522   4.855  1.00  0.00     0.192 HD
ENDROOT
BRANCH   1   7
HETATM    7  C   UNL     1      41.331 -12.920   3.216  1.00  0.00     0.122 C 
BRANCH   7   8
HETATM    8  C   UNL     1      41.823 -14.343   2.994  1.00  0.00    -0.035 A 
HETATM    9  C   UNL     1      41.120 -15.467   3.453  1.00  0.00     0.010 A 
HETATM   10  C   UNL     1      41.577 -16.759   3.175  1.00  0.00     0.007 A 
HETATM   11  C   UNL     1      42.746 -16.960   2.433  1.00  0.00    -0.059 A 
HETATM   12  C   UNL     1      43.454 -15.844   1.976  1.00  0.00     0.007 A 
HETATM   13  C   UNL     1      43.000 -14.552   2.255  1.00  0.00     0.010 A 
BRANCH  11  14
HETATM   14  C   UNL     1      43.208 -18.353   2.090  1.00  0.00     0.034 C 
HETATM   15  C   UNL     1      43.939 -19.007   3.253  1.00  0.00     0.010 C 
ENDBRANCH  11  14
ENDBRANCH   7   8
BRANCH   7  16
HETATM   16  C   UNL     1      40.393 -12.433   2.077  1.00  0.00     0.005 C 
HETATM   17  C   UNL     1      40.629 -13.127   0.731  1.00  0.00     0.012 C 
HETATM   18  C   UNL     1      38.921 -12.577   2.483  1.00  0.00     0.012 C 
ENDBRANCH   7  16
ENDBRANCH   1   7
BRANCH   3  19
HETATM   19  N   UNL     1      42.453 -10.070   6.123  1.00  0.00    -0.244 N 
HETATM   20  C   UNL     1      43.478 -10.157   7.022  1.00  0.00     0.086 A 
HETATM   21  C   UNL     1      43.311  -9.011   7.801  1.00  0.00     0.086 A 
HETATM   22  C   UNL     1      44.502 -11.085   7.237  1.00  0.00     0.034 A 
HETATM   23  C   UNL     1      44.213  -8.760   8.845  1.00  0.00     0.034 A 
HETATM   24  N   UNL     1      42.211  -8.284   7.396  1.00  0.00    -0.240 NA
HETATM   25  C   UNL     1      45.250  -9.674   9.077  1.00  0.00     0.002 A 
HETATM   26  C   UNL     1      45.388 -10.817   8.286  1.00  0.00     0.002 A 
HETATM   27  C   UNL     1      41.714  -8.955   6.378  1.00  0.00     0.234 A 
ENDBRANCH   3  19
TORSDOF 5
ENDMDL
