MODEL 1
REMARK VINA RESULT:      -7.5      0.000      0.000
REMARK  6 active torsions:
REMARK  status: ('A' for Active; 'I' for Inactive)
REMARK    1  A    between atoms: C_4  and  C_5 
REMARK       I    between atoms: C_5  and  N_6 
REMARK    2  A    between atoms: N_6  and  C_7 
REMARK    3  A    between atoms: C_15  and  C_16 
REMARK       I    between atoms: C_16  and  N_17 
REMARK    4  A    between atoms: N_17  and  C_18 
REMARK    5  A    between atoms: C_18  and  C_19 
REMARK    6  A    between atoms: C_19  and  N_20 
ROOT
HETATM    1  C   UNL     1      43.331 -16.273   4.714  1.00  0.00     0.093 A 
HETATM    2  S   UNL     1      43.893 -17.529   5.707  1.00  0.00    -0.075 SA
HETATM    3  C   UNL     1      43.840 -18.650   4.445  1.00  0.00    -0.008 A 
HETATM    4  C   UNL     1      43.440 -18.090   3.244  1.00  0.00    -0.026 A 
HETATM    5  C   UNL     1      43.297 -18.964   2.024  1.00  0.00     0.041 C 
HETATM    6  C   UNL     1      43.202 -20.456   2.374  1.00  0.00     0.005 C 
HETATM    7  C   UNL     1      44.288 -20.862   3.377  1.00  0.00     0.005 C 
HETATM    8  C   UNL     1      44.137 -20.099   4.697  1.00  0.00     0.047 C 
HETATM    9  C   UNL     1      43.195 -16.659   3.380  1.00  0.00     0.073 A 
ENDROOT
BRANCH   1  10
HETATM   10  N   UNL     1      42.991 -15.042   5.267  1.00  0.00    -0.316 N 
HETATM   11  C   UNL     1      41.709 -14.524   5.384  1.00  0.00     0.256 C 
HETATM   12  O   UNL     1      40.669 -15.169   5.296  1.00  0.00    -0.267 OA
HETATM   13  H   UNL     1      43.781 -14.480   5.551  1.00  0.00     0.169 HD
BRANCH  11  14
HETATM   14  C   UNL     1      41.597 -13.055   5.668  1.00  0.00     0.032 A 
HETATM   15  C   UNL     1      40.384 -12.354   5.709  1.00  0.00     0.017 A 
HETATM   16  C   UNL     1      40.371 -10.988   6.016  1.00  0.00     0.001 A 
HETATM   17  C   UNL     1      41.562 -10.314   6.280  1.00  0.00     0.000 A 
HETATM   18  C   UNL     1      42.772 -10.998   6.234  1.00  0.00     0.001 A 
HETATM   19  C   UNL     1      42.790 -12.359   5.928  1.00  0.00     0.017 A 
ENDBRANCH  11  14
ENDBRANCH   1  10
BRANCH   9  20
HETATM   20  C   UNL     1      42.826 -15.681   2.351  1.00  0.00     0.255 C 
HETATM   21  N   UNL     1      41.591 -15.825   1.755  1.00  0.00    -0.355 N 
HETATM   22  H   UNL     1      41.002 -16.571   2.101  1.00  0.00     0.162 HD
HETATM   23  O   UNL     1      43.608 -14.832   1.915  1.00  0.00    -0.268 OA
BRANCH  21  24
HETATM   24  C   UNL     1      40.916 -14.769   1.006  1.00  0.00     0.150 C 
BRANCH  24  25
HETATM   25  C   UNL     1      40.166 -13.693   1.814  1.00  0.00     0.249 C 
BRANCH  25  26
HETATM   26  N   UNL     1      39.141 -14.300   2.697  1.00  0.00    -0.078 N 
HETATM   27  H   UNL     1      38.380 -13.606   2.807  1.00  0.00     0.274 HD
HETATM   28  H   UNL     1      38.724 -15.153   2.306  1.00  0.00     0.274 HD
HETATM   29  H   UNL     1      39.500 -14.502   3.638  1.00  0.00     0.274 HD
ENDBRANCH  25  26
ENDBRANCH  24  25
ENDBRANCH  21  24
ENDBRANCH   9  20
TORSDOF 6
ENDMDL
MODEL 2
REMARK VINA RESULT:      -7.5      2.372      7.123
REMARK  6 active torsions:
REMARK  status: ('A' for Active; 'I' for Inactive)
REMARK    1  A    between atoms: C_4  and  C_5 
REMARK       I    between atoms: C_5  and  N_6 
REMARK    2  A    between atoms: N_6  and  C_7 
REMARK    3  A    between atoms: C_15  and  C_16 
REMARK       I    between atoms: C_16  and  N_17 
REMARK    4  A    between atoms: N_17  and  C_18 
REMARK    5  A    between atoms: C_18  and  C_19 
REMARK    6  A    between atoms: C_19  and  N_20 
ROOT
HETATM    1  C   UNL     1      40.887 -15.115   2.320  1.00  0.00     0.093 A 
HETATM    2  S   UNL     1      40.637 -14.848   0.663  1.00  0.00    -0.075 SA
HETATM    3  C   UNL     1      39.802 -13.407   0.945  1.00  0.00    -0.008 A 
HETATM    4  C   UNL     1      39.732 -13.079   2.289  1.00  0.00    -0.026 A 
HETATM    5  C   UNL     1      38.981 -11.845   2.718  1.00  0.00     0.041 C 
HETATM    6  C   UNL     1      38.018 -11.334   1.636  1.00  0.00     0.005 C 
HETATM    7  C   UNL     1      38.703 -11.271   0.267  1.00  0.00     0.005 C 
HETATM    8  C   UNL     1      39.164 -12.659  -0.188  1.00  0.00     0.047 C 
HETATM    9  C   UNL     1      40.431 -14.060   3.112  1.00  0.00     0.073 A 
ENDROOT
BRANCH   1  10
HETATM   10  N   UNL     1      41.423 -16.321   2.762  1.00  0.00    -0.316 N 
HETATM   11  C   UNL     1      42.729 -16.533   3.175  1.00  0.00     0.256 C 
HETATM   12  O   UNL     1      43.527 -15.658   3.495  1.00  0.00    -0.267 OA
HETATM   13  H   UNL     1      40.784 -17.103   2.713  1.00  0.00     0.169 HD
BRANCH  11  14
HETATM   14  C   UNL     1      43.188 -17.959   3.260  1.00  0.00     0.032 A 
HETATM   15  C   UNL     1      43.827 -18.513   4.379  1.00  0.00     0.017 A 
HETATM   16  C   UNL     1      44.191 -19.864   4.384  1.00  0.00     0.001 A 
HETATM   17  C   UNL     1      43.925 -20.670   3.278  1.00  0.00     0.000 A 
HETATM   18  C   UNL     1      43.300 -20.129   2.159  1.00  0.00     0.001 A 
HETATM   19  C   UNL     1      42.936 -18.782   2.150  1.00  0.00     0.017 A 
ENDBRANCH  11  14
ENDBRANCH   1  10
BRANCH   9  20
HETATM   20  C   UNL     1      40.657 -14.059   4.561  1.00  0.00     0.255 C 
HETATM   21  N   UNL     1      40.078 -15.073   5.293  1.00  0.00    -0.355 N 
HETATM   22  H   UNL     1      39.571 -15.778   4.774  1.00  0.00     0.162 HD
HETATM   23  O   UNL     1      41.224 -13.137   5.155  1.00  0.00    -0.268 OA
BRANCH  21  24
HETATM   24  C   UNL     1      40.485 -15.441   6.646  1.00  0.00     0.150 C 
BRANCH  24  25
HETATM   25  C   UNL     1      41.808 -16.212   6.805  1.00  0.00     0.249 C 
BRANCH  25  26
HETATM   26  N   UNL     1      42.977 -15.313   6.648  1.00  0.00    -0.078 N 
HETATM   27  H   UNL     1      42.673 -14.362   6.924  1.00  0.00     0.274 HD
HETATM   28  H   UNL     1      43.767 -15.568   7.251  1.00  0.00     0.274 HD
HETATM   29  H   UNL     1      43.301 -15.254   5.676  1.00  0.00     0.274 HD
ENDBRANCH  25  26
ENDBRANCH  24  25
ENDBRANCH  21  24
ENDBRANCH   9  20
TORSDOF 6
ENDMDL
MODEL 3
REMARK VINA RESULT:      -7.4      2.300      6.791
REMARK  6 active torsions:
REMARK  status: ('A' for Active; 'I' for Inactive)
REMARK    1  A    between atoms: C_4  and  C_5 
REMARK       I    between atoms: C_5  and  N_6 
REMARK    2  A    between atoms: N_6  and  C_7 
REMARK    3  A    between atoms: C_15  and  C_16 
REMARK       I    between atoms: C_16  and  N_17 
REMARK    4  A    between atoms: N_17  and  C_18 
REMARK    5  A    between atoms: C_18  and  C_19 
REMARK    6  A    between atoms: C_19  and  N_20 
ROOT
HETATM    1  C   UNL     1      40.883 -14.334   4.349  1.00  0.00     0.093 A 
HETATM    2  S   UNL     1      40.951 -13.254   5.656  1.00  0.00    -0.075 SA
HETATM    3  C   UNL     1      40.023 -12.099   4.846  1.00  0.00    -0.008 A 
HETATM    4  C   UNL     1      39.609 -12.522   3.594  1.00  0.00    -0.026 A 
HETATM    5  C   UNL     1      38.809 -11.592   2.719  1.00  0.00     0.041 C 
HETATM    6  C   UNL     1      38.918 -10.125   3.161  1.00  0.00     0.005 C 
HETATM    7  C   UNL     1      38.709  -9.984   4.672  1.00  0.00     0.005 C 
HETATM    8  C   UNL     1      39.781 -10.750   5.455  1.00  0.00     0.047 C 
HETATM    9  C   UNL     1      40.065 -13.879   3.315  1.00  0.00     0.073 A 
ENDROOT
BRANCH   1  10
HETATM   10  N   UNL     1      41.656 -15.492   4.356  1.00  0.00    -0.316 N 
HETATM   11  C   UNL     1      42.742 -15.755   3.535  1.00  0.00     0.256 C 
HETATM   12  O   UNL     1      43.369 -14.919   2.892  1.00  0.00    -0.267 OA
HETATM   13  H   UNL     1      41.333 -16.205   4.996  1.00  0.00     0.169 HD
BRANCH  11  14
HETATM   14  C   UNL     1      43.198 -17.182   3.454  1.00  0.00     0.032 A 
HETATM   15  C   UNL     1      43.937 -17.829   4.455  1.00  0.00     0.017 A 
HETATM   16  C   UNL     1      44.292 -19.175   4.310  1.00  0.00     0.001 A 
HETATM   17  C   UNL     1      43.916 -19.883   3.169  1.00  0.00     0.000 A 
HETATM   18  C   UNL     1      43.190 -19.250   2.166  1.00  0.00     0.001 A 
HETATM   19  C   UNL     1      42.835 -17.907   2.307  1.00  0.00     0.017 A 
ENDBRANCH  11  14
ENDBRANCH   1  10
BRANCH   9  20
HETATM   20  C   UNL     1      39.794 -14.724   2.146  1.00  0.00     0.255 C 
HETATM   21  N   UNL     1      39.721 -14.101   0.918  1.00  0.00    -0.355 N 
HETATM   22  H   UNL     1      39.904 -13.106   0.899  1.00  0.00     0.162 HD
HETATM   23  O   UNL     1      39.509 -15.921   2.231  1.00  0.00    -0.268 OA
BRANCH  21  24
HETATM   24  C   UNL     1      39.831 -14.798  -0.360  1.00  0.00     0.150 C 
BRANCH  24  25
HETATM   25  C   UNL     1      39.139 -14.159  -1.579  1.00  0.00     0.249 C 
BRANCH  25  26
HETATM   26  N   UNL     1      38.518 -15.189  -2.447  1.00  0.00    -0.078 N 
HETATM   27  H   UNL     1      38.057 -15.877  -1.826  1.00  0.00     0.274 HD
HETATM   28  H   UNL     1      37.797 -14.809  -3.071  1.00  0.00     0.274 HD
HETATM   29  H   UNL     1      39.209 -15.704  -3.004  1.00  0.00     0.274 HD
ENDBRANCH  25  26
ENDBRANCH  24  25
ENDBRANCH  21  24
ENDBRANCH   9  20
TORSDOF 6
ENDMDL
MODEL 4
REMARK VINA RESULT:      -7.3      2.725      7.025
REMARK  6 active torsions:
REMARK  status: ('A' for Active; 'I' for Inactive)
REMARK    1  A    between atoms: C_4  and  C_5 
REMARK       I    between atoms: C_5  and  N_6 
REMARK    2  A    between atoms: N_6  and  C_7 
REMARK    3  A    between atoms: C_15  and  C_16 
REMARK       I    between atoms: C_16  and  N_17 
REMARK    4  A    between atoms: N_17  and  C_18 
REMARK    5  A    between atoms: C_18  and  C_19 
REMARK    6  A    between atoms: C_19  and  N_20 
ROOT
HETATM    1  C   UNL     1      40.773 -14.126   1.351  1.00  0.00     0.093 A 
HETATM    2  S   UNL     1      40.224 -14.001  -0.250  1.00  0.00    -0.075 SA
HETATM    3  C   UNL     1      39.174 -12.735   0.130  1.00  0.00    -0.008 A 
HETATM    4  C   UNL     1      39.248 -12.354   1.459  1.00  0.00    -0.026 A 
HETATM    5  C   UNL     1      38.342 -11.266   1.976  1.00  0.00     0.041 C 
HETATM    6  C   UNL     1      37.142 -11.009   1.052  1.00  0.00     0.005 C 
HETATM    7  C   UNL     1      37.583 -10.888  -0.411  1.00  0.00     0.005 C 
HETATM    8  C   UNL     1      38.235 -12.185  -0.902  1.00  0.00     0.047 C 
HETATM    9  C   UNL     1      40.245 -13.137   2.181  1.00  0.00     0.073 A 
ENDROOT
BRANCH   1  10
HETATM   10  N   UNL     1      41.599 -15.181   1.728  1.00  0.00    -0.316 N 
HETATM   11  C   UNL     1      41.305 -16.151   2.675  1.00  0.00     0.256 C 
HETATM   12  O   UNL     1      40.187 -16.408   3.109  1.00  0.00    -0.267 OA
HETATM   13  H   UNL     1      42.508 -15.177   1.287  1.00  0.00     0.169 HD
BRANCH  11  14
HETATM   14  C   UNL     1      42.457 -16.966   3.186  1.00  0.00     0.032 A 
HETATM   15  C   UNL     1      43.153 -16.686   4.369  1.00  0.00     0.017 A 
HETATM   16  C   UNL     1      44.196 -17.522   4.788  1.00  0.00     0.001 A 
HETATM   17  C   UNL     1      44.550 -18.637   4.031  1.00  0.00     0.000 A 
HETATM   18  C   UNL     1      43.872 -18.921   2.851  1.00  0.00     0.001 A 
HETATM   19  C   UNL     1      42.833 -18.089   2.430  1.00  0.00     0.017 A 
ENDBRANCH  11  14
ENDBRANCH   1  10
BRANCH   9  20
HETATM   20  C   UNL     1      40.686 -13.014   3.575  1.00  0.00     0.255 C 
HETATM   21  N   UNL     1      39.774 -13.332   4.558  1.00  0.00    -0.355 N 
HETATM   22  H   UNL     1      38.872 -13.674   4.250  1.00  0.00     0.162 HD
HETATM   23  O   UNL     1      41.773 -12.526   3.898  1.00  0.00    -0.268 OA
BRANCH  21  24
HETATM   24  C   UNL     1      40.132 -13.623   5.943  1.00  0.00     0.150 C 
BRANCH  24  25
HETATM   25  C   UNL     1      40.748 -15.002   6.242  1.00  0.00     0.249 C 
BRANCH  25  26
HETATM   26  N   UNL     1      39.771 -16.092   6.001  1.00  0.00    -0.078 N 
HETATM   27  H   UNL     1      39.377 -16.361   6.920  1.00  0.00     0.274 HD
HETATM   28  H   UNL     1      38.988 -15.808   5.403  1.00  0.00     0.274 HD
HETATM   29  H   UNL     1      40.209 -16.933   5.606  1.00  0.00     0.274 HD
ENDBRANCH  25  26
ENDBRANCH  24  25
ENDBRANCH  21  24
ENDBRANCH   9  20
TORSDOF 6
ENDMDL
MODEL 5
REMARK VINA RESULT:      -7.3      2.185      7.336
REMARK  6 active torsions:
REMARK  status: ('A' for Active; 'I' for Inactive)
REMARK    1  A    between atoms: C_4  and  C_5 
REMARK       I    between atoms: C_5  and  N_6 
REMARK    2  A    between atoms: N_6  and  C_7 
REMARK    3  A    between atoms: C_15  and  C_16 
REMARK       I    between atoms: C_16  and  N_17 
REMARK    4  A    between atoms: N_17  and  C_18 
REMARK    5  A    between atoms: C_18  and  C_19 
REMARK    6  A    between atoms: C_19  and  N_20 
ROOT
HETATM    1  C   UNL     1      41.679 -14.763   3.827  1.00  0.00     0.093 A 
HETATM    2  S   UNL     1      40.486 -14.558   2.638  1.00  0.00    -0.075 SA
HETATM    3  C   UNL     1      40.041 -13.045   3.241  1.00  0.00    -0.008 A 
HETATM    4  C   UNL     1      40.810 -12.648   4.322  1.00  0.00    -0.026 A 
HETATM    5  C   UNL     1      40.513 -11.339   5.008  1.00  0.00     0.041 C 
HETATM    6  C   UNL     1      39.110 -10.807   4.684  1.00  0.00     0.005 C 
HETATM    7  C   UNL     1      38.828 -10.863   3.179  1.00  0.00     0.005 C 
HETATM    8  C   UNL     1      38.873 -12.305   2.659  1.00  0.00     0.047 C 
HETATM    9  C   UNL     1      41.831 -13.640   4.639  1.00  0.00     0.073 A 
ENDROOT
BRANCH   1  10
HETATM   10  N   UNL     1      42.332 -15.986   3.960  1.00  0.00    -0.316 N 
HETATM   11  C   UNL     1      43.114 -16.604   2.995  1.00  0.00     0.256 C 
HETATM   12  O   UNL     1      43.590 -16.058   2.005  1.00  0.00    -0.267 OA
HETATM   13  H   UNL     1      42.154 -16.460   4.834  1.00  0.00     0.169 HD
BRANCH  11  14
HETATM   14  C   UNL     1      43.418 -18.059   3.203  1.00  0.00     0.032 A 
HETATM   15  C   UNL     1      43.944 -18.589   4.390  1.00  0.00     0.017 A 
HETATM   16  C   UNL     1      44.166 -19.966   4.508  1.00  0.00     0.001 A 
HETATM   17  C   UNL     1      43.869 -20.821   3.448  1.00  0.00     0.000 A 
HETATM   18  C   UNL     1      43.355 -20.305   2.263  1.00  0.00     0.001 A 
HETATM   19  C   UNL     1      43.133 -18.932   2.141  1.00  0.00     0.017 A 
ENDBRANCH  11  14
ENDBRANCH   1  10
BRANCH   9  20
HETATM   20  C   UNL     1      42.889 -13.586   5.655  1.00  0.00     0.255 C 
HETATM   21  N   UNL     1      43.770 -12.527   5.597  1.00  0.00    -0.355 N 
HETATM   22  H   UNL     1      43.600 -11.832   4.881  1.00  0.00     0.162 HD
HETATM   23  O   UNL     1      43.095 -14.496   6.463  1.00  0.00    -0.268 OA
BRANCH  21  24
HETATM   24  C   UNL     1      44.626 -12.114   6.705  1.00  0.00     0.150 C 
BRANCH  24  25
HETATM   25  C   UNL     1      44.288 -10.786   7.406  1.00  0.00     0.249 C 
BRANCH  25  26
HETATM   26  N   UNL     1      43.480 -11.012   8.628  1.00  0.00    -0.078 N 
HETATM   27  H   UNL     1      42.501 -10.764   8.400  1.00  0.00     0.274 HD
HETATM   28  H   UNL     1      43.483 -11.990   8.939  1.00  0.00     0.274 HD
HETATM   29  H   UNL     1      43.768 -10.410   9.408  1.00  0.00     0.274 HD
ENDBRANCH  25  26
ENDBRANCH  24  25
ENDBRANCH  21  24
ENDBRANCH   9  20
TORSDOF 6
ENDMDL
MODEL 6
REMARK VINA RESULT:      -7.1      1.934      6.940
REMARK  6 active torsions:
REMARK  status: ('A' for Active; 'I' for Inactive)
REMARK    1  A    between atoms: C_4  and  C_5 
REMARK       I    between atoms: C_5  and  N_6 
REMARK    2  A    between atoms: N_6  and  C_7 
REMARK    3  A    between atoms: C_15  and  C_16 
REMARK       I    between atoms: C_16  and  N_17 
REMARK    4  A    between atoms: N_17  and  C_18 
REMARK    5  A    between atoms: C_18  and  C_19 
REMARK    6  A    between atoms: C_19  and  N_20 
ROOT
HETATM    1  C   UNL     1      42.881 -13.166   5.817  1.00  0.00     0.093 A 
HETATM    2  S   UNL     1      44.240 -12.623   6.675  1.00  0.00    -0.075 SA
HETATM    3  C   UNL     1      43.493 -11.163   7.080  1.00  0.00    -0.008 A 
HETATM    4  C   UNL     1      42.193 -11.076   6.612  1.00  0.00    -0.026 A 
HETATM    5  C   UNL     1      41.398  -9.817   6.848  1.00  0.00     0.041 C 
HETATM    6  C   UNL     1      42.286  -8.617   7.210  1.00  0.00     0.005 C 
HETATM    7  C   UNL     1      43.308  -8.988   8.291  1.00  0.00     0.005 C 
HETATM    8  C   UNL     1      44.253 -10.092   7.805  1.00  0.00     0.047 C 
HETATM    9  C   UNL     1      41.798 -12.293   5.911  1.00  0.00     0.073 A 
ENDROOT
BRANCH   1  10
HETATM   10  N   UNL     1      42.951 -14.332   5.059  1.00  0.00    -0.316 N 
HETATM   11  C   UNL     1      42.733 -15.622   5.520  1.00  0.00     0.256 C 
HETATM   12  O   UNL     1      42.168 -15.919   6.567  1.00  0.00    -0.267 OA
HETATM   13  H   UNL     1      43.242 -14.189   4.102  1.00  0.00     0.169 HD
BRANCH  11  14
HETATM   14  C   UNL     1      43.210 -16.742   4.643  1.00  0.00     0.032 A 
HETATM   15  C   UNL     1      44.119 -17.728   5.054  1.00  0.00     0.017 A 
HETATM   16  C   UNL     1      44.484 -18.757   4.179  1.00  0.00     0.001 A 
HETATM   17  C   UNL     1      43.949 -18.810   2.892  1.00  0.00     0.000 A 
HETATM   18  C   UNL     1      43.053 -17.833   2.471  1.00  0.00     0.001 A 
HETATM   19  C   UNL     1      42.688 -16.805   3.341  1.00  0.00     0.017 A 
ENDBRANCH  11  14
ENDBRANCH   1  10
BRANCH   9  20
HETATM   20  C   UNL     1      40.499 -12.642   5.326  1.00  0.00     0.255 C 
HETATM   21  N   UNL     1      40.277 -12.280   4.014  1.00  0.00    -0.355 N 
HETATM   22  H   UNL     1      41.045 -11.835   3.528  1.00  0.00     0.162 HD
HETATM   23  O   UNL     1      39.570 -13.122   5.982  1.00  0.00    -0.268 OA
BRANCH  21  24
HETATM   24  C   UNL     1      39.230 -12.853   3.173  1.00  0.00     0.150 C 
BRANCH  24  25
HETATM   25  C   UNL     1      39.659 -13.869   2.099  1.00  0.00     0.249 C 
BRANCH  25  26
HETATM   26  N   UNL     1      39.266 -15.249   2.475  1.00  0.00    -0.078 N 
HETATM   27  H   UNL     1      40.082 -15.683   2.943  1.00  0.00     0.274 HD
HETATM   28  H   UNL     1      38.481 -15.280   3.135  1.00  0.00     0.274 HD
HETATM   29  H   UNL     1      39.044 -15.831   1.659  1.00  0.00     0.274 HD
ENDBRANCH  25  26
ENDBRANCH  24  25
ENDBRANCH  21  24
ENDBRANCH   9  20
TORSDOF 6
ENDMDL
MODEL 7
REMARK VINA RESULT:      -6.9      2.753      7.774
REMARK  6 active torsions:
REMARK  status: ('A' for Active; 'I' for Inactive)
REMARK    1  A    between atoms: C_4  and  C_5 
REMARK       I    between atoms: C_5  and  N_6 
REMARK    2  A    between atoms: N_6  and  C_7 
REMARK    3  A    between atoms: C_15  and  C_16 
REMARK       I    between atoms: C_16  and  N_17 
REMARK    4  A    between atoms: N_17  and  C_18 
REMARK    5  A    between atoms: C_18  and  C_19 
REMARK    6  A    between atoms: C_19  and  N_20 
ROOT
HETATM    1  C   UNL     1      41.679 -12.859   4.843  1.00  0.00     0.093 A 
HETATM    2  S   UNL     1      39.982 -12.828   4.839  1.00  0.00    -0.075 SA
HETATM    3  C   UNL     1      39.937 -11.211   5.322  1.00  0.00    -0.008 A 
HETATM    4  C   UNL     1      41.197 -10.652   5.454  1.00  0.00    -0.026 A 
HETATM    5  C   UNL     1      41.336  -9.227   5.923  1.00  0.00     0.041 C 
HETATM    6  C   UNL     1      40.065  -8.704   6.609  1.00  0.00     0.005 C 
HETATM    7  C   UNL     1      38.814  -9.029   5.785  1.00  0.00     0.005 C 
HETATM    8  C   UNL     1      38.630 -10.543   5.631  1.00  0.00     0.047 C 
HETATM    9  C   UNL     1      42.241 -11.610   5.110  1.00  0.00     0.073 A 
ENDROOT
BRANCH   1  10
HETATM   10  N   UNL     1      42.358 -14.062   4.670  1.00  0.00    -0.316 N 
HETATM   11  C   UNL     1      42.723 -14.628   3.458  1.00  0.00     0.256 C 
HETATM   12  O   UNL     1      42.773 -14.039   2.382  1.00  0.00    -0.267 OA
HETATM   13  H   UNL     1      42.538 -14.566   5.527  1.00  0.00     0.169 HD
BRANCH  11  14
HETATM   14  C   UNL     1      43.114 -16.076   3.479  1.00  0.00     0.032 A 
HETATM   15  C   UNL     1      42.973 -16.943   2.385  1.00  0.00     0.017 A 
HETATM   16  C   UNL     1      43.396 -18.274   2.483  1.00  0.00     0.001 A 
HETATM   17  C   UNL     1      43.956 -18.749   3.668  1.00  0.00     0.000 A 
HETATM   18  C   UNL     1      44.092 -17.901   4.762  1.00  0.00     0.001 A 
HETATM   19  C   UNL     1      43.671 -16.574   4.668  1.00  0.00     0.017 A 
ENDBRANCH  11  14
ENDBRANCH   1  10
BRANCH   9  20
HETATM   20  C   UNL     1      43.694 -11.413   5.049  1.00  0.00     0.255 C 
HETATM   21  N   UNL     1      44.342 -11.113   6.228  1.00  0.00    -0.355 N 
HETATM   22  H   UNL     1      43.777 -11.093   7.067  1.00  0.00     0.162 HD
HETATM   23  O   UNL     1      44.326 -11.380   3.989  1.00  0.00    -0.268 OA
BRANCH  21  24
HETATM   24  C   UNL     1      45.782 -11.248   6.427  1.00  0.00     0.150 C 
BRANCH  24  25
HETATM   25  C   UNL     1      46.370 -10.713   7.745  1.00  0.00     0.249 C 
BRANCH  25  26
HETATM   26  N   UNL     1      46.743  -9.282   7.626  1.00  0.00    -0.078 N 
HETATM   27  H   UNL     1      45.903  -8.725   7.865  1.00  0.00     0.274 HD
HETATM   28  H   UNL     1      47.489  -9.004   8.274  1.00  0.00     0.274 HD
HETATM   29  H   UNL     1      47.012  -9.023   6.670  1.00  0.00     0.274 HD
ENDBRANCH  25  26
ENDBRANCH  24  25
ENDBRANCH  21  24
ENDBRANCH   9  20
TORSDOF 6
ENDMDL
MODEL 8
REMARK VINA RESULT:      -6.9      3.285      4.236
REMARK  6 active torsions:
REMARK  status: ('A' for Active; 'I' for Inactive)
REMARK    1  A    between atoms: C_4  and  C_5 
REMARK       I    between atoms: C_5  and  N_6 
REMARK    2  A    between atoms: N_6  and  C_7 
REMARK    3  A    between atoms: C_15  and  C_16 
REMARK       I    between atoms: C_16  and  N_17 
REMARK    4  A    between atoms: N_17  and  C_18 
REMARK    5  A    between atoms: C_18  and  C_19 
REMARK    6  A    between atoms: C_19  and  N_20 
ROOT
HETATM    1  C   UNL     1      43.327 -13.305   5.627  1.00  0.00     0.093 A 
HETATM    2  S   UNL     1      43.453 -14.880   6.245  1.00  0.00    -0.075 SA
HETATM    3  C   UNL     1      43.120 -15.575   4.743  1.00  0.00    -0.008 A 
HETATM    4  C   UNL     1      42.949 -14.636   3.740  1.00  0.00    -0.026 A 
HETATM    5  C   UNL     1      42.600 -15.089   2.346  1.00  0.00     0.041 C 
HETATM    6  C   UNL     1      42.054 -16.524   2.309  1.00  0.00     0.005 C 
HETATM    7  C   UNL     1      42.933 -17.473   3.132  1.00  0.00     0.005 C 
HETATM    8  C   UNL     1      42.965 -17.061   4.608  1.00  0.00     0.047 C 
HETATM    9  C   UNL     1      43.133 -13.280   4.246  1.00  0.00     0.073 A 
ENDROOT
BRANCH   1  10
HETATM   10  N   UNL     1      43.344 -12.211   6.488  1.00  0.00    -0.316 N 
HETATM   11  C   UNL     1      44.473 -11.543   6.939  1.00  0.00     0.256 C 
HETATM   12  O   UNL     1      45.591 -11.612   6.437  1.00  0.00    -0.267 OA
HETATM   13  H   UNL     1      42.435 -11.940   6.837  1.00  0.00     0.169 HD
BRANCH  11  14
HETATM   14  C   UNL     1      44.296 -10.642   8.126  1.00  0.00     0.032 A 
HETATM   15  C   UNL     1      43.094  -9.998   8.450  1.00  0.00     0.017 A 
HETATM   16  C   UNL     1      43.010  -9.200   9.597  1.00  0.00     0.001 A 
HETATM   17  C   UNL     1      44.120  -9.039  10.425  1.00  0.00     0.000 A 
HETATM   18  C   UNL     1      45.320  -9.667  10.109  1.00  0.00     0.001 A 
HETATM   19  C   UNL     1      45.408 -10.461   8.966  1.00  0.00     0.017 A 
ENDBRANCH  11  14
ENDBRANCH   1  10
BRANCH   9  20
HETATM   20  C   UNL     1      43.109 -12.009   3.514  1.00  0.00     0.255 C 
HETATM   21  N   UNL     1      41.954 -11.693   2.831  1.00  0.00    -0.355 N 
HETATM   22  H   UNL     1      41.181 -12.341   2.918  1.00  0.00     0.162 HD
HETATM   23  O   UNL     1      44.102 -11.288   3.381  1.00  0.00    -0.268 OA
BRANCH  21  24
HETATM   24  C   UNL     1      41.616 -10.349   2.373  1.00  0.00     0.150 C 
BRANCH  24  25
HETATM   25  C   UNL     1      41.160 -10.191   0.911  1.00  0.00     0.249 C 
BRANCH  25  26
HETATM   26  N   UNL     1      41.946  -9.147   0.210  1.00  0.00    -0.078 N 
HETATM   27  H   UNL     1      41.302  -8.661  -0.439  1.00  0.00     0.274 HD
HETATM   28  H   UNL     1      42.333  -8.439   0.845  1.00  0.00     0.274 HD
HETATM   29  H   UNL     1      42.705  -9.540  -0.358  1.00  0.00     0.274 HD
ENDBRANCH  25  26
ENDBRANCH  24  25
ENDBRANCH  21  24
ENDBRANCH   9  20
TORSDOF 6
ENDMDL
MODEL 9
REMARK VINA RESULT:      -6.8      2.574      5.620
REMARK  6 active torsions:
REMARK  status: ('A' for Active; 'I' for Inactive)
REMARK    1  A    between atoms: C_4  and  C_5 
REMARK       I    between atoms: C_5  and  N_6 
REMARK    2  A    between atoms: N_6  and  C_7 
REMARK    3  A    between atoms: C_15  and  C_16 
REMARK       I    between atoms: C_16  and  N_17 
REMARK    4  A    between atoms: N_17  and  C_18 
REMARK    5  A    between atoms: C_18  and  C_19 
REMARK    6  A    between atoms: C_19  and  N_20 
ROOT
HETATM    1  C   UNL     1      42.205 -15.115   2.467  1.00  0.00     0.093 A 
HETATM    2  S   UNL     1      42.301 -16.806   2.559  1.00  0.00    -0.075 SA
HETATM    3  C   UNL     1      43.009 -16.757   4.091  1.00  0.00    -0.008 A 
HETATM    4  C   UNL     1      43.148 -15.469   4.579  1.00  0.00    -0.026 A 
HETATM    5  C   UNL     1      43.805 -15.244   5.917  1.00  0.00     0.041 C 
HETATM    6  C   UNL     1      44.628 -16.454   6.382  1.00  0.00     0.005 C 
HETATM    7  C   UNL     1      43.837 -17.758   6.223  1.00  0.00     0.005 C 
HETATM    8  C   UNL     1      43.482 -18.016   4.755  1.00  0.00     0.047 C 
HETATM    9  C   UNL     1      42.613 -14.486   3.643  1.00  0.00     0.073 A 
ENDROOT
BRANCH   1  10
HETATM   10  N   UNL     1      41.826 -14.498   1.278  1.00  0.00    -0.316 N 
HETATM   11  C   UNL     1      40.570 -13.989   0.985  1.00  0.00     0.256 C 
HETATM   12  O   UNL     1      39.694 -13.734   1.806  1.00  0.00    -0.267 OA
HETATM   13  H   UNL     1      42.544 -14.487   0.567  1.00  0.00     0.169 HD
BRANCH  11  14
HETATM   14  C   UNL     1      40.276 -13.703  -0.458  1.00  0.00     0.032 A 
HETATM   15  C   UNL     1      40.761 -12.586  -1.152  1.00  0.00     0.017 A 
HETATM   16  C   UNL     1      40.463 -12.416  -2.510  1.00  0.00     0.001 A 
HETATM   17  C   UNL     1      39.681 -13.355  -3.182  1.00  0.00     0.000 A 
HETATM   18  C   UNL     1      39.188 -14.463  -2.501  1.00  0.00     0.001 A 
HETATM   19  C   UNL     1      39.482 -14.635  -1.148  1.00  0.00     0.017 A 
ENDBRANCH  11  14
ENDBRANCH   1  10
BRANCH   9  20
HETATM   20  C   UNL     1      42.499 -13.031   3.795  1.00  0.00     0.255 C 
HETATM   21  N   UNL     1      41.688 -12.561   4.806  1.00  0.00    -0.355 N 
HETATM   22  H   UNL     1      41.260 -13.254   5.406  1.00  0.00     0.162 HD
HETATM   23  O   UNL     1      42.986 -12.229   2.993  1.00  0.00    -0.268 OA
BRANCH  21  24
HETATM   24  C   UNL     1      41.743 -11.200   5.332  1.00  0.00     0.150 C 
BRANCH  24  25
HETATM   25  C   UNL     1      42.938 -10.834   6.230  1.00  0.00     0.249 C 
BRANCH  25  26
HETATM   26  N   UNL     1      43.155 -11.857   7.282  1.00  0.00    -0.078 N 
HETATM   27  H   UNL     1      43.098 -12.784   6.825  1.00  0.00     0.274 HD
HETATM   28  H   UNL     1      44.077 -11.790   7.727  1.00  0.00     0.274 HD
HETATM   29  H   UNL     1      42.429 -11.836   8.008  1.00  0.00     0.274 HD
ENDBRANCH  25  26
ENDBRANCH  24  25
ENDBRANCH  21  24
ENDBRANCH   9  20
TORSDOF 6
ENDMDL
MODEL 10
REMARK VINA RESULT:      -6.7      3.306      5.409
REMARK  6 active torsions:
REMARK  status: ('A' for Active; 'I' for Inactive)
REMARK    1  A    between atoms: C_4  and  C_5 
REMARK       I    between atoms: C_5  and  N_6 
REMARK    2  A    between atoms: N_6  and  C_7 
REMARK    3  A    between atoms: C_15  and  C_16 
REMARK       I    between atoms: C_16  and  N_17 
REMARK    4  A    between atoms: N_17  and  C_18 
REMARK    5  A    between atoms: C_18  and  C_19 
REMARK    6  A    between atoms: C_19  and  N_20 
ROOT
HETATM    1  C   UNL     1      42.406 -12.715   4.152  1.00  0.00     0.093 A 
HETATM    2  S   UNL     1      42.261 -11.821   2.717  1.00  0.00    -0.075 SA
HETATM    3  C   UNL     1      41.353 -13.031   1.968  1.00  0.00    -0.008 A 
HETATM    4  C   UNL     1      41.107 -14.112   2.798  1.00  0.00    -0.026 A 
HETATM    5  C   UNL     1      40.347 -15.301   2.269  1.00  0.00     0.041 C 
HETATM    6  C   UNL     1      40.311 -15.344   0.734  1.00  0.00     0.005 C 
HETATM    7  C   UNL     1      39.930 -13.980   0.149  1.00  0.00     0.005 C 
HETATM    8  C   UNL     1      40.958 -12.908   0.526  1.00  0.00     0.047 C 
HETATM    9  C   UNL     1      41.678 -13.905   4.124  1.00  0.00     0.073 A 
ENDROOT
BRANCH   1  10
HETATM   10  N   UNL     1      43.248 -12.274   5.169  1.00  0.00    -0.316 N 
HETATM   11  C   UNL     1      42.915 -11.384   6.179  1.00  0.00     0.256 C 
HETATM   12  O   UNL     1      41.775 -11.075   6.510  1.00  0.00    -0.267 OA
HETATM   13  H   UNL     1      44.197 -12.616   5.102  1.00  0.00     0.169 HD
BRANCH  11  14
HETATM   14  C   UNL     1      44.053 -10.771   6.942  1.00  0.00     0.032 A 
HETATM   15  C   UNL     1      45.380 -11.216   6.865  1.00  0.00     0.017 A 
HETATM   16  C   UNL     1      46.385 -10.563   7.588  1.00  0.00     0.001 A 
HETATM   17  C   UNL     1      46.075  -9.467   8.391  1.00  0.00     0.000 A 
HETATM   18  C   UNL     1      44.760  -9.021   8.482  1.00  0.00     0.001 A 
HETATM   19  C   UNL     1      43.755  -9.671   7.763  1.00  0.00     0.017 A 
ENDBRANCH  11  14
ENDBRANCH   1  10
BRANCH   9  20
HETATM   20  C   UNL     1      41.592 -14.760   5.312  1.00  0.00     0.255 C 
HETATM   21  N   UNL     1      42.059 -16.053   5.197  1.00  0.00    -0.355 N 
HETATM   22  H   UNL     1      42.472 -16.311   4.310  1.00  0.00     0.162 HD
HETATM   23  O   UNL     1      41.016 -14.419   6.349  1.00  0.00    -0.268 OA
BRANCH  21  24
HETATM   24  C   UNL     1      42.392 -16.906   6.334  1.00  0.00     0.150 C 
BRANCH  24  25
HETATM   25  C   UNL     1      43.587 -16.487   7.210  1.00  0.00     0.249 C 
BRANCH  25  26
HETATM   26  N   UNL     1      43.136 -15.783   8.435  1.00  0.00    -0.078 N 
HETATM   27  H   UNL     1      43.906 -15.156   8.730  1.00  0.00     0.274 HD
HETATM   28  H   UNL     1      42.306 -15.198   8.283  1.00  0.00     0.274 HD
HETATM   29  H   UNL     1      42.956 -16.425   9.215  1.00  0.00     0.274 HD
ENDBRANCH  25  26
ENDBRANCH  24  25
ENDBRANCH  21  24
ENDBRANCH   9  20
TORSDOF 6
ENDMDL
