MODEL 1
REMARK VINA RESULT:      -8.7      0.000      0.000
REMARK  9 active torsions:
REMARK  status: ('A' for Active; 'I' for Inactive)
REMARK    1  A    between atoms: C_2  and  O_3 
REMARK    2  A    between atoms: O_3  and  C_4 
REMARK    3  A    between atoms: C_6  and  C_7 
REMARK       I    between atoms: C_7  and  N_8 
REMARK    4  A    between atoms: N_8  and  C_9 
REMARK    5  A    between atoms: C_9  and  N_10 
REMARK    6  A    between atoms: N_10  and  C_11 
REMARK    7  A    between atoms: C_14  and  N_15 
REMARK    8  A    between atoms: N_18  and  C_20 
REMARK    9  A    between atoms: C_20  and  C_21 
ROOT
HETATM    1  C   UNL     1      38.844 -10.601   4.878  1.00  0.00     0.034 A 
HETATM    2  C   UNL     1      38.945 -10.569   3.487  1.00  0.00     0.032 A 
HETATM    3  C   UNL     1      39.517 -11.639   2.783  1.00  0.00     0.031 A 
HETATM    4  C   UNL     1      39.989 -12.792   3.426  1.00  0.00     0.030 A 
HETATM    5  C   UNL     1      39.844 -12.813   4.822  1.00  0.00     0.031 A 
HETATM    6  C   UNL     1      39.285 -11.738   5.541  1.00  0.00     0.032 A 
ENDROOT
BRANCH   1   7
HETATM    7  N   UNL     1      38.413  -9.412   5.512  1.00  0.00    -0.333 N 
HETATM    8  H   UNL     1      37.565  -9.030   5.105  1.00  0.00     0.168 HD
BRANCH   7   9
HETATM    9  C   UNL     1      39.167  -8.462   6.106  1.00  0.00     0.179 C 
HETATM   10  S   UNL     1      38.470  -6.974   6.436  1.00  0.00    -0.040 SA
BRANCH   9  11
HETATM   11  N   UNL     1      40.445  -8.665   6.519  1.00  0.00    -0.299 N 
HETATM   12  C   UNL     1      41.542  -8.828   5.678  1.00  0.00     0.257 C 
HETATM   13  O   UNL     1      41.795  -8.102   4.720  1.00  0.00    -0.267 OA
HETATM   14  H   UNL     1      40.421  -9.264   7.328  1.00  0.00     0.171 HD
BRANCH  12  15
HETATM   15  C   UNL     1      42.521  -9.917   6.037  1.00  0.00     0.035 A 
HETATM   16  C   UNL     1      42.971 -10.172   7.341  1.00  0.00     0.053 A 
HETATM   17  C   UNL     1      43.875 -11.211   7.599  1.00  0.00     0.070 A 
HETATM   18  C   UNL     1      44.304 -12.036   6.565  1.00  0.00     0.037 A 
HETATM   19  C   UNL     1      43.860 -11.800   5.264  1.00  0.00     0.004 A 
HETATM   20  C   UNL     1      42.981 -10.745   5.001  1.00  0.00     0.017 A 
BRANCH  17  21
HETATM   21  O   UNL     1      44.214 -11.370   8.914  1.00  0.00    -0.347 OA
BRANCH  21  22
HETATM   22  C   UNL     1      44.096 -10.215   9.758  1.00  0.00     0.120 C 
HETATM   23  C   UNL     1      45.464  -9.558   9.898  1.00  0.00     0.040 C 
HETATM   24  C   UNL     1      43.607 -10.711  11.118  1.00  0.00     0.040 C 
ENDBRANCH  21  22
ENDBRANCH  17  21
ENDBRANCH  12  15
ENDBRANCH   9  11
ENDBRANCH   7   9
ENDBRANCH   1   7
BRANCH   4  25
HETATM   25  N   UNL     1      40.623 -13.803   2.709  1.00  0.00    -0.378 N 
HETATM   26  C   UNL     1      40.155 -15.199   2.833  1.00  0.00     0.150 C 
HETATM   27  C   UNL     1      41.077 -15.993   3.783  1.00  0.00     0.255 C 
HETATM   28  N   UNL     1      42.534 -15.890   3.325  1.00  0.00    -0.064 N 
HETATM   29  H   UNL     1      42.582 -16.286   2.374  1.00  0.00     0.280 HD
HETATM   30  C   UNL     1      42.968 -14.429   3.209  1.00  0.00     0.255 C 
HETATM   31  C   UNL     1      42.018 -13.674   2.257  1.00  0.00     0.150 C 
BRANCH  28  32
HETATM   32  C   UNL     1      43.476 -16.706   4.172  1.00  0.00     0.276 C 
BRANCH  32  33
HETATM   33  C   UNL     1      43.593 -18.140   3.742  1.00  0.00     0.006 A 
HETATM   34  C   UNL     1      43.915 -19.127   4.679  1.00  0.00     0.124 A 
HETATM   35  F   UNL     1      44.177 -18.758   5.943  1.00  0.00    -0.206 F 
HETATM   36  C   UNL     1      44.007 -20.468   4.330  1.00  0.00     0.043 A 
HETATM   37  C   UNL     1      43.764 -20.846   3.011  1.00  0.00     0.003 A 
HETATM   38  C   UNL     1      43.433 -19.880   2.060  1.00  0.00     0.001 A 
HETATM   39  C   UNL     1      43.344 -18.532   2.420  1.00  0.00     0.012 A 
ENDBRANCH  32  33
ENDBRANCH  28  32
ENDBRANCH   4  25
TORSDOF 9
ENDMDL
MODEL 2
REMARK VINA RESULT:      -8.6      3.876      9.686
REMARK  9 active torsions:
REMARK  status: ('A' for Active; 'I' for Inactive)
REMARK    1  A    between atoms: C_2  and  O_3 
REMARK    2  A    between atoms: O_3  and  C_4 
REMARK    3  A    between atoms: C_6  and  C_7 
REMARK       I    between atoms: C_7  and  N_8 
REMARK    4  A    between atoms: N_8  and  C_9 
REMARK    5  A    between atoms: C_9  and  N_10 
REMARK    6  A    between atoms: N_10  and  C_11 
REMARK    7  A    between atoms: C_14  and  N_15 
REMARK    8  A    between atoms: N_18  and  C_20 
REMARK    9  A    between atoms: C_20  and  C_21 
ROOT
HETATM    1  C   UNL     1      42.067 -11.425   4.517  1.00  0.00     0.034 A 
HETATM    2  C   UNL     1      43.349 -11.658   5.015  1.00  0.00     0.032 A 
HETATM    3  C   UNL     1      43.801 -11.008   6.172  1.00  0.00     0.031 A 
HETATM    4  C   UNL     1      42.993 -10.118   6.896  1.00  0.00     0.030 A 
HETATM    5  C   UNL     1      41.695  -9.928   6.392  1.00  0.00     0.031 A 
HETATM    6  C   UNL     1      41.237 -10.565   5.222  1.00  0.00     0.032 A 
ENDROOT
BRANCH   1   7
HETATM    7  N   UNL     1      41.760 -11.992   3.257  1.00  0.00    -0.333 N 
HETATM    8  H   UNL     1      41.775 -11.312   2.503  1.00  0.00     0.168 HD
BRANCH   7   9
HETATM    9  C   UNL     1      40.949 -13.037   2.987  1.00  0.00     0.179 C 
HETATM   10  S   UNL     1      39.507 -12.747   2.184  1.00  0.00    -0.040 SA
BRANCH   9  11
HETATM   11  N   UNL     1      41.266 -14.328   3.267  1.00  0.00    -0.299 N 
HETATM   12  C   UNL     1      41.327 -14.878   4.544  1.00  0.00     0.257 C 
HETATM   13  O   UNL     1      40.461 -14.736   5.403  1.00  0.00    -0.267 OA
HETATM   14  H   UNL     1      41.991 -14.616   2.631  1.00  0.00     0.171 HD
BRANCH  12  15
HETATM   15  C   UNL     1      42.497 -15.782   4.842  1.00  0.00     0.035 A 
HETATM   16  C   UNL     1      42.916 -16.829   4.009  1.00  0.00     0.053 A 
HETATM   17  C   UNL     1      44.020 -17.620   4.347  1.00  0.00     0.070 A 
HETATM   18  C   UNL     1      44.748 -17.345   5.500  1.00  0.00     0.037 A 
HETATM   19  C   UNL     1      44.350 -16.303   6.337  1.00  0.00     0.004 A 
HETATM   20  C   UNL     1      43.229 -15.531   6.013  1.00  0.00     0.017 A 
BRANCH  17  21
HETATM   21  O   UNL     1      44.339 -18.590   3.438  1.00  0.00    -0.347 OA
BRANCH  21  22
HETATM   22  C   UNL     1      43.497 -19.751   3.406  1.00  0.00     0.120 C 
HETATM   23  C   UNL     1      44.063 -20.804   4.351  1.00  0.00     0.040 C 
HETATM   24  C   UNL     1      43.511 -20.268   1.969  1.00  0.00     0.040 C 
ENDBRANCH  21  22
ENDBRANCH  17  21
ENDBRANCH  12  15
ENDBRANCH   9  11
ENDBRANCH   7   9
ENDBRANCH   1   7
BRANCH   4  25
HETATM   25  N   UNL     1      43.494  -9.427   7.994  1.00  0.00    -0.378 N 
HETATM   26  C   UNL     1      44.552 -10.035   8.828  1.00  0.00     0.150 C 
HETATM   27  C   UNL     1      43.946 -10.625  10.119  1.00  0.00     0.255 C 
HETATM   28  N   UNL     1      43.135  -9.562  10.864  1.00  0.00    -0.064 N 
HETATM   29  H   UNL     1      43.783  -8.794  11.097  1.00  0.00     0.280 HD
HETATM   30  C   UNL     1      42.059  -8.962   9.960  1.00  0.00     0.255 C 
HETATM   31  C   UNL     1      42.707  -8.390   8.682  1.00  0.00     0.150 C 
BRANCH  28  32
HETATM   32  C   UNL     1      42.577 -10.058  12.174  1.00  0.00     0.276 C 
BRANCH  32  33
HETATM   33  C   UNL     1      42.403  -8.982  13.206  1.00  0.00     0.006 A 
HETATM   34  C   UNL     1      41.311  -9.021  14.080  1.00  0.00     0.124 A 
HETATM   35  F   UNL     1      40.401  -9.997  13.934  1.00  0.00    -0.206 F 
HETATM   36  C   UNL     1      41.127  -8.061  15.067  1.00  0.00     0.043 A 
HETATM   37  C   UNL     1      42.056  -7.033  15.198  1.00  0.00     0.003 A 
HETATM   38  C   UNL     1      43.158  -6.977  14.343  1.00  0.00     0.001 A 
HETATM   39  C   UNL     1      43.336  -7.947  13.352  1.00  0.00     0.012 A 
ENDBRANCH  32  33
ENDBRANCH  28  32
ENDBRANCH   4  25
TORSDOF 9
ENDMDL
MODEL 3
REMARK VINA RESULT:      -8.5      2.068      2.854
REMARK  9 active torsions:
REMARK  status: ('A' for Active; 'I' for Inactive)
REMARK    1  A    between atoms: C_2  and  O_3 
REMARK    2  A    between atoms: O_3  and  C_4 
REMARK    3  A    between atoms: C_6  and  C_7 
REMARK       I    between atoms: C_7  and  N_8 
REMARK    4  A    between atoms: N_8  and  C_9 
REMARK    5  A    between atoms: C_9  and  N_10 
REMARK    6  A    between atoms: N_10  and  C_11 
REMARK    7  A    between atoms: C_14  and  N_15 
REMARK    8  A    between atoms: N_18  and  C_20 
REMARK    9  A    between atoms: C_20  and  C_21 
ROOT
HETATM    1  C   UNL     1      40.362  -9.931   5.768  1.00  0.00     0.034 A 
HETATM    2  C   UNL     1      39.276 -10.729   6.127  1.00  0.00     0.032 A 
HETATM    3  C   UNL     1      39.316 -12.120   5.953  1.00  0.00     0.031 A 
HETATM    4  C   UNL     1      40.442 -12.779   5.439  1.00  0.00     0.030 A 
HETATM    5  C   UNL     1      41.534 -11.956   5.117  1.00  0.00     0.031 A 
HETATM    6  C   UNL     1      41.499 -10.557   5.274  1.00  0.00     0.032 A 
ENDROOT
BRANCH   1   7
HETATM    7  N   UNL     1      40.168  -8.531   5.819  1.00  0.00    -0.333 N 
HETATM    8  H   UNL     1      40.675  -8.034   5.093  1.00  0.00     0.168 HD
BRANCH   7   9
HETATM    9  C   UNL     1      39.941  -7.758   6.903  1.00  0.00     0.179 C 
HETATM   10  S   UNL     1      38.491  -6.926   7.006  1.00  0.00    -0.040 SA
BRANCH   9  11
HETATM   11  N   UNL     1      40.795  -7.670   7.956  1.00  0.00    -0.299 N 
HETATM   12  C   UNL     1      42.158  -7.406   7.863  1.00  0.00     0.257 C 
HETATM   13  O   UNL     1      42.644  -6.504   7.186  1.00  0.00    -0.267 OA
HETATM   14  H   UNL     1      40.530  -8.368   8.632  1.00  0.00     0.171 HD
BRANCH  12  15
HETATM   15  C   UNL     1      43.074  -8.233   8.728  1.00  0.00     0.035 A 
HETATM   16  C   UNL     1      43.153  -8.122  10.124  1.00  0.00     0.053 A 
HETATM   17  C   UNL     1      44.022  -8.934  10.862  1.00  0.00     0.070 A 
HETATM   18  C   UNL     1      44.791  -9.899  10.220  1.00  0.00     0.037 A 
HETATM   19  C   UNL     1      44.719 -10.028   8.833  1.00  0.00     0.004 A 
HETATM   20  C   UNL     1      43.873  -9.197   8.093  1.00  0.00     0.017 A 
BRANCH  17  21
HETATM   21  O   UNL     1      43.984  -8.743  12.216  1.00  0.00    -0.347 OA
BRANCH  21  22
HETATM   22  C   UNL     1      42.765  -8.220  12.763  1.00  0.00     0.120 C 
HETATM   23  C   UNL     1      43.100  -7.138  13.782  1.00  0.00     0.040 C 
HETATM   24  C   UNL     1      42.051  -9.386  13.445  1.00  0.00     0.040 C 
ENDBRANCH  21  22
ENDBRANCH  17  21
ENDBRANCH  12  15
ENDBRANCH   9  11
ENDBRANCH   7   9
ENDBRANCH   1   7
BRANCH   4  25
HETATM   25  N   UNL     1      40.424 -14.150   5.203  1.00  0.00    -0.378 N 
HETATM   26  C   UNL     1      40.719 -15.091   6.304  1.00  0.00     0.150 C 
HETATM   27  C   UNL     1      42.170 -15.606   6.197  1.00  0.00     0.255 C 
HETATM   28  N   UNL     1      42.423 -16.209   4.813  1.00  0.00    -0.064 N 
HETATM   29  H   UNL     1      41.762 -16.991   4.696  1.00  0.00     0.280 HD
HETATM   30  C   UNL     1      42.101 -15.200   3.711  1.00  0.00     0.255 C 
HETATM   31  C   UNL     1      40.647 -14.708   3.859  1.00  0.00     0.150 C 
BRANCH  28  32
HETATM   32  C   UNL     1      43.804 -16.797   4.670  1.00  0.00     0.276 C 
BRANCH  32  33
HETATM   33  C   UNL     1      43.809 -18.250   4.295  1.00  0.00     0.006 A 
HETATM   34  C   UNL     1      43.645 -18.628   2.958  1.00  0.00     0.124 A 
HETATM   35  F   UNL     1      43.423 -17.675   2.039  1.00  0.00    -0.206 F 
HETATM   36  C   UNL     1      43.670 -19.960   2.563  1.00  0.00     0.043 A 
HETATM   37  C   UNL     1      43.871 -20.950   3.522  1.00  0.00     0.003 A 
HETATM   38  C   UNL     1      44.045 -20.597   4.861  1.00  0.00     0.001 A 
HETATM   39  C   UNL     1      44.018 -19.254   5.249  1.00  0.00     0.012 A 
ENDBRANCH  32  33
ENDBRANCH  28  32
ENDBRANCH   4  25
TORSDOF 9
ENDMDL
MODEL 4
REMARK VINA RESULT:      -8.4      1.857      3.115
REMARK  9 active torsions:
REMARK  status: ('A' for Active; 'I' for Inactive)
REMARK    1  A    between atoms: C_2  and  O_3 
REMARK    2  A    between atoms: O_3  and  C_4 
REMARK    3  A    between atoms: C_6  and  C_7 
REMARK       I    between atoms: C_7  and  N_8 
REMARK    4  A    between atoms: N_8  and  C_9 
REMARK    5  A    between atoms: C_9  and  N_10 
REMARK    6  A    between atoms: N_10  and  C_11 
REMARK    7  A    between atoms: C_14  and  N_15 
REMARK    8  A    between atoms: N_18  and  C_20 
REMARK    9  A    between atoms: C_20  and  C_21 
ROOT
HETATM    1  C   UNL     1      40.172  -9.736   5.803  1.00  0.00     0.034 A 
HETATM    2  C   UNL     1      41.364 -10.459   5.793  1.00  0.00     0.032 A 
HETATM    3  C   UNL     1      41.371 -11.830   5.496  1.00  0.00     0.031 A 
HETATM    4  C   UNL     1      40.202 -12.534   5.174  1.00  0.00     0.030 A 
HETATM    5  C   UNL     1      39.020 -11.774   5.158  1.00  0.00     0.031 A 
HETATM    6  C   UNL     1      38.999 -10.401   5.469  1.00  0.00     0.032 A 
ENDROOT
BRANCH   1   7
HETATM    7  N   UNL     1      40.238  -8.405   6.278  1.00  0.00    -0.333 N 
HETATM    8  H   UNL     1      41.042  -7.897   5.922  1.00  0.00     0.168 HD
BRANCH   7   9
HETATM    9  C   UNL     1      39.810  -7.919   7.463  1.00  0.00     0.179 C 
HETATM   10  S   UNL     1      38.629  -6.730   7.464  1.00  0.00    -0.040 SA
BRANCH   9  11
HETATM   11  N   UNL     1      40.233  -8.388   8.666  1.00  0.00    -0.299 N 
HETATM   12  C   UNL     1      41.276  -7.851   9.414  1.00  0.00     0.257 C 
HETATM   13  O   UNL     1      41.412  -6.654   9.652  1.00  0.00    -0.267 OA
HETATM   14  H   UNL     1      40.184  -9.394   8.643  1.00  0.00     0.171 HD
BRANCH  12  15
HETATM   15  C   UNL     1      42.238  -8.826  10.043  1.00  0.00     0.035 A 
HETATM   16  C   UNL     1      43.257  -9.489   9.344  1.00  0.00     0.053 A 
HETATM   17  C   UNL     1      44.121 -10.374  10.000  1.00  0.00     0.070 A 
HETATM   18  C   UNL     1      44.006 -10.574  11.372  1.00  0.00     0.037 A 
HETATM   19  C   UNL     1      43.003  -9.917  12.083  1.00  0.00     0.004 A 
HETATM   20  C   UNL     1      42.122  -9.055  11.423  1.00  0.00     0.017 A 
BRANCH  17  21
HETATM   21  O   UNL     1      45.086 -10.934   9.209  1.00  0.00    -0.347 OA
BRANCH  21  22
HETATM   22  C   UNL     1      45.267 -10.365   7.905  1.00  0.00     0.120 C 
HETATM   23  C   UNL     1      45.416 -11.489   6.886  1.00  0.00     0.040 C 
HETATM   24  C   UNL     1      46.545  -9.530   7.962  1.00  0.00     0.040 C 
ENDBRANCH  21  22
ENDBRANCH  17  21
ENDBRANCH  12  15
ENDBRANCH   9  11
ENDBRANCH   7   9
ENDBRANCH   1   7
BRANCH   4  25
HETATM   25  N   UNL     1      40.228 -13.908   4.962  1.00  0.00    -0.378 N 
HETATM   26  C   UNL     1      40.511 -14.823   6.088  1.00  0.00     0.150 C 
HETATM   27  C   UNL     1      41.978 -15.300   6.036  1.00  0.00     0.255 C 
HETATM   28  N   UNL     1      42.292 -15.919   4.672  1.00  0.00    -0.064 N 
HETATM   29  H   UNL     1      41.656 -16.720   4.547  1.00  0.00     0.280 HD
HETATM   30  C   UNL     1      41.979 -14.937   3.542  1.00  0.00     0.255 C 
HETATM   31  C   UNL     1      40.508 -14.482   3.635  1.00  0.00     0.150 C 
BRANCH  28  32
HETATM   32  C   UNL     1      43.692 -16.471   4.584  1.00  0.00     0.276 C 
BRANCH  32  33
HETATM   33  C   UNL     1      43.747 -17.932   4.243  1.00  0.00     0.006 A 
HETATM   34  C   UNL     1      43.632 -18.344   2.911  1.00  0.00     0.124 A 
HETATM   35  F   UNL     1      43.409 -17.419   1.964  1.00  0.00    -0.206 F 
HETATM   36  C   UNL     1      43.705 -19.684   2.548  1.00  0.00     0.043 A 
HETATM   37  C   UNL     1      43.905 -20.645   3.535  1.00  0.00     0.003 A 
HETATM   38  C   UNL     1      44.031 -20.258   4.870  1.00  0.00     0.001 A 
HETATM   39  C   UNL     1      43.956 -18.908   5.226  1.00  0.00     0.012 A 
ENDBRANCH  32  33
ENDBRANCH  28  32
ENDBRANCH   4  25
TORSDOF 9
ENDMDL
MODEL 5
REMARK VINA RESULT:      -8.4      3.865      9.567
REMARK  9 active torsions:
REMARK  status: ('A' for Active; 'I' for Inactive)
REMARK    1  A    between atoms: C_2  and  O_3 
REMARK    2  A    between atoms: O_3  and  C_4 
REMARK    3  A    between atoms: C_6  and  C_7 
REMARK       I    between atoms: C_7  and  N_8 
REMARK    4  A    between atoms: N_8  and  C_9 
REMARK    5  A    between atoms: C_9  and  N_10 
REMARK    6  A    between atoms: N_10  and  C_11 
REMARK    7  A    between atoms: C_14  and  N_15 
REMARK    8  A    between atoms: N_18  and  C_20 
REMARK    9  A    between atoms: C_20  and  C_21 
ROOT
HETATM    1  C   UNL     1      39.230 -11.880   4.735  1.00  0.00     0.034 A 
HETATM    2  C   UNL     1      39.806 -12.275   5.942  1.00  0.00     0.032 A 
HETATM    3  C   UNL     1      40.142 -11.330   6.922  1.00  0.00     0.031 A 
HETATM    4  C   UNL     1      39.898  -9.959   6.757  1.00  0.00     0.030 A 
HETATM    5  C   UNL     1      39.285  -9.592   5.548  1.00  0.00     0.031 A 
HETATM    6  C   UNL     1      38.958 -10.531   4.549  1.00  0.00     0.032 A 
ENDROOT
BRANCH   1   7
HETATM    7  N   UNL     1      39.083 -12.877   3.742  1.00  0.00    -0.333 N 
HETATM    8  H   UNL     1      38.777 -13.769   4.118  1.00  0.00     0.168 HD
BRANCH   7   9
HETATM    9  C   UNL     1      39.777 -13.018   2.592  1.00  0.00     0.179 C 
HETATM   10  S   UNL     1      39.347 -12.078   1.274  1.00  0.00    -0.040 SA
BRANCH   9  11
HETATM   11  N   UNL     1      40.856 -13.833   2.460  1.00  0.00    -0.299 N 
HETATM   12  C   UNL     1      40.817 -15.225   2.491  1.00  0.00     0.257 C 
HETATM   13  O   UNL     1      40.019 -15.910   1.858  1.00  0.00    -0.267 OA
HETATM   14  H   UNL     1      41.630 -13.407   2.941  1.00  0.00     0.171 HD
BRANCH  12  15
HETATM   15  C   UNL     1      41.892 -15.919   3.287  1.00  0.00     0.035 A 
HETATM   16  C   UNL     1      42.591 -17.052   2.847  1.00  0.00     0.053 A 
HETATM   17  C   UNL     1      43.587 -17.636   3.640  1.00  0.00     0.070 A 
HETATM   18  C   UNL     1      43.928 -17.068   4.863  1.00  0.00     0.037 A 
HETATM   19  C   UNL     1      43.248 -15.938   5.313  1.00  0.00     0.004 A 
HETATM   20  C   UNL     1      42.234 -15.371   4.534  1.00  0.00     0.017 A 
BRANCH  17  21
HETATM   21  O   UNL     1      44.209 -18.720   3.083  1.00  0.00    -0.347 OA
BRANCH  21  22
HETATM   22  C   UNL     1      43.473 -19.951   3.066  1.00  0.00     0.120 C 
HETATM   23  C   UNL     1      44.030 -20.880   4.139  1.00  0.00     0.040 C 
HETATM   24  C   UNL     1      43.671 -20.564   1.681  1.00  0.00     0.040 C 
ENDBRANCH  21  22
ENDBRANCH  17  21
ENDBRANCH  12  15
ENDBRANCH   9  11
ENDBRANCH   7   9
ENDBRANCH   1   7
BRANCH   4  25
HETATM   25  N   UNL     1      40.313  -9.037   7.712  1.00  0.00    -0.378 N 
HETATM   26  C   UNL     1      41.737  -8.652   7.794  1.00  0.00     0.150 C 
HETATM   27  C   UNL     1      42.430  -9.399   8.953  1.00  0.00     0.255 C 
HETATM   28  N   UNL     1      41.674  -9.172  10.265  1.00  0.00    -0.064 N 
HETATM   29  H   UNL     1      41.679  -8.157  10.446  1.00  0.00     0.280 HD
HETATM   30  C   UNL     1      40.208  -9.581  10.127  1.00  0.00     0.255 C 
HETATM   31  C   UNL     1      39.557  -8.816   8.956  1.00  0.00     0.150 C 
BRANCH  28  32
HETATM   32  C   UNL     1      42.344  -9.818  11.450  1.00  0.00     0.276 C 
BRANCH  32  33
HETATM   33  C   UNL     1      42.318  -8.979  12.695  1.00  0.00     0.006 A 
HETATM   34  C   UNL     1      41.376  -9.241  13.696  1.00  0.00     0.124 A 
HETATM   35  F   UNL     1      40.468 -10.208  13.492  1.00  0.00    -0.206 F 
HETATM   36  C   UNL     1      41.334  -8.507  14.874  1.00  0.00     0.043 A 
HETATM   37  C   UNL     1      42.258  -7.484  15.071  1.00  0.00     0.003 A 
HETATM   38  C   UNL     1      43.212  -7.208  14.091  1.00  0.00     0.001 A 
HETATM   39  C   UNL     1      43.247  -7.952  12.907  1.00  0.00     0.012 A 
ENDBRANCH  32  33
ENDBRANCH  28  32
ENDBRANCH   4  25
TORSDOF 9
ENDMDL
MODEL 6
REMARK VINA RESULT:      -8.3      2.466      3.916
REMARK  9 active torsions:
REMARK  status: ('A' for Active; 'I' for Inactive)
REMARK    1  A    between atoms: C_2  and  O_3 
REMARK    2  A    between atoms: O_3  and  C_4 
REMARK    3  A    between atoms: C_6  and  C_7 
REMARK       I    between atoms: C_7  and  N_8 
REMARK    4  A    between atoms: N_8  and  C_9 
REMARK    5  A    between atoms: C_9  and  N_10 
REMARK    6  A    between atoms: N_10  and  C_11 
REMARK    7  A    between atoms: C_14  and  N_15 
REMARK    8  A    between atoms: N_18  and  C_20 
REMARK    9  A    between atoms: C_20  and  C_21 
ROOT
HETATM    1  C   UNL     1      40.053  -9.160   7.621  1.00  0.00     0.034 A 
HETATM    2  C   UNL     1      40.683  -8.422   6.620  1.00  0.00     0.032 A 
HETATM    3  C   UNL     1      40.743  -8.900   5.303  1.00  0.00     0.031 A 
HETATM    4  C   UNL     1      40.160 -10.117   4.920  1.00  0.00     0.030 A 
HETATM    5  C   UNL     1      39.501 -10.824   5.940  1.00  0.00     0.031 A 
HETATM    6  C   UNL     1      39.449 -10.360   7.269  1.00  0.00     0.032 A 
ENDROOT
BRANCH   1   7
HETATM    7  N   UNL     1      40.190  -8.683   8.946  1.00  0.00    -0.333 N 
HETATM    8  H   UNL     1      40.195  -7.670   9.004  1.00  0.00     0.168 HD
BRANCH   7   9
HETATM    9  C   UNL     1      40.848  -9.257   9.976  1.00  0.00     0.179 C 
HETATM   10  S   UNL     1      40.090  -9.338  11.468  1.00  0.00    -0.040 SA
BRANCH   9  11
HETATM   11  N   UNL     1      42.070  -9.839   9.857  1.00  0.00    -0.299 N 
HETATM   12  C   UNL     1      43.177  -9.260   9.244  1.00  0.00     0.257 C 
HETATM   13  O   UNL     1      43.565  -8.114   9.454  1.00  0.00    -0.267 OA
HETATM   14  H   UNL     1      41.932 -10.820   9.675  1.00  0.00     0.171 HD
BRANCH  12  15
HETATM   15  C   UNL     1      43.994 -10.144   8.336  1.00  0.00     0.035 A 
HETATM   16  C   UNL     1      43.469 -11.211   7.594  1.00  0.00     0.053 A 
HETATM   17  C   UNL     1      44.290 -11.982   6.762  1.00  0.00     0.070 A 
HETATM   18  C   UNL     1      45.638 -11.667   6.626  1.00  0.00     0.037 A 
HETATM   19  C   UNL     1      46.175 -10.604   7.351  1.00  0.00     0.004 A 
HETATM   20  C   UNL     1      45.361  -9.852   8.204  1.00  0.00     0.017 A 
BRANCH  17  21
HETATM   21  O   UNL     1      43.649 -12.976   6.075  1.00  0.00    -0.347 OA
BRANCH  21  22
HETATM   22  C   UNL     1      43.221 -14.116   6.833  1.00  0.00     0.120 C 
HETATM   23  C   UNL     1      44.057 -15.325   6.432  1.00  0.00     0.040 C 
HETATM   24  C   UNL     1      41.752 -14.350   6.486  1.00  0.00     0.040 C 
ENDBRANCH  21  22
ENDBRANCH  17  21
ENDBRANCH  12  15
ENDBRANCH   9  11
ENDBRANCH   7   9
ENDBRANCH   1   7
BRANCH   4  25
HETATM   25  N   UNL     1      40.303 -10.604   3.625  1.00  0.00    -0.378 N 
HETATM   26  C   UNL     1      39.105 -10.921   2.820  1.00  0.00     0.150 C 
HETATM   27  C   UNL     1      38.845 -12.442   2.818  1.00  0.00     0.255 C 
HETATM   28  N   UNL     1      40.093 -13.198   2.353  1.00  0.00    -0.064 N 
HETATM   29  H   UNL     1      40.305 -12.875   1.398  1.00  0.00     0.280 HD
HETATM   30  C   UNL     1      41.303 -12.834   3.214  1.00  0.00     0.255 C 
HETATM   31  C   UNL     1      41.522 -11.307   3.192  1.00  0.00     0.150 C 
BRANCH  28  32
HETATM   32  C   UNL     1      39.879 -14.687   2.260  1.00  0.00     0.276 C 
BRANCH  32  33
HETATM   33  C   UNL     1      41.143 -15.489   2.365  1.00  0.00     0.006 A 
HETATM   34  C   UNL     1      41.322 -16.377   3.432  1.00  0.00     0.124 A 
HETATM   35  F   UNL     1      40.376 -16.445   4.382  1.00  0.00    -0.206 F 
HETATM   36  C   UNL     1      42.464 -17.158   3.553  1.00  0.00     0.043 A 
HETATM   37  C   UNL     1      43.459 -17.063   2.583  1.00  0.00     0.003 A 
HETATM   38  C   UNL     1      43.299 -16.191   1.505  1.00  0.00     0.001 A 
HETATM   39  C   UNL     1      42.147 -15.409   1.391  1.00  0.00     0.012 A 
ENDBRANCH  32  33
ENDBRANCH  28  32
ENDBRANCH   4  25
TORSDOF 9
ENDMDL
MODEL 7
REMARK VINA RESULT:      -8.3      3.649      8.367
REMARK  9 active torsions:
REMARK  status: ('A' for Active; 'I' for Inactive)
REMARK    1  A    between atoms: C_2  and  O_3 
REMARK    2  A    between atoms: O_3  and  C_4 
REMARK    3  A    between atoms: C_6  and  C_7 
REMARK       I    between atoms: C_7  and  N_8 
REMARK    4  A    between atoms: N_8  and  C_9 
REMARK    5  A    between atoms: C_9  and  N_10 
REMARK    6  A    between atoms: N_10  and  C_11 
REMARK    7  A    between atoms: C_14  and  N_15 
REMARK    8  A    between atoms: N_18  and  C_20 
REMARK    9  A    between atoms: C_20  and  C_21 
ROOT
HETATM    1  C   UNL     1      41.364 -11.729   1.950  1.00  0.00     0.034 A 
HETATM    2  C   UNL     1      40.299 -11.845   2.842  1.00  0.00     0.032 A 
HETATM    3  C   UNL     1      40.512 -11.796   4.228  1.00  0.00     0.031 A 
HETATM    4  C   UNL     1      41.786 -11.605   4.784  1.00  0.00     0.030 A 
HETATM    5  C   UNL     1      42.836 -11.456   3.863  1.00  0.00     0.031 A 
HETATM    6  C   UNL     1      42.635 -11.519   2.470  1.00  0.00     0.032 A 
ENDROOT
BRANCH   1   7
HETATM    7  N   UNL     1      41.079 -11.960   0.584  1.00  0.00    -0.333 N 
HETATM    8  H   UNL     1      40.561 -11.201   0.153  1.00  0.00     0.168 HD
BRANCH   7   9
HETATM    9  C   UNL     1      40.866 -13.140  -0.037  1.00  0.00     0.179 C 
HETATM   10  S   UNL     1      39.843 -13.177  -1.363  1.00  0.00    -0.040 SA
BRANCH   9  11
HETATM   11  N   UNL     1      41.490 -14.296   0.311  1.00  0.00    -0.299 N 
HETATM   12  C   UNL     1      40.956 -15.276   1.142  1.00  0.00     0.257 C 
HETATM   13  O   UNL     1      39.820 -15.732   1.035  1.00  0.00    -0.267 OA
HETATM   14  H   UNL     1      42.467 -14.095   0.443  1.00  0.00     0.171 HD
BRANCH  12  15
HETATM   15  C   UNL     1      41.878 -15.870   2.176  1.00  0.00     0.035 A 
HETATM   16  C   UNL     1      42.088 -15.325   3.451  1.00  0.00     0.053 A 
HETATM   17  C   UNL     1      42.952 -15.941   4.364  1.00  0.00     0.070 A 
HETATM   18  C   UNL     1      43.584 -17.134   4.031  1.00  0.00     0.037 A 
HETATM   19  C   UNL     1      43.381 -17.694   2.770  1.00  0.00     0.004 A 
HETATM   20  C   UNL     1      42.539 -17.064   1.848  1.00  0.00     0.017 A 
BRANCH  17  21
HETATM   21  O   UNL     1      43.049 -15.321   5.580  1.00  0.00    -0.347 OA
BRANCH  21  22
HETATM   22  C   UNL     1      42.303 -15.898   6.661  1.00  0.00     0.120 C 
HETATM   23  C   UNL     1      40.957 -15.191   6.771  1.00  0.00     0.040 C 
HETATM   24  C   UNL     1      43.123 -15.675   7.931  1.00  0.00     0.040 C 
ENDBRANCH  21  22
ENDBRANCH  17  21
ENDBRANCH  12  15
ENDBRANCH   9  11
ENDBRANCH   7   9
ENDBRANCH   1   7
BRANCH   4  25
HETATM   25  N   UNL     1      41.979 -11.640   6.161  1.00  0.00    -0.378 N 
HETATM   26  C   UNL     1      41.137 -10.805   7.044  1.00  0.00     0.150 C 
HETATM   27  C   UNL     1      41.906  -9.540   7.481  1.00  0.00     0.255 C 
HETATM   28  N   UNL     1      43.245  -9.921   8.118  1.00  0.00    -0.064 N 
HETATM   29  H   UNL     1      43.035 -10.507   8.939  1.00  0.00     0.280 HD
HETATM   30  C   UNL     1      44.075 -10.785   7.168  1.00  0.00     0.255 C 
HETATM   31  C   UNL     1      43.268 -12.032   6.753  1.00  0.00     0.150 C 
BRANCH  28  32
HETATM   32  C   UNL     1      44.012  -8.730   8.632  1.00  0.00     0.276 C 
BRANCH  32  33
HETATM   33  C   UNL     1      43.569  -8.261   9.988  1.00  0.00     0.006 A 
HETATM   34  C   UNL     1      43.941  -8.977  11.131  1.00  0.00     0.124 A 
HETATM   35  F   UNL     1      44.641 -10.112  10.984  1.00  0.00    -0.206 F 
HETATM   36  C   UNL     1      43.575  -8.564  12.406  1.00  0.00     0.043 A 
HETATM   37  C   UNL     1      42.823  -7.402  12.555  1.00  0.00     0.003 A 
HETATM   38  C   UNL     1      42.446  -6.667  11.430  1.00  0.00     0.001 A 
HETATM   39  C   UNL     1      42.818  -7.090  10.151  1.00  0.00     0.012 A 
ENDBRANCH  32  33
ENDBRANCH  28  32
ENDBRANCH   4  25
TORSDOF 9
ENDMDL
MODEL 8
REMARK VINA RESULT:      -8.2      4.747      8.093
REMARK  9 active torsions:
REMARK  status: ('A' for Active; 'I' for Inactive)
REMARK    1  A    between atoms: C_2  and  O_3 
REMARK    2  A    between atoms: O_3  and  C_4 
REMARK    3  A    between atoms: C_6  and  C_7 
REMARK       I    between atoms: C_7  and  N_8 
REMARK    4  A    between atoms: N_8  and  C_9 
REMARK    5  A    between atoms: C_9  and  N_10 
REMARK    6  A    between atoms: N_10  and  C_11 
REMARK    7  A    between atoms: C_14  and  N_15 
REMARK    8  A    between atoms: N_18  and  C_20 
REMARK    9  A    between atoms: C_20  and  C_21 
ROOT
HETATM    1  C   UNL     1      42.883 -16.959   2.321  1.00  0.00     0.034 A 
HETATM    2  C   UNL     1      41.508 -16.966   2.552  1.00  0.00     0.032 A 
HETATM    3  C   UNL     1      40.699 -15.907   2.114  1.00  0.00     0.031 A 
HETATM    4  C   UNL     1      41.216 -14.810   1.409  1.00  0.00     0.030 A 
HETATM    5  C   UNL     1      42.598 -14.845   1.160  1.00  0.00     0.031 A 
HETATM    6  C   UNL     1      43.422 -15.896   1.608  1.00  0.00     0.032 A 
ENDROOT
BRANCH   1   7
HETATM    7  N   UNL     1      43.639 -17.979   2.944  1.00  0.00    -0.333 N 
HETATM    8  H   UNL     1      43.518 -18.886   2.505  1.00  0.00     0.168 HD
BRANCH   7   9
HETATM    9  C   UNL     1      43.989 -18.084   4.244  1.00  0.00     0.179 C 
HETATM   10  S   UNL     1      44.211 -19.611   4.896  1.00  0.00    -0.040 SA
BRANCH   9  11
HETATM   11  N   UNL     1      44.241 -17.015   5.044  1.00  0.00    -0.299 N 
HETATM   12  C   UNL     1      43.317 -16.414   5.894  1.00  0.00     0.257 C 
HETATM   13  O   UNL     1      42.589 -17.028   6.671  1.00  0.00    -0.267 OA
HETATM   14  H   UNL     1      44.847 -16.386   4.542  1.00  0.00     0.171 HD
BRANCH  12  15
HETATM   15  C   UNL     1      43.288 -14.908   5.916  1.00  0.00     0.035 A 
HETATM   16  C   UNL     1      43.761 -14.125   6.979  1.00  0.00     0.053 A 
HETATM   17  C   UNL     1      43.711 -12.727   6.921  1.00  0.00     0.070 A 
HETATM   18  C   UNL     1      43.229 -12.092   5.781  1.00  0.00     0.037 A 
HETATM   19  C   UNL     1      42.761 -12.855   4.712  1.00  0.00     0.004 A 
HETATM   20  C   UNL     1      42.784 -14.251   4.781  1.00  0.00     0.017 A 
BRANCH  17  21
HETATM   21  O   UNL     1      44.228 -12.083   8.011  1.00  0.00    -0.347 OA
BRANCH  21  22
HETATM   22  C   UNL     1      44.720 -10.751   7.805  1.00  0.00     0.120 C 
HETATM   23  C   UNL     1      46.183 -10.819   7.383  1.00  0.00     0.040 C 
HETATM   24  C   UNL     1      44.588 -10.020   9.139  1.00  0.00     0.040 C 
ENDBRANCH  21  22
ENDBRANCH  17  21
ENDBRANCH  12  15
ENDBRANCH   9  11
ENDBRANCH   7   9
ENDBRANCH   1   7
BRANCH   4  25
HETATM   25  N   UNL     1      40.404 -13.737   1.057  1.00  0.00    -0.378 N 
HETATM   26  C   UNL     1      39.896 -13.620  -0.325  1.00  0.00     0.150 C 
HETATM   27  C   UNL     1      40.729 -12.592  -1.119  1.00  0.00     0.255 C 
HETATM   28  N   UNL     1      40.768 -11.251  -0.382  1.00  0.00    -0.064 N 
HETATM   29  H   UNL     1      39.794 -10.924  -0.294  1.00  0.00     0.280 HD
HETATM   30  C   UNL     1      41.296 -11.426   1.042  1.00  0.00     0.255 C 
HETATM   31  C   UNL     1      40.440 -12.464   1.795  1.00  0.00     0.150 C 
BRANCH  28  32
HETATM   32  C   UNL     1      41.508 -10.181  -1.144  1.00  0.00     0.276 C 
BRANCH  32  33
HETATM   33  C   UNL     1      40.667  -9.472  -2.166  1.00  0.00     0.006 A 
HETATM   34  C   UNL     1      39.742  -8.504  -1.761  1.00  0.00     0.124 A 
HETATM   35  F   UNL     1      39.581  -8.272  -0.449  1.00  0.00    -0.206 F 
HETATM   36  C   UNL     1      38.964  -7.805  -2.676  1.00  0.00     0.043 A 
HETATM   37  C   UNL     1      39.110  -8.069  -4.035  1.00  0.00     0.003 A 
HETATM   38  C   UNL     1      40.032  -9.025  -4.464  1.00  0.00     0.001 A 
HETATM   39  C   UNL     1      40.811  -9.723  -3.537  1.00  0.00     0.012 A 
ENDBRANCH  32  33
ENDBRANCH  28  32
ENDBRANCH   4  25
TORSDOF 9
ENDMDL
MODEL 9
REMARK VINA RESULT:      -8.1      3.399      5.006
REMARK  9 active torsions:
REMARK  status: ('A' for Active; 'I' for Inactive)
REMARK    1  A    between atoms: C_2  and  O_3 
REMARK    2  A    between atoms: O_3  and  C_4 
REMARK    3  A    between atoms: C_6  and  C_7 
REMARK       I    between atoms: C_7  and  N_8 
REMARK    4  A    between atoms: N_8  and  C_9 
REMARK    5  A    between atoms: C_9  and  N_10 
REMARK    6  A    between atoms: N_10  and  C_11 
REMARK    7  A    between atoms: C_14  and  N_15 
REMARK    8  A    between atoms: N_18  and  C_20 
REMARK    9  A    between atoms: C_20  and  C_21 
ROOT
HETATM    1  C   UNL     1      44.096 -12.036   6.838  1.00  0.00     0.034 A 
HETATM    2  C   UNL     1      43.737 -11.385   5.658  1.00  0.00     0.032 A 
HETATM    3  C   UNL     1      43.047 -12.064   4.643  1.00  0.00     0.031 A 
HETATM    4  C   UNL     1      42.665 -13.408   4.766  1.00  0.00     0.030 A 
HETATM    5  C   UNL     1      43.008 -14.029   5.978  1.00  0.00     0.031 A 
HETATM    6  C   UNL     1      43.714 -13.361   6.998  1.00  0.00     0.032 A 
ENDROOT
BRANCH   1   7
HETATM    7  N   UNL     1      44.933 -11.324   7.729  1.00  0.00    -0.333 N 
HETATM    8  H   UNL     1      45.748 -11.857   8.018  1.00  0.00     0.168 HD
BRANCH   7   9
HETATM    9  C   UNL     1      44.582 -10.393   8.642  1.00  0.00     0.179 C 
HETATM   10  S   UNL     1      45.386  -8.923   8.639  1.00  0.00    -0.040 SA
BRANCH   9  11
HETATM   11  N   UNL     1      43.561 -10.551   9.523  1.00  0.00    -0.299 N 
HETATM   12  C   UNL     1      42.488  -9.677   9.672  1.00  0.00     0.257 C 
HETATM   13  O   UNL     1      41.827  -9.227   8.740  1.00  0.00    -0.267 OA
HETATM   14  H   UNL     1      43.941 -10.926  10.377  1.00  0.00     0.171 HD
BRANCH  12  15
HETATM   15  C   UNL     1      42.066  -9.347  11.081  1.00  0.00     0.035 A 
HETATM   16  C   UNL     1      40.803  -8.848  11.429  1.00  0.00     0.053 A 
HETATM   17  C   UNL     1      40.480  -8.575  12.764  1.00  0.00     0.070 A 
HETATM   18  C   UNL     1      41.400  -8.841  13.773  1.00  0.00     0.037 A 
HETATM   19  C   UNL     1      42.658  -9.345  13.445  1.00  0.00     0.004 A 
HETATM   20  C   UNL     1      42.991  -9.590  12.109  1.00  0.00     0.017 A 
BRANCH  17  21
HETATM   21  O   UNL     1      39.208  -8.116  12.971  1.00  0.00    -0.347 OA
BRANCH  21  22
HETATM   22  C   UNL     1      38.899  -6.812  12.459  1.00  0.00     0.120 C 
HETATM   23  C   UNL     1      39.642  -5.765  13.280  1.00  0.00     0.040 C 
HETATM   24  C   UNL     1      37.390  -6.626  12.607  1.00  0.00     0.040 C 
ENDBRANCH  21  22
ENDBRANCH  17  21
ENDBRANCH  12  15
ENDBRANCH   9  11
ENDBRANCH   7   9
ENDBRANCH   1   7
BRANCH   4  25
HETATM   25  N   UNL     1      42.053 -14.078   3.711  1.00  0.00    -0.378 N 
HETATM   26  C   UNL     1      41.238 -15.282   3.977  1.00  0.00     0.150 C 
HETATM   27  C   UNL     1      42.043 -16.557   3.650  1.00  0.00     0.255 C 
HETATM   28  N   UNL     1      42.577 -16.502   2.217  1.00  0.00    -0.064 N 
HETATM   29  H   UNL     1      41.761 -16.430   1.592  1.00  0.00     0.280 HD
HETATM   30  C   UNL     1      43.408 -15.239   1.992  1.00  0.00     0.255 C 
HETATM   31  C   UNL     1      42.569 -13.991   2.335  1.00  0.00     0.150 C 
BRANCH  28  32
HETATM   32  C   UNL     1      43.311 -17.755   1.813  1.00  0.00     0.276 C 
BRANCH  32  33
HETATM   33  C   UNL     1      43.592 -18.689   2.955  1.00  0.00     0.006 A 
HETATM   34  C   UNL     1      43.468 -20.071   2.775  1.00  0.00     0.124 A 
HETATM   35  F   UNL     1      43.036 -20.532   1.591  1.00  0.00    -0.206 F 
HETATM   36  C   UNL     1      43.744 -20.971   3.796  1.00  0.00     0.043 A 
HETATM   37  C   UNL     1      44.163 -20.489   5.034  1.00  0.00     0.003 A 
HETATM   38  C   UNL     1      44.302 -19.115   5.235  1.00  0.00     0.001 A 
HETATM   39  C   UNL     1      44.022 -18.216   4.202  1.00  0.00     0.012 A 
ENDBRANCH  32  33
ENDBRANCH  28  32
ENDBRANCH   4  25
TORSDOF 9
ENDMDL
MODEL 10
REMARK VINA RESULT:      -8.1      3.499      7.586
REMARK  9 active torsions:
REMARK  status: ('A' for Active; 'I' for Inactive)
REMARK    1  A    between atoms: C_2  and  O_3 
REMARK    2  A    between atoms: O_3  and  C_4 
REMARK    3  A    between atoms: C_6  and  C_7 
REMARK       I    between atoms: C_7  and  N_8 
REMARK    4  A    between atoms: N_8  and  C_9 
REMARK    5  A    between atoms: C_9  and  N_10 
REMARK    6  A    between atoms: N_10  and  C_11 
REMARK    7  A    between atoms: C_14  and  N_15 
REMARK    8  A    between atoms: N_18  and  C_20 
REMARK    9  A    between atoms: C_20  and  C_21 
ROOT
HETATM    1  C   UNL     1      39.706 -12.118   2.236  1.00  0.00     0.034 A 
HETATM    2  C   UNL     1      40.056 -10.795   1.967  1.00  0.00     0.032 A 
HETATM    3  C   UNL     1      40.137  -9.848   2.998  1.00  0.00     0.031 A 
HETATM    4  C   UNL     1      39.897 -10.178   4.340  1.00  0.00     0.030 A 
HETATM    5  C   UNL     1      39.581 -11.524   4.588  1.00  0.00     0.031 A 
HETATM    6  C   UNL     1      39.482 -12.480   3.558  1.00  0.00     0.032 A 
ENDROOT
BRANCH   1   7
HETATM    7  N   UNL     1      39.484 -12.959   1.120  1.00  0.00    -0.333 N 
HETATM    8  H   UNL     1      38.679 -13.567   1.236  1.00  0.00     0.168 HD
BRANCH   7   9
HETATM    9  C   UNL     1      40.396 -13.475   0.269  1.00  0.00     0.179 C 
HETATM   10  S   UNL     1      40.693 -12.675  -1.173  1.00  0.00    -0.040 SA
BRANCH   9  11
HETATM   11  N   UNL     1      41.145 -14.575   0.545  1.00  0.00    -0.299 N 
HETATM   12  C   UNL     1      40.767 -15.607   1.400  1.00  0.00     0.257 C 
HETATM   13  O   UNL     1      39.671 -16.160   1.375  1.00  0.00    -0.267 OA
HETATM   14  H   UNL     1      42.109 -14.290   0.603  1.00  0.00     0.171 HD
BRANCH  12  15
HETATM   15  C   UNL     1      41.817 -16.128   2.346  1.00  0.00     0.035 A 
HETATM   16  C   UNL     1      42.232 -15.460   3.508  1.00  0.00     0.053 A 
HETATM   17  C   UNL     1      43.208 -16.013   4.346  1.00  0.00     0.070 A 
HETATM   18  C   UNL     1      43.748 -17.262   4.059  1.00  0.00     0.037 A 
HETATM   19  C   UNL     1      43.342 -17.943   2.913  1.00  0.00     0.004 A 
HETATM   20  C   UNL     1      42.389 -17.378   2.059  1.00  0.00     0.017 A 
BRANCH  17  21
HETATM   21  O   UNL     1      43.503 -15.274   5.458  1.00  0.00    -0.347 OA
BRANCH  21  22
HETATM   22  C   UNL     1      42.439 -15.059   6.396  1.00  0.00     0.120 C 
HETATM   23  C   UNL     1      42.062 -13.582   6.393  1.00  0.00     0.040 C 
HETATM   24  C   UNL     1      42.971 -15.466   7.769  1.00  0.00     0.040 C 
ENDBRANCH  21  22
ENDBRANCH  17  21
ENDBRANCH  12  15
ENDBRANCH   9  11
ENDBRANCH   7   9
ENDBRANCH   1   7
BRANCH   4  25
HETATM   25  N   UNL     1      39.907  -9.202   5.330  1.00  0.00    -0.378 N 
HETATM   26  C   UNL     1      41.002  -8.211   5.378  1.00  0.00     0.150 C 
HETATM   27  C   UNL     1      42.030  -8.598   6.462  1.00  0.00     0.255 C 
HETATM   28  N   UNL     1      41.337  -8.787   7.814  1.00  0.00    -0.064 N 
HETATM   29  H   UNL     1      40.891  -7.889   8.055  1.00  0.00     0.280 HD
HETATM   30  C   UNL     1      40.212  -9.817   7.711  1.00  0.00     0.255 C 
HETATM   31  C   UNL     1      39.213  -9.394   6.614  1.00  0.00     0.150 C 
BRANCH  28  32
HETATM   32  C   UNL     1      42.301  -9.095   8.931  1.00  0.00     0.276 C 
BRANCH  32  33
HETATM   33  C   UNL     1      43.647  -9.563   8.461  1.00  0.00     0.006 A 
HETATM   34  C   UNL     1      44.743  -8.695   8.501  1.00  0.00     0.124 A 
HETATM   35  F   UNL     1      44.551  -7.430   8.906  1.00  0.00    -0.206 F 
HETATM   36  C   UNL     1      46.012  -9.095   8.100  1.00  0.00     0.043 A 
HETATM   37  C   UNL     1      46.203 -10.399   7.652  1.00  0.00     0.003 A 
HETATM   38  C   UNL     1      45.127 -11.287   7.610  1.00  0.00     0.001 A 
HETATM   39  C   UNL     1      43.853 -10.875   8.015  1.00  0.00     0.012 A 
ENDBRANCH  32  33
ENDBRANCH  28  32
ENDBRANCH   4  25
TORSDOF 9
ENDMDL
