MODEL 1
REMARK VINA RESULT:      -9.6      0.000      0.000
REMARK  3 active torsions:
REMARK  status: ('A' for Active; 'I' for Inactive)
REMARK    1  A    between atoms: C_7  and  C_8 
REMARK    2  A    between atoms: N_9  and  N_10 
REMARK       I    between atoms: N_10  and  C_11 
REMARK    3  A    between atoms: C_11  and  C_12 
ROOT
HETATM    1  N   UNL     1      41.799 -14.842   1.486  1.00  0.00    -0.242 N 
HETATM    2  C   UNL     1      40.687 -14.022   1.549  1.00  0.00     0.292 C 
HETATM    3  O   UNL     1      39.776 -14.022   2.362  1.00  0.00    -0.264 OA
HETATM    4  H   UNL     1      42.542 -14.567   0.845  1.00  0.00     0.192 HD
ENDROOT
BRANCH   1   5
HETATM    5  N   UNL     1      42.129 -15.883   2.316  1.00  0.00    -0.183 NA
HETATM    6  C   UNL     1      43.161 -15.791   3.091  1.00  0.00     0.153 C 
BRANCH   6   7
HETATM    7  C   UNL     1      43.512 -16.895   3.971  1.00  0.00     0.018 A 
HETATM    8  C   UNL     1      43.805 -16.737   5.322  1.00  0.00     0.018 A 
HETATM    9  C   UNL     1      43.855 -15.518   6.172  1.00  0.00     0.069 C 
HETATM   10  N   UNL     1      44.082 -17.977   5.837  1.00  0.00    -0.358 N 
HETATM   11  H   UNL     1      44.333 -18.166   6.798  1.00  0.00     0.166 HD
HETATM   12  C   UNL     1      43.972 -18.942   4.867  1.00  0.00     0.043 A 
HETATM   13  C   UNL     1      43.619 -18.295   3.681  1.00  0.00     0.004 A 
HETATM   14  C   UNL     1      44.159 -20.327   4.955  1.00  0.00     0.030 A 
HETATM   15  C   UNL     1      43.444 -19.086   2.524  1.00  0.00     0.014 A 
HETATM   16  C   UNL     1      43.627 -20.472   2.593  1.00  0.00     0.001 A 
HETATM   17  C   UNL     1      43.979 -21.082   3.793  1.00  0.00     0.002 A 
ENDBRANCH   6   7
ENDBRANCH   1   5
BRANCH   2  18
HETATM   18  C   UNL     1      40.654 -13.022   0.406  1.00  0.00     0.157 A 
HETATM   19  N   UNL     1      41.239 -11.877   0.618  1.00  0.00    -0.166 NA
HETATM   20  N   UNL     1      41.220 -10.958  -0.389  1.00  0.00    -0.242 N 
HETATM   21  C   UNL     1      40.633 -11.119  -1.622  1.00  0.00     0.272 A 
HETATM   22  H   UNL     1      41.649 -10.057  -0.196  1.00  0.00     0.192 HD
HETATM   23  O   UNL     1      40.637 -10.237  -2.472  1.00  0.00    -0.266 OA
HETATM   24  C   UNL     1      40.005 -12.428  -1.876  1.00  0.00     0.046 A 
HETATM   25  C   UNL     1      40.010 -13.390  -0.869  1.00  0.00     0.016 A 
HETATM   26  C   UNL     1      39.424 -12.705  -3.120  1.00  0.00     0.018 A 
HETATM   27  C   UNL     1      39.442 -14.647  -1.111  1.00  0.00     0.015 A 
HETATM   28  C   UNL     1      38.864 -14.925  -2.353  1.00  0.00     0.001 A 
HETATM   29  C   UNL     1      38.853 -13.955  -3.355  1.00  0.00     0.001 A 
ENDBRANCH   2  18
TORSDOF 3
ENDMDL
MODEL 2
REMARK VINA RESULT:      -9.3      4.155      7.020
REMARK  3 active torsions:
REMARK  status: ('A' for Active; 'I' for Inactive)
REMARK    1  A    between atoms: C_7  and  C_8 
REMARK    2  A    between atoms: N_9  and  N_10 
REMARK       I    between atoms: N_10  and  C_11 
REMARK    3  A    between atoms: C_11  and  C_12 
ROOT
HETATM    1  N   UNL     1      42.241 -13.872   5.447  1.00  0.00    -0.242 N 
HETATM    2  C   UNL     1      42.347 -12.586   4.953  1.00  0.00     0.292 C 
HETATM    3  O   UNL     1      42.466 -12.212   3.796  1.00  0.00    -0.264 OA
HETATM    4  H   UNL     1      41.961 -13.973   6.422  1.00  0.00     0.192 HD
ENDROOT
BRANCH   1   5
HETATM    5  N   UNL     1      42.275 -15.052   4.747  1.00  0.00    -0.183 NA
HETATM    6  C   UNL     1      43.403 -15.648   4.538  1.00  0.00     0.153 C 
BRANCH   6   7
HETATM    7  C   UNL     1      43.439 -16.899   3.795  1.00  0.00     0.018 A 
HETATM    8  C   UNL     1      43.305 -16.975   2.413  1.00  0.00     0.018 A 
HETATM    9  C   UNL     1      43.094 -15.913   1.394  1.00  0.00     0.069 C 
HETATM   10  N   UNL     1      43.393 -18.297   2.056  1.00  0.00    -0.358 N 
HETATM   11  H   UNL     1      43.326 -18.652   1.113  1.00  0.00     0.166 HD
HETATM   12  C   UNL     1      43.588 -19.086   3.163  1.00  0.00     0.043 A 
HETATM   13  C   UNL     1      43.618 -18.240   4.273  1.00  0.00     0.004 A 
HETATM   14  C   UNL     1      43.737 -20.475   3.258  1.00  0.00     0.030 A 
HETATM   15  C   UNL     1      43.809 -18.823   5.544  1.00  0.00     0.014 A 
HETATM   16  C   UNL     1      43.960 -20.211   5.658  1.00  0.00     0.001 A 
HETATM   17  C   UNL     1      43.926 -21.023   4.530  1.00  0.00     0.002 A 
ENDBRANCH   6   7
ENDBRANCH   1   5
BRANCH   2  18
HETATM   18  C   UNL     1      42.325 -11.547   6.062  1.00  0.00     0.157 A 
HETATM   19  N   UNL     1      41.151 -11.131   6.446  1.00  0.00    -0.166 NA
HETATM   20  N   UNL     1      41.101 -10.196   7.436  1.00  0.00    -0.242 N 
HETATM   21  C   UNL     1      42.182  -9.637   8.078  1.00  0.00     0.272 A 
HETATM   22  H   UNL     1      40.180  -9.854   7.698  1.00  0.00     0.192 HD
HETATM   23  O   UNL     1      42.059  -8.782   8.947  1.00  0.00    -0.266 OA
HETATM   24  C   UNL     1      43.507 -10.136   7.672  1.00  0.00     0.046 A 
HETATM   25  C   UNL     1      43.593 -11.094   6.665  1.00  0.00     0.016 A 
HETATM   26  C   UNL     1      44.665  -9.663   8.303  1.00  0.00     0.018 A 
HETATM   27  C   UNL     1      44.846 -11.596   6.293  1.00  0.00     0.015 A 
HETATM   28  C   UNL     1      46.002 -11.126   6.923  1.00  0.00     0.001 A 
HETATM   29  C   UNL     1      45.911 -10.160   7.925  1.00  0.00     0.001 A 
ENDBRANCH   2  18
TORSDOF 3
ENDMDL
MODEL 3
REMARK VINA RESULT:      -9.2      6.555      9.804
REMARK  3 active torsions:
REMARK  status: ('A' for Active; 'I' for Inactive)
REMARK    1  A    between atoms: C_7  and  C_8 
REMARK    2  A    between atoms: N_9  and  N_10 
REMARK       I    between atoms: N_10  and  C_11 
REMARK    3  A    between atoms: C_11  and  C_12 
ROOT
HETATM    1  N   UNL     1      43.546 -11.596   7.650  1.00  0.00    -0.242 N 
HETATM    2  C   UNL     1      44.520 -10.987   8.420  1.00  0.00     0.292 C 
HETATM    3  O   UNL     1      45.706 -10.828   8.178  1.00  0.00    -0.264 OA
HETATM    4  H   UNL     1      42.577 -11.464   7.938  1.00  0.00     0.192 HD
ENDROOT
BRANCH   1   5
HETATM    5  N   UNL     1      43.692 -12.201   6.428  1.00  0.00    -0.183 NA
HETATM    6  C   UNL     1      42.673 -12.754   5.854  1.00  0.00     0.153 C 
BRANCH   6   7
HETATM    7  C   UNL     1      42.828 -13.396   4.557  1.00  0.00     0.018 A 
HETATM    8  C   UNL     1      42.886 -12.698   3.356  1.00  0.00     0.018 A 
HETATM    9  C   UNL     1      42.802 -11.241   3.071  1.00  0.00     0.069 C 
HETATM   10  N   UNL     1      43.040 -13.613   2.347  1.00  0.00    -0.358 N 
HETATM   11  H   UNL     1      43.108 -13.391   1.364  1.00  0.00     0.166 HD
HETATM   12  C   UNL     1      43.092 -14.889   2.852  1.00  0.00     0.043 A 
HETATM   13  C   UNL     1      42.958 -14.789   4.238  1.00  0.00     0.004 A 
HETATM   14  C   UNL     1      43.246 -16.111   2.187  1.00  0.00     0.030 A 
HETATM   15  C   UNL     1      42.981 -15.983   4.993  1.00  0.00     0.014 A 
HETATM   16  C   UNL     1      43.134 -17.214   4.344  1.00  0.00     0.001 A 
HETATM   17  C   UNL     1      43.266 -17.275   2.961  1.00  0.00     0.002 A 
ENDBRANCH   6   7
ENDBRANCH   1   5
BRANCH   2  18
HETATM   18  C   UNL     1      43.967 -10.487   9.744  1.00  0.00     0.157 A 
HETATM   19  N   UNL     1      43.899 -11.359  10.711  1.00  0.00    -0.166 NA
HETATM   20  N   UNL     1      43.401 -10.940  11.909  1.00  0.00    -0.242 N 
HETATM   21  C   UNL     1      42.955  -9.672  12.203  1.00  0.00     0.272 A 
HETATM   22  H   UNL     1      43.320 -11.639  12.642  1.00  0.00     0.192 HD
HETATM   23  O   UNL     1      42.499  -9.375  13.301  1.00  0.00    -0.266 OA
HETATM   24  C   UNL     1      43.068  -8.677  11.122  1.00  0.00     0.046 A 
HETATM   25  C   UNL     1      43.575  -9.072   9.887  1.00  0.00     0.016 A 
HETATM   26  C   UNL     1      42.685  -7.348  11.341  1.00  0.00     0.018 A 
HETATM   27  C   UNL     1      43.715  -8.127   8.862  1.00  0.00     0.015 A 
HETATM   28  C   UNL     1      43.334  -6.800   9.081  1.00  0.00     0.001 A 
HETATM   29  C   UNL     1      42.819  -6.412  10.317  1.00  0.00     0.001 A 
ENDBRANCH   2  18
TORSDOF 3
ENDMDL
MODEL 4
REMARK VINA RESULT:      -8.8      2.117      8.817
REMARK  3 active torsions:
REMARK  status: ('A' for Active; 'I' for Inactive)
REMARK    1  A    between atoms: C_7  and  C_8 
REMARK    2  A    between atoms: N_9  and  N_10 
REMARK       I    between atoms: N_10  and  C_11 
REMARK    3  A    between atoms: C_11  and  C_12 
ROOT
HETATM    1  N   UNL     1      41.415 -14.042   1.732  1.00  0.00    -0.242 N 
HETATM    2  C   UNL     1      40.903 -15.029   2.553  1.00  0.00     0.292 C 
HETATM    3  O   UNL     1      39.788 -15.527   2.555  1.00  0.00    -0.264 OA
HETATM    4  H   UNL     1      42.423 -13.892   1.760  1.00  0.00     0.192 HD
ENDROOT
BRANCH   1   5
HETATM    5  N   UNL     1      40.773 -13.358   0.730  1.00  0.00    -0.183 NA
HETATM    6  C   UNL     1      40.614 -13.908  -0.430  1.00  0.00     0.153 C 
BRANCH   6   7
HETATM    7  C   UNL     1      39.934 -13.184  -1.492  1.00  0.00     0.018 A 
HETATM    8  C   UNL     1      39.111 -13.793  -2.432  1.00  0.00     0.018 A 
HETATM    9  C   UNL     1      38.733 -15.220  -2.618  1.00  0.00     0.069 C 
HETATM   10  N   UNL     1      38.637 -12.816  -3.270  1.00  0.00    -0.358 N 
HETATM   11  H   UNL     1      38.017 -12.970  -4.053  1.00  0.00     0.166 HD
HETATM   12  C   UNL     1      39.120 -11.585  -2.902  1.00  0.00     0.043 A 
HETATM   13  C   UNL     1      39.941 -11.780  -1.790  1.00  0.00     0.004 A 
HETATM   14  C   UNL     1      38.890 -10.326  -3.469  1.00  0.00     0.030 A 
HETATM   15  C   UNL     1      40.563 -10.647  -1.220  1.00  0.00     0.014 A 
HETATM   16  C   UNL     1      40.344  -9.380  -1.774  1.00  0.00     0.001 A 
HETATM   17  C   UNL     1      39.518  -9.224  -2.882  1.00  0.00     0.002 A 
ENDBRANCH   6   7
ENDBRANCH   1   5
BRANCH   2  18
HETATM   18  C   UNL     1      41.918 -15.495   3.582  1.00  0.00     0.157 A 
HETATM   19  N   UNL     1      42.091 -14.725   4.619  1.00  0.00    -0.166 NA
HETATM   20  N   UNL     1      43.000 -15.115   5.556  1.00  0.00    -0.242 N 
HETATM   21  C   UNL     1      43.767 -16.257   5.516  1.00  0.00     0.272 A 
HETATM   22  H   UNL     1      43.150 -14.486   6.340  1.00  0.00     0.192 HD
HETATM   23  O   UNL     1      44.582 -16.532   6.388  1.00  0.00    -0.266 OA
HETATM   24  C   UNL     1      43.544 -17.148   4.363  1.00  0.00     0.046 A 
HETATM   25  C   UNL     1      42.619 -16.779   3.390  1.00  0.00     0.016 A 
HETATM   26  C   UNL     1      44.242 -18.357   4.259  1.00  0.00     0.018 A 
HETATM   27  C   UNL     1      42.378 -17.633   2.306  1.00  0.00     0.015 A 
HETATM   28  C   UNL     1      43.073 -18.841   2.202  1.00  0.00     0.001 A 
HETATM   29  C   UNL     1      44.004 -19.202   3.175  1.00  0.00     0.001 A 
ENDBRANCH   2  18
TORSDOF 3
ENDMDL
MODEL 5
REMARK VINA RESULT:      -8.8      1.432      2.434
REMARK  3 active torsions:
REMARK  status: ('A' for Active; 'I' for Inactive)
REMARK    1  A    between atoms: C_7  and  C_8 
REMARK    2  A    between atoms: N_9  and  N_10 
REMARK       I    between atoms: N_10  and  C_11 
REMARK    3  A    between atoms: C_11  and  C_12 
ROOT
HETATM    1  N   UNL     1      42.104 -14.983   0.742  1.00  0.00    -0.242 N 
HETATM    2  C   UNL     1      40.798 -14.536   0.658  1.00  0.00     0.292 C 
HETATM    3  O   UNL     1      39.819 -14.892   1.295  1.00  0.00    -0.264 OA
HETATM    4  H   UNL     1      42.814 -14.433   0.260  1.00  0.00     0.192 HD
ENDROOT
BRANCH   1   5
HETATM    5  N   UNL     1      42.609 -15.967   1.554  1.00  0.00    -0.183 NA
HETATM    6  C   UNL     1      42.707 -15.768   2.828  1.00  0.00     0.153 C 
BRANCH   6   7
HETATM    7  C   UNL     1      43.244 -16.811   3.689  1.00  0.00     0.018 A 
HETATM    8  C   UNL     1      43.674 -16.586   4.991  1.00  0.00     0.018 A 
HETATM    9  C   UNL     1      43.721 -15.339   5.801  1.00  0.00     0.069 C 
HETATM   10  N   UNL     1      44.107 -17.783   5.502  1.00  0.00    -0.358 N 
HETATM   11  H   UNL     1      44.480 -17.920   6.431  1.00  0.00     0.166 HD
HETATM   12  C   UNL     1      43.966 -18.786   4.575  1.00  0.00     0.043 A 
HETATM   13  C   UNL     1      43.430 -18.208   3.422  1.00  0.00     0.004 A 
HETATM   14  C   UNL     1      44.273 -20.148   4.674  1.00  0.00     0.030 A 
HETATM   15  C   UNL     1      43.189 -19.048   2.313  1.00  0.00     0.014 A 
HETATM   16  C   UNL     1      43.490 -20.413   2.394  1.00  0.00     0.001 A 
HETATM   17  C   UNL     1      44.023 -20.954   3.560  1.00  0.00     0.002 A 
ENDBRANCH   6   7
ENDBRANCH   1   5
BRANCH   2  18
HETATM   18  C   UNL     1      40.631 -13.469  -0.411  1.00  0.00     0.157 A 
HETATM   19  N   UNL     1      40.197 -13.872  -1.572  1.00  0.00    -0.166 NA
HETATM   20  N   UNL     1      40.043 -12.937  -2.552  1.00  0.00    -0.242 N 
HETATM   21  C   UNL     1      40.305 -11.592  -2.437  1.00  0.00     0.272 A 
HETATM   22  H   UNL     1      39.739 -13.273  -3.462  1.00  0.00     0.192 HD
HETATM   23  O   UNL     1      40.162 -10.813  -3.372  1.00  0.00    -0.266 OA
HETATM   24  C   UNL     1      40.758 -11.129  -1.113  1.00  0.00     0.046 A 
HETATM   25  C   UNL     1      40.923 -12.059  -0.090  1.00  0.00     0.016 A 
HETATM   26  C   UNL     1      41.004  -9.770  -0.885  1.00  0.00     0.018 A 
HETATM   27  C   UNL     1      41.324 -11.626   1.180  1.00  0.00     0.015 A 
HETATM   28  C   UNL     1      41.568 -10.268   1.409  1.00  0.00     0.001 A 
HETATM   29  C   UNL     1      41.410  -9.343   0.378  1.00  0.00     0.001 A 
ENDBRANCH   2  18
TORSDOF 3
ENDMDL
MODEL 6
REMARK VINA RESULT:      -8.7      2.027      8.576
REMARK  3 active torsions:
REMARK  status: ('A' for Active; 'I' for Inactive)
REMARK    1  A    between atoms: C_7  and  C_8 
REMARK    2  A    between atoms: N_9  and  N_10 
REMARK       I    between atoms: N_10  and  C_11 
REMARK    3  A    between atoms: C_11  and  C_12 
ROOT
HETATM    1  N   UNL     1      41.530 -15.634   2.442  1.00  0.00    -0.242 N 
HETATM    2  C   UNL     1      42.846 -16.041   2.560  1.00  0.00     0.292 C 
HETATM    3  O   UNL     1      43.779 -15.863   1.793  1.00  0.00    -0.264 OA
HETATM    4  H   UNL     1      40.943 -15.714   3.272  1.00  0.00     0.192 HD
ENDROOT
BRANCH   1   5
HETATM    5  N   UNL     1      40.947 -14.950   1.405  1.00  0.00    -0.183 NA
HETATM    6  C   UNL     1      41.297 -13.730   1.157  1.00  0.00     0.153 C 
BRANCH   6   7
HETATM    7  C   UNL     1      40.679 -13.004   0.058  1.00  0.00     0.018 A 
HETATM    8  C   UNL     1      40.765 -11.625  -0.096  1.00  0.00     0.018 A 
HETATM    9  C   UNL     1      41.434 -10.590   0.737  1.00  0.00     0.069 C 
HETATM   10  N   UNL     1      40.077 -11.287  -1.234  1.00  0.00    -0.358 N 
HETATM   11  H   UNL     1      39.968 -10.349  -1.592  1.00  0.00     0.166 HD
HETATM   12  C   UNL     1      39.550 -12.405  -1.832  1.00  0.00     0.043 A 
HETATM   13  C   UNL     1      39.906 -13.501  -1.043  1.00  0.00     0.004 A 
HETATM   14  C   UNL     1      38.790 -12.521  -3.002  1.00  0.00     0.030 A 
HETATM   15  C   UNL     1      39.474 -14.780  -1.457  1.00  0.00     0.014 A 
HETATM   16  C   UNL     1      38.714 -14.916  -2.625  1.00  0.00     0.001 A 
HETATM   17  C   UNL     1      38.378 -13.801  -3.386  1.00  0.00     0.002 A 
ENDBRANCH   6   7
ENDBRANCH   1   5
BRANCH   2  18
HETATM   18  C   UNL     1      43.084 -16.829   3.837  1.00  0.00     0.157 A 
HETATM   19  N   UNL     1      42.963 -16.174   4.957  1.00  0.00    -0.166 NA
HETATM   20  N   UNL     1      43.176 -16.855   6.118  1.00  0.00    -0.242 N 
HETATM   21  C   UNL     1      43.514 -18.183   6.228  1.00  0.00     0.272 A 
HETATM   22  H   UNL     1      43.114 -16.321   6.981  1.00  0.00     0.192 HD
HETATM   23  O   UNL     1      43.712 -18.723   7.310  1.00  0.00    -0.266 OA
HETATM   24  C   UNL     1      43.613 -18.935   4.964  1.00  0.00     0.046 A 
HETATM   25  C   UNL     1      43.397 -18.269   3.760  1.00  0.00     0.016 A 
HETATM   26  C   UNL     1      43.904 -20.304   4.976  1.00  0.00     0.018 A 
HETATM   27  C   UNL     1      43.460 -18.981   2.555  1.00  0.00     0.015 A 
HETATM   28  C   UNL     1      43.748 -20.348   2.567  1.00  0.00     0.001 A 
HETATM   29  C   UNL     1      43.972 -21.009   3.774  1.00  0.00     0.001 A 
ENDBRANCH   2  18
TORSDOF 3
ENDMDL
MODEL 7
REMARK VINA RESULT:      -8.7      2.415      8.728
REMARK  3 active torsions:
REMARK  status: ('A' for Active; 'I' for Inactive)
REMARK    1  A    between atoms: C_7  and  C_8 
REMARK    2  A    between atoms: N_9  and  N_10 
REMARK       I    between atoms: N_10  and  C_11 
REMARK    3  A    between atoms: C_11  and  C_12 
ROOT
HETATM    1  N   UNL     1      41.326 -16.433   2.000  1.00  0.00    -0.242 N 
HETATM    2  C   UNL     1      42.705 -16.518   2.051  1.00  0.00     0.292 C 
HETATM    3  O   UNL     1      43.539 -15.903   1.404  1.00  0.00    -0.264 OA
HETATM    4  H   UNL     1      40.805 -16.889   2.748  1.00  0.00     0.192 HD
ENDROOT
BRANCH   1   5
HETATM    5  N   UNL     1      40.557 -15.647   1.179  1.00  0.00    -0.183 NA
HETATM    6  C   UNL     1      40.612 -14.359   1.279  1.00  0.00     0.153 C 
BRANCH   6   7
HETATM    7  C   UNL     1      39.797 -13.526   0.408  1.00  0.00     0.018 A 
HETATM    8  C   UNL     1      39.432 -12.220   0.716  1.00  0.00     0.018 A 
HETATM    9  C   UNL     1      39.726 -11.381   1.909  1.00  0.00     0.069 C 
HETATM   10  N   UNL     1      38.677 -11.740  -0.323  1.00  0.00    -0.358 N 
HETATM   11  H   UNL     1      38.271 -10.816  -0.371  1.00  0.00     0.166 HD
HETATM   12  C   UNL     1      38.543 -12.691  -1.305  1.00  0.00     0.043 A 
HETATM   13  C   UNL     1      39.231 -13.827  -0.875  1.00  0.00     0.004 A 
HETATM   14  C   UNL     1      37.867 -12.625  -2.529  1.00  0.00     0.030 A 
HETATM   15  C   UNL     1      39.239 -14.955  -1.724  1.00  0.00     0.014 A 
HETATM   16  C   UNL     1      38.569 -14.908  -2.953  1.00  0.00     0.001 A 
HETATM   17  C   UNL     1      37.894 -13.758  -3.348  1.00  0.00     0.002 A 
ENDBRANCH   6   7
ENDBRANCH   1   5
BRANCH   2  18
HETATM   18  C   UNL     1      43.174 -17.554   3.058  1.00  0.00     0.157 A 
HETATM   19  N   UNL     1      43.585 -18.692   2.574  1.00  0.00    -0.166 NA
HETATM   20  N   UNL     1      44.006 -19.642   3.455  1.00  0.00    -0.242 N 
HETATM   21  C   UNL     1      44.039 -19.520   4.825  1.00  0.00     0.272 A 
HETATM   22  H   UNL     1      44.290 -20.537   3.064  1.00  0.00     0.192 HD
HETATM   23  O   UNL     1      44.411 -20.429   5.556  1.00  0.00    -0.266 OA
HETATM   24  C   UNL     1      43.611 -18.220   5.371  1.00  0.00     0.046 A 
HETATM   25  C   UNL     1      43.178 -17.226   4.497  1.00  0.00     0.016 A 
HETATM   26  C   UNL     1      43.655 -17.983   6.750  1.00  0.00     0.018 A 
HETATM   27  C   UNL     1      42.797 -15.977   5.003  1.00  0.00     0.015 A 
HETATM   28  C   UNL     1      42.842 -15.739   6.380  1.00  0.00     0.001 A 
HETATM   29  C   UNL     1      43.269 -16.741   7.252  1.00  0.00     0.001 A 
ENDBRANCH   2  18
TORSDOF 3
ENDMDL
MODEL 8
REMARK VINA RESULT:      -8.6      6.032      8.920
REMARK  3 active torsions:
REMARK  status: ('A' for Active; 'I' for Inactive)
REMARK    1  A    between atoms: C_7  and  C_8 
REMARK    2  A    between atoms: N_9  and  N_10 
REMARK       I    between atoms: N_10  and  C_11 
REMARK    3  A    between atoms: C_11  and  C_12 
ROOT
HETATM    1  N   UNL     1      43.767 -12.414   7.520  1.00  0.00    -0.242 N 
HETATM    2  C   UNL     1      44.609 -11.333   7.706  1.00  0.00     0.292 C 
HETATM    3  O   UNL     1      45.582 -10.994   7.053  1.00  0.00    -0.264 OA
HETATM    4  H   UNL     1      42.900 -12.425   8.056  1.00  0.00     0.192 HD
ENDROOT
BRANCH   1   5
HETATM    5  N   UNL     1      43.846 -13.391   6.560  1.00  0.00    -0.183 NA
HETATM    6  C   UNL     1      43.082 -14.433   6.632  1.00  0.00     0.153 C 
BRANCH   6   7
HETATM    7  C   UNL     1      43.166 -15.469   5.614  1.00  0.00     0.018 A 
HETATM    8  C   UNL     1      43.306 -16.821   5.905  1.00  0.00     0.018 A 
HETATM    9  C   UNL     1      43.413 -17.533   7.207  1.00  0.00     0.069 C 
HETATM   10  N   UNL     1      43.345 -17.503   4.716  1.00  0.00    -0.358 N 
HETATM   11  H   UNL     1      43.445 -18.504   4.621  1.00  0.00     0.166 HD
HETATM   12  C   UNL     1      43.228 -16.638   3.656  1.00  0.00     0.043 A 
HETATM   13  C   UNL     1      43.118 -15.351   4.185  1.00  0.00     0.004 A 
HETATM   14  C   UNL     1      43.213 -16.902   2.281  1.00  0.00     0.030 A 
HETATM   15  C   UNL     1      42.984 -14.274   3.282  1.00  0.00     0.014 A 
HETATM   16  C   UNL     1      42.967 -14.519   1.903  1.00  0.00     0.001 A 
HETATM   17  C   UNL     1      43.078 -15.815   1.412  1.00  0.00     0.002 A 
ENDBRANCH   6   7
ENDBRANCH   1   5
BRANCH   2  18
HETATM   18  C   UNL     1      44.217 -10.512   8.923  1.00  0.00     0.157 A 
HETATM   19  N   UNL     1      44.659 -10.932  10.075  1.00  0.00    -0.166 NA
HETATM   20  N   UNL     1      44.319 -10.217  11.185  1.00  0.00    -0.242 N 
HETATM   21  C   UNL     1      43.543  -9.082  11.212  1.00  0.00     0.272 A 
HETATM   22  H   UNL     1      44.640 -10.578  12.079  1.00  0.00     0.192 HD
HETATM   23  O   UNL     1      43.260  -8.504  12.254  1.00  0.00    -0.266 OA
HETATM   24  C   UNL     1      43.076  -8.584   9.905  1.00  0.00     0.046 A 
HETATM   25  C   UNL     1      43.409  -9.290   8.752  1.00  0.00     0.016 A 
HETATM   26  C   UNL     1      42.321  -7.408   9.826  1.00  0.00     0.018 A 
HETATM   27  C   UNL     1      42.995  -8.809   7.503  1.00  0.00     0.015 A 
HETATM   28  C   UNL     1      42.242  -7.633   7.423  1.00  0.00     0.001 A 
HETATM   29  C   UNL     1      41.905  -6.935   8.582  1.00  0.00     0.001 A 
ENDBRANCH   2  18
TORSDOF 3
ENDMDL
MODEL 9
REMARK VINA RESULT:      -8.6      5.326      8.049
REMARK  3 active torsions:
REMARK  status: ('A' for Active; 'I' for Inactive)
REMARK    1  A    between atoms: C_7  and  C_8 
REMARK    2  A    between atoms: N_9  and  N_10 
REMARK       I    between atoms: N_10  and  C_11 
REMARK    3  A    between atoms: C_11  and  C_12 
ROOT
HETATM    1  N   UNL     1      43.542 -12.828   6.259  1.00  0.00    -0.242 N 
HETATM    2  C   UNL     1      44.231 -11.631   6.207  1.00  0.00     0.292 C 
HETATM    3  O   UNL     1      44.832 -11.128   5.271  1.00  0.00    -0.264 OA
HETATM    4  H   UNL     1      42.949 -12.987   7.072  1.00  0.00     0.192 HD
ENDROOT
BRANCH   1   5
HETATM    5  N   UNL     1      43.393 -13.761   5.263  1.00  0.00    -0.183 NA
HETATM    6  C   UNL     1      42.325 -14.488   5.212  1.00  0.00     0.153 C 
BRANCH   6   7
HETATM    7  C   UNL     1      42.167 -15.477   4.157  1.00  0.00     0.018 A 
HETATM    8  C   UNL     1      41.232 -15.366   3.134  1.00  0.00     0.018 A 
HETATM    9  C   UNL     1      40.213 -14.319   2.853  1.00  0.00     0.069 C 
HETATM   10  N   UNL     1      41.367 -16.464   2.323  1.00  0.00    -0.358 N 
HETATM   11  H   UNL     1      40.813 -16.652   1.499  1.00  0.00     0.166 HD
HETATM   12  C   UNL     1      42.367 -17.286   2.781  1.00  0.00     0.043 A 
HETATM   13  C   UNL     1      42.888 -16.697   3.935  1.00  0.00     0.004 A 
HETATM   14  C   UNL     1      42.841 -18.496   2.261  1.00  0.00     0.030 A 
HETATM   15  C   UNL     1      43.943 -17.362   4.598  1.00  0.00     0.014 A 
HETATM   16  C   UNL     1      44.430 -18.574   4.091  1.00  0.00     0.001 A 
HETATM   17  C   UNL     1      43.886 -19.131   2.939  1.00  0.00     0.002 A 
ENDBRANCH   6   7
ENDBRANCH   1   5
BRANCH   2  18
HETATM   18  C   UNL     1      44.212 -10.906   7.542  1.00  0.00     0.157 A 
HETATM   19  N   UNL     1      45.260 -11.059   8.302  1.00  0.00    -0.166 NA
HETATM   20  N   UNL     1      45.267 -10.425   9.509  1.00  0.00    -0.242 N 
HETATM   21  C   UNL     1      44.264  -9.630  10.013  1.00  0.00     0.272 A 
HETATM   22  H   UNL     1      46.075 -10.583  10.105  1.00  0.00     0.192 HD
HETATM   23  O   UNL     1      44.333  -9.109  11.120  1.00  0.00    -0.266 OA
HETATM   24  C   UNL     1      43.096  -9.426   9.138  1.00  0.00     0.046 A 
HETATM   25  C   UNL     1      43.059 -10.057   7.897  1.00  0.00     0.016 A 
HETATM   26  C   UNL     1      42.045  -8.593   9.543  1.00  0.00     0.018 A 
HETATM   27  C   UNL     1      41.967  -9.845   7.046  1.00  0.00     0.015 A 
HETATM   28  C   UNL     1      40.919  -9.013   7.449  1.00  0.00     0.001 A 
HETATM   29  C   UNL     1      40.957  -8.390   8.696  1.00  0.00     0.001 A 
ENDBRANCH   2  18
TORSDOF 3
ENDMDL
MODEL 10
REMARK VINA RESULT:      -8.5      6.565      9.653
REMARK  3 active torsions:
REMARK  status: ('A' for Active; 'I' for Inactive)
REMARK    1  A    between atoms: C_7  and  C_8 
REMARK    2  A    between atoms: N_9  and  N_10 
REMARK       I    between atoms: N_10  and  C_11 
REMARK    3  A    between atoms: C_11  and  C_12 
ROOT
HETATM    1  N   UNL     1      43.726 -11.047   7.419  1.00  0.00    -0.242 N 
HETATM    2  C   UNL     1      44.621 -10.513   8.327  1.00  0.00     0.292 C 
HETATM    3  O   UNL     1      45.729 -10.916   8.644  1.00  0.00    -0.264 OA
HETATM    4  H   UNL     1      42.933 -10.465   7.153  1.00  0.00     0.192 HD
ENDROOT
BRANCH   1   5
HETATM    5  N   UNL     1      43.861 -12.189   6.671  1.00  0.00    -0.183 NA
HETATM    6  C   UNL     1      42.830 -12.703   6.082  1.00  0.00     0.153 C 
BRANCH   6   7
HETATM    7  C   UNL     1      42.973 -13.914   5.289  1.00  0.00     0.018 A 
HETATM    8  C   UNL     1      42.938 -13.931   3.899  1.00  0.00     0.018 A 
HETATM    9  C   UNL     1      42.751 -12.831   2.916  1.00  0.00     0.069 C 
HETATM   10  N   UNL     1      43.110 -15.229   3.492  1.00  0.00    -0.358 N 
HETATM   11  H   UNL     1      43.124 -15.541   2.531  1.00  0.00     0.166 HD
HETATM   12  C   UNL     1      43.263 -16.061   4.573  1.00  0.00     0.043 A 
HETATM   13  C   UNL     1      43.178 -15.268   5.719  1.00  0.00     0.004 A 
HETATM   14  C   UNL     1      43.467 -17.445   4.617  1.00  0.00     0.030 A 
HETATM   15  C   UNL     1      43.307 -15.902   6.973  1.00  0.00     0.014 A 
HETATM   16  C   UNL     1      43.512 -17.286   7.036  1.00  0.00     0.001 A 
HETATM   17  C   UNL     1      43.592 -18.045   5.873  1.00  0.00     0.002 A 
ENDBRANCH   6   7
ENDBRANCH   1   5
BRANCH   2  18
HETATM   18  C   UNL     1      44.074  -9.264   8.998  1.00  0.00     0.157 A 
HETATM   19  N   UNL     1      44.058  -8.178   8.279  1.00  0.00    -0.166 NA
HETATM   20  N   UNL     1      43.577  -7.041   8.857  1.00  0.00    -0.242 N 
HETATM   21  C   UNL     1      43.102  -6.923  10.142  1.00  0.00     0.272 A 
HETATM   22  H   UNL     1      43.604  -6.194   8.295  1.00  0.00     0.192 HD
HETATM   23  O   UNL     1      42.705  -5.859  10.601  1.00  0.00    -0.266 OA
HETATM   24  C   UNL     1      43.084  -8.160  10.943  1.00  0.00     0.046 A 
HETATM   25  C   UNL     1      43.565  -9.340  10.381  1.00  0.00     0.016 A 
HETATM   26  C   UNL     1      42.573  -8.152  12.247  1.00  0.00     0.018 A 
HETATM   27  C   UNL     1      43.525 -10.527  11.123  1.00  0.00     0.015 A 
HETATM   28  C   UNL     1      43.014 -10.519  12.424  1.00  0.00     0.001 A 
HETATM   29  C   UNL     1      42.541  -9.334  12.985  1.00  0.00     0.001 A 
ENDBRANCH   2  18
TORSDOF 3
ENDMDL
