MODEL 1
REMARK VINA RESULT:      -8.9      0.000      0.000
REMARK  2 active torsions:
REMARK  status: ('A' for Active; 'I' for Inactive)
REMARK    1  A    between atoms: C_4  and  C_5 
REMARK       I    between atoms: C_5  and  N_6 
REMARK    2  A    between atoms: N_6  and  C_7 
ROOT
HETATM    1  C   UNL     1      41.616 -15.709   3.505  1.00  0.00     0.277 C 
HETATM    2  N   UNL     1      42.845 -16.324   3.518  1.00  0.00    -0.321 N 
HETATM    3  O   UNL     1      40.527 -16.130   3.849  1.00  0.00    -0.266 OA
HETATM    4  H   UNL     1      43.526 -15.861   2.921  1.00  0.00     0.169 HD
ENDROOT
BRANCH   1   5
HETATM    5  C   UNL     1      41.713 -14.313   2.884  1.00  0.00     0.156 A 
HETATM    6  N   UNL     1      42.301 -13.415   3.623  1.00  0.00    -0.164 NA
HETATM    7  N   UNL     1      42.416 -12.136   3.145  1.00  0.00    -0.238 N 
HETATM    8  C   UNL     1      43.118 -11.187   3.989  1.00  0.00     0.183 C 
HETATM    9  C   UNL     1      41.973 -11.720   1.893  1.00  0.00     0.274 A 
HETATM   10  C   UNL     1      41.274 -12.732   1.077  1.00  0.00     0.046 A 
HETATM   11  O   UNL     1      42.120 -10.581   1.458  1.00  0.00    -0.266 OA
HETATM   12  C   UNL     1      41.127 -14.027   1.563  1.00  0.00     0.016 A 
HETATM   13  C   UNL     1      40.744 -12.376  -0.171  1.00  0.00     0.018 A 
HETATM   14  C   UNL     1      40.425 -14.972   0.803  1.00  0.00     0.015 A 
HETATM   15  C   UNL     1      39.896 -14.617  -0.443  1.00  0.00     0.001 A 
HETATM   16  C   UNL     1      40.058 -13.322  -0.930  1.00  0.00     0.001 A 
ENDBRANCH   1   5
BRANCH   2  17
HETATM   17  C   UNL     1      43.225 -17.563   4.066  1.00  0.00     0.047 A 
HETATM   18  C   UNL     1      43.463 -18.770   3.359  1.00  0.00     0.019 A 
HETATM   19  C   UNL     1      43.815 -19.914   4.095  1.00  0.00     0.044 A 
HETATM   20  C   UNL     1      43.396 -19.202   1.998  1.00  0.00     0.033 A 
HETATM   21  N   UNL     1      43.995 -20.951   3.206  1.00  0.00    -0.365 N 
HETATM   22  C   UNL     1      43.935 -19.926   5.489  1.00  0.00     0.030 A 
HETATM   23  H   UNL     1      44.261 -21.890   3.469  1.00  0.00     0.165 HD
HETATM   24  C   UNL     1      43.733 -20.534   1.935  1.00  0.00     0.089 A 
HETATM   25  C   UNL     1      43.676 -18.741   6.170  1.00  0.00     0.005 A 
HETATM   26  C   UNL     1      43.322 -17.589   5.475  1.00  0.00     0.030 A 
ENDBRANCH   2  17
TORSDOF 2
ENDMDL
MODEL 2
REMARK VINA RESULT:      -8.8      2.193      7.140
REMARK  2 active torsions:
REMARK  status: ('A' for Active; 'I' for Inactive)
REMARK    1  A    between atoms: C_4  and  C_5 
REMARK       I    between atoms: C_5  and  N_6 
REMARK    2  A    between atoms: N_6  and  C_7 
ROOT
HETATM    1  C   UNL     1      42.933 -15.163   2.358  1.00  0.00     0.277 C 
HETATM    2  N   UNL     1      41.610 -14.835   2.177  1.00  0.00    -0.321 N 
HETATM    3  O   UNL     1      43.879 -15.039   1.603  1.00  0.00    -0.266 OA
HETATM    4  H   UNL     1      40.992 -15.298   2.839  1.00  0.00     0.169 HD
ENDROOT
BRANCH   1   5
HETATM    5  C   UNL     1      43.143 -15.844   3.713  1.00  0.00     0.156 A 
HETATM    6  N   UNL     1      43.079 -15.055   4.748  1.00  0.00    -0.164 NA
HETATM    7  N   UNL     1      43.271 -15.585   5.997  1.00  0.00    -0.238 N 
HETATM    8  C   UNL     1      43.145 -14.671   7.117  1.00  0.00     0.183 C 
HETATM    9  C   UNL     1      43.501 -16.933   6.253  1.00  0.00     0.274 A 
HETATM   10  C   UNL     1      43.611 -17.814   5.075  1.00  0.00     0.046 A 
HETATM   11  O   UNL     1      43.628 -17.404   7.381  1.00  0.00    -0.266 OA
HETATM   12  C   UNL     1      43.445 -17.283   3.799  1.00  0.00     0.016 A 
HETATM   13  C   UNL     1      43.902 -19.174   5.246  1.00  0.00     0.018 A 
HETATM   14  C   UNL     1      43.592 -18.116   2.683  1.00  0.00     0.015 A 
HETATM   15  C   UNL     1      43.883 -19.473   2.853  1.00  0.00     0.001 A 
HETATM   16  C   UNL     1      44.035 -20.003   4.133  1.00  0.00     0.001 A 
ENDBRANCH   1   5
BRANCH   2  17
HETATM   17  C   UNL     1      40.994 -14.130   1.126  1.00  0.00     0.047 A 
HETATM   18  C   UNL     1      41.045 -12.730   0.894  1.00  0.00     0.019 A 
HETATM   19  C   UNL     1      40.341 -12.213  -0.205  1.00  0.00     0.044 A 
HETATM   20  C   UNL     1      41.621 -11.595   1.544  1.00  0.00     0.033 A 
HETATM   21  N   UNL     1      40.535 -10.849  -0.229  1.00  0.00    -0.365 N 
HETATM   22  C   UNL     1      39.586 -13.003  -1.079  1.00  0.00     0.030 A 
HETATM   23  H   UNL     1      40.145 -10.228  -0.924  1.00  0.00     0.165 HD
HETATM   24  C   UNL     1      41.300 -10.463   0.832  1.00  0.00     0.089 A 
HETATM   25  C   UNL     1      39.527 -14.370  -0.826  1.00  0.00     0.005 A 
HETATM   26  C   UNL     1      40.210 -14.919   0.256  1.00  0.00     0.030 A 
ENDBRANCH   2  17
TORSDOF 2
ENDMDL
MODEL 3
REMARK VINA RESULT:      -8.7      2.169      3.768
REMARK  2 active torsions:
REMARK  status: ('A' for Active; 'I' for Inactive)
REMARK    1  A    between atoms: C_4  and  C_5 
REMARK       I    between atoms: C_5  and  N_6 
REMARK    2  A    between atoms: N_6  and  C_7 
ROOT
HETATM    1  C   UNL     1      40.867 -15.539   2.148  1.00  0.00     0.277 C 
HETATM    2  N   UNL     1      42.130 -16.062   2.009  1.00  0.00    -0.321 N 
HETATM    3  O   UNL     1      40.001 -15.794   2.965  1.00  0.00    -0.266 OA
HETATM    4  H   UNL     1      42.532 -15.889   1.091  1.00  0.00     0.169 HD
ENDROOT
BRANCH   1   5
HETATM    5  C   UNL     1      40.562 -14.547   1.024  1.00  0.00     0.156 A 
HETATM    6  N   UNL     1      39.966 -15.052  -0.019  1.00  0.00    -0.164 NA
HETATM    7  N   UNL     1      39.671 -14.231  -1.076  1.00  0.00    -0.238 N 
HETATM    8  C   UNL     1      38.968 -14.837  -2.191  1.00  0.00     0.183 C 
HETATM    9  C   UNL     1      39.935 -12.866  -1.110  1.00  0.00     0.274 A 
HETATM   10  C   UNL     1      40.644 -12.307   0.057  1.00  0.00     0.046 A 
HETATM   11  O   UNL     1      39.626 -12.132  -2.046  1.00  0.00    -0.266 OA
HETATM   12  C   UNL     1      40.974 -13.136   1.125  1.00  0.00     0.016 A 
HETATM   13  C   UNL     1      41.000 -10.951   0.072  1.00  0.00     0.018 A 
HETATM   14  C   UNL     1      41.684 -12.608   2.211  1.00  0.00     0.015 A 
HETATM   15  C   UNL     1      42.041 -11.256   2.227  1.00  0.00     0.001 A 
HETATM   16  C   UNL     1      41.696 -10.427   1.160  1.00  0.00     0.001 A 
ENDBRANCH   1   5
BRANCH   2  17
HETATM   17  C   UNL     1      42.841 -16.935   2.854  1.00  0.00     0.047 A 
HETATM   18  C   UNL     1      43.263 -16.677   4.184  1.00  0.00     0.019 A 
HETATM   19  C   UNL     1      43.985 -17.675   4.858  1.00  0.00     0.044 A 
HETATM   20  C   UNL     1      43.197 -15.577   5.095  1.00  0.00     0.033 A 
HETATM   21  N   UNL     1      44.283 -17.205   6.118  1.00  0.00    -0.365 N 
HETATM   22  C   UNL     1      44.315 -18.908   4.285  1.00  0.00     0.030 A 
HETATM   23  H   UNL     1      44.792 -17.727   6.818  1.00  0.00     0.165 HD
HETATM   24  C   UNL     1      43.821 -15.931   6.269  1.00  0.00     0.089 A 
HETATM   25  C   UNL     1      43.914 -19.138   2.973  1.00  0.00     0.005 A 
HETATM   26  C   UNL     1      43.200 -18.171   2.271  1.00  0.00     0.030 A 
ENDBRANCH   2  17
TORSDOF 2
ENDMDL
MODEL 4
REMARK VINA RESULT:      -8.7      2.375      6.874
REMARK  2 active torsions:
REMARK  status: ('A' for Active; 'I' for Inactive)
REMARK    1  A    between atoms: C_4  and  C_5 
REMARK       I    between atoms: C_5  and  N_6 
REMARK    2  A    between atoms: N_6  and  C_7 
ROOT
HETATM    1  C   UNL     1      42.364 -14.627   3.246  1.00  0.00     0.277 C 
HETATM    2  N   UNL     1      41.001 -14.455   3.215  1.00  0.00    -0.321 N 
HETATM    3  O   UNL     1      43.227 -14.168   2.521  1.00  0.00    -0.266 OA
HETATM    4  H   UNL     1      40.499 -15.165   3.743  1.00  0.00     0.169 HD
ENDROOT
BRANCH   1   5
HETATM    5  C   UNL     1      42.762 -15.615   4.346  1.00  0.00     0.156 A 
HETATM    6  N   UNL     1      42.742 -15.136   5.558  1.00  0.00    -0.164 NA
HETATM    7  N   UNL     1      43.099 -15.953   6.599  1.00  0.00    -0.238 N 
HETATM    8  C   UNL     1      43.017 -15.382   7.930  1.00  0.00     0.183 C 
HETATM    9  C   UNL     1      43.457 -17.291   6.462  1.00  0.00     0.274 A 
HETATM   10  C   UNL     1      43.515 -17.816   5.085  1.00  0.00     0.046 A 
HETATM   11  O   UNL     1      43.733 -18.025   7.408  1.00  0.00    -0.266 OA
HETATM   12  C   UNL     1      43.181 -16.988   4.017  1.00  0.00     0.016 A 
HETATM   13  C   UNL     1      43.926 -19.137   4.860  1.00  0.00     0.018 A 
HETATM   14  C   UNL     1      43.279 -17.480   2.709  1.00  0.00     0.015 A 
HETATM   15  C   UNL     1      43.689 -18.798   2.483  1.00  0.00     0.001 A 
HETATM   16  C   UNL     1      44.009 -19.627   3.557  1.00  0.00     0.001 A 
ENDBRANCH   1   5
BRANCH   2  17
HETATM   17  C   UNL     1      40.222 -13.586   2.428  1.00  0.00     0.047 A 
HETATM   18  C   UNL     1      39.878 -13.751   1.061  1.00  0.00     0.019 A 
HETATM   19  C   UNL     1      39.105 -12.754   0.444  1.00  0.00     0.044 A 
HETATM   20  C   UNL     1      40.159 -14.704   0.032  1.00  0.00     0.033 A 
HETATM   21  N   UNL     1      38.899 -13.127  -0.866  1.00  0.00    -0.365 N 
HETATM   22  C   UNL     1      38.661 -11.604   1.106  1.00  0.00     0.030 A 
HETATM   23  H   UNL     1      38.365 -12.591  -1.536  1.00  0.00     0.165 HD
HETATM   24  C   UNL     1      39.542 -14.300  -1.129  1.00  0.00     0.089 A 
HETATM   25  C   UNL     1      39.025 -11.444   2.439  1.00  0.00     0.005 A 
HETATM   26  C   UNL     1      39.794 -12.410   3.083  1.00  0.00     0.030 A 
ENDBRANCH   2  17
TORSDOF 2
ENDMDL
MODEL 5
REMARK VINA RESULT:      -8.6      2.065      3.185
REMARK  2 active torsions:
REMARK  status: ('A' for Active; 'I' for Inactive)
REMARK    1  A    between atoms: C_4  and  C_5 
REMARK       I    between atoms: C_5  and  N_6 
REMARK    2  A    between atoms: N_6  and  C_7 
ROOT
HETATM    1  C   UNL     1      40.826 -15.516   2.123  1.00  0.00     0.277 C 
HETATM    2  N   UNL     1      42.159 -15.851   2.144  1.00  0.00    -0.321 N 
HETATM    3  O   UNL     1      39.911 -15.907   2.824  1.00  0.00    -0.266 OA
HETATM    4  H   UNL     1      42.643 -15.605   1.284  1.00  0.00     0.169 HD
ENDROOT
BRANCH   1   5
HETATM    5  C   UNL     1      40.525 -14.555   0.971  1.00  0.00     0.156 A 
HETATM    6  N   UNL     1      39.941 -15.091  -0.063  1.00  0.00    -0.164 NA
HETATM    7  N   UNL     1      39.649 -14.300  -1.144  1.00  0.00    -0.238 N 
HETATM    8  C   UNL     1      38.961 -14.939  -2.249  1.00  0.00     0.183 C 
HETATM    9  C   UNL     1      39.905 -12.934  -1.211  1.00  0.00     0.274 A 
HETATM   10  C   UNL     1      40.600 -12.340  -0.053  1.00  0.00     0.046 A 
HETATM   11  O   UNL     1      39.599 -12.227  -2.168  1.00  0.00    -0.266 OA
HETATM   12  C   UNL     1      40.926 -13.139   1.039  1.00  0.00     0.016 A 
HETATM   13  C   UNL     1      40.947 -10.982  -0.070  1.00  0.00     0.018 A 
HETATM   14  C   UNL     1      41.624 -12.579   2.116  1.00  0.00     0.015 A 
HETATM   15  C   UNL     1      41.971 -11.224   2.100  1.00  0.00     0.001 A 
HETATM   16  C   UNL     1      41.630 -10.425   1.010  1.00  0.00     0.001 A 
ENDBRANCH   1   5
BRANCH   2  17
HETATM   17  C   UNL     1      42.876 -16.630   3.071  1.00  0.00     0.047 A 
HETATM   18  C   UNL     1      43.202 -18.007   2.954  1.00  0.00     0.019 A 
HETATM   19  C   UNL     1      43.911 -18.613   4.005  1.00  0.00     0.044 A 
HETATM   20  C   UNL     1      42.952 -19.053   2.013  1.00  0.00     0.033 A 
HETATM   21  N   UNL     1      44.111 -19.935   3.673  1.00  0.00    -0.365 N 
HETATM   22  C   UNL     1      44.306 -17.933   5.161  1.00  0.00     0.030 A 
HETATM   23  H   UNL     1      44.603 -20.602   4.252  1.00  0.00     0.165 HD
HETATM   24  C   UNL     1      43.525 -20.215   2.474  1.00  0.00     0.089 A 
HETATM   25  C   UNL     1      43.959 -16.590   5.271  1.00  0.00     0.005 A 
HETATM   26  C   UNL     1      43.254 -15.956   4.252  1.00  0.00     0.030 A 
ENDBRANCH   2  17
TORSDOF 2
ENDMDL
MODEL 6
REMARK VINA RESULT:      -8.5      2.276      7.520
REMARK  2 active torsions:
REMARK  status: ('A' for Active; 'I' for Inactive)
REMARK    1  A    between atoms: C_4  and  C_5 
REMARK       I    between atoms: C_5  and  N_6 
REMARK    2  A    between atoms: N_6  and  C_7 
ROOT
HETATM    1  C   UNL     1      42.779 -15.470   2.124  1.00  0.00     0.277 C 
HETATM    2  N   UNL     1      41.415 -15.397   1.978  1.00  0.00    -0.321 N 
HETATM    3  O   UNL     1      43.655 -14.776   1.641  1.00  0.00    -0.266 OA
HETATM    4  H   UNL     1      40.940 -16.254   2.251  1.00  0.00     0.169 HD
ENDROOT
BRANCH   1   5
HETATM    5  C   UNL     1      43.170 -16.674   2.984  1.00  0.00     0.156 A 
HETATM    6  N   UNL     1      43.290 -17.801   2.341  1.00  0.00    -0.164 NA
HETATM    7  N   UNL     1      43.625 -18.931   3.041  1.00  0.00    -0.238 N 
HETATM    8  C   UNL     1      43.788 -20.148   2.269  1.00  0.00     0.183 C 
HETATM    9  C   UNL     1      43.883 -18.962   4.408  1.00  0.00     0.274 A 
HETATM   10  C   UNL     1      43.708 -17.692   5.137  1.00  0.00     0.046 A 
HETATM   11  O   UNL     1      44.224 -19.973   5.017  1.00  0.00    -0.266 OA
HETATM   12  C   UNL     1      43.342 -16.543   4.441  1.00  0.00     0.016 A 
HETATM   13  C   UNL     1      43.889 -17.654   6.526  1.00  0.00     0.018 A 
HETATM   14  C   UNL     1      43.136 -15.349   5.144  1.00  0.00     0.015 A 
HETATM   15  C   UNL     1      43.316 -15.311   6.531  1.00  0.00     0.001 A 
HETATM   16  C   UNL     1      43.696 -16.461   7.221  1.00  0.00     0.001 A 
ENDBRANCH   1   5
BRANCH   2  17
HETATM   17  C   UNL     1      40.629 -14.415   1.346  1.00  0.00     0.047 A 
HETATM   18  C   UNL     1      40.028 -13.282   1.956  1.00  0.00     0.019 A 
HETATM   19  C   UNL     1      39.258 -12.426   1.153  1.00  0.00     0.044 A 
HETATM   20  C   UNL     1      39.939 -12.745   3.277  1.00  0.00     0.033 A 
HETATM   21  N   UNL     1      38.782 -11.410   1.952  1.00  0.00    -0.365 N 
HETATM   22  C   UNL     1      39.046 -12.634  -0.215  1.00  0.00     0.030 A 
HETATM   23  H   UNL     1      38.204 -10.648   1.625  1.00  0.00     0.165 HD
HETATM   24  C   UNL     1      39.179 -11.599   3.242  1.00  0.00     0.089 A 
HETATM   25  C   UNL     1      39.622 -13.761  -0.793  1.00  0.00     0.005 A 
HETATM   26  C   UNL     1      40.389 -14.634  -0.028  1.00  0.00     0.030 A 
ENDBRANCH   2  17
TORSDOF 2
ENDMDL
MODEL 7
REMARK VINA RESULT:      -8.5      1.951      3.085
REMARK  2 active torsions:
REMARK  status: ('A' for Active; 'I' for Inactive)
REMARK    1  A    between atoms: C_4  and  C_5 
REMARK       I    between atoms: C_5  and  N_6 
REMARK    2  A    between atoms: N_6  and  C_7 
ROOT
HETATM    1  C   UNL     1      40.861 -15.155   1.672  1.00  0.00     0.277 C 
HETATM    2  N   UNL     1      42.184 -15.475   1.859  1.00  0.00    -0.321 N 
HETATM    3  O   UNL     1      39.857 -15.733   2.045  1.00  0.00    -0.266 OA
HETATM    4  H   UNL     1      42.804 -14.993   1.213  1.00  0.00     0.169 HD
ENDROOT
BRANCH   1   5
HETATM    5  C   UNL     1      40.721 -13.910   0.793  1.00  0.00     0.156 A 
HETATM    6  N   UNL     1      41.204 -12.812   1.302  1.00  0.00    -0.164 NA
HETATM    7  N   UNL     1      41.106 -11.649   0.583  1.00  0.00    -0.238 N 
HETATM    8  C   UNL     1      41.699 -10.466   1.178  1.00  0.00     0.183 C 
HETATM    9  C   UNL     1      40.549 -11.554  -0.688  1.00  0.00     0.274 A 
HETATM   10  C   UNL     1      39.970 -12.792  -1.243  1.00  0.00     0.046 A 
HETATM   11  O   UNL     1      40.506 -10.514  -1.341  1.00  0.00    -0.266 OA
HETATM   12  C   UNL     1      40.038 -13.974  -0.511  1.00  0.00     0.016 A 
HETATM   13  C   UNL     1      39.335 -12.766  -2.493  1.00  0.00     0.018 A 
HETATM   14  C   UNL     1      39.449 -15.136  -1.025  1.00  0.00     0.015 A 
HETATM   15  C   UNL     1      38.816 -15.111  -2.271  1.00  0.00     0.001 A 
HETATM   16  C   UNL     1      38.762 -13.928  -3.006  1.00  0.00     0.001 A 
ENDBRANCH   1   5
BRANCH   2  17
HETATM   17  C   UNL     1      42.762 -16.479   2.658  1.00  0.00     0.047 A 
HETATM   18  C   UNL     1      43.168 -16.362   4.013  1.00  0.00     0.019 A 
HETATM   19  C   UNL     1      43.749 -17.482   4.632  1.00  0.00     0.044 A 
HETATM   20  C   UNL     1      43.199 -15.326   4.997  1.00  0.00     0.033 A 
HETATM   21  N   UNL     1      44.058 -17.135   5.929  1.00  0.00    -0.365 N 
HETATM   22  C   UNL     1      43.954 -18.703   3.980  1.00  0.00     0.030 A 
HETATM   23  H   UNL     1      44.481 -17.760   6.602  1.00  0.00     0.165 HD
HETATM   24  C   UNL     1      43.740 -15.830   6.158  1.00  0.00     0.089 A 
HETATM   25  C   UNL     1      43.572 -18.795   2.646  1.00  0.00     0.005 A 
HETATM   26  C   UNL     1      42.997 -17.706   1.998  1.00  0.00     0.030 A 
ENDBRANCH   2  17
TORSDOF 2
ENDMDL
MODEL 8
REMARK VINA RESULT:      -8.4      2.796      7.416
REMARK  2 active torsions:
REMARK  status: ('A' for Active; 'I' for Inactive)
REMARK    1  A    between atoms: C_4  and  C_5 
REMARK       I    between atoms: C_5  and  N_6 
REMARK    2  A    between atoms: N_6  and  C_7 
ROOT
HETATM    1  C   UNL     1      40.715 -13.564   1.002  1.00  0.00     0.277 C 
HETATM    2  N   UNL     1      39.668 -14.220   0.399  1.00  0.00    -0.321 N 
HETATM    3  O   UNL     1      41.496 -12.751   0.543  1.00  0.00    -0.266 OA
HETATM    4  H   UNL     1      39.365 -15.042   0.916  1.00  0.00     0.169 HD
ENDROOT
BRANCH   1   5
HETATM    5  C   UNL     1      40.896 -14.040   2.445  1.00  0.00     0.156 A 
HETATM    6  N   UNL     1      40.291 -13.320   3.348  1.00  0.00    -0.164 NA
HETATM    7  N   UNL     1      40.415 -13.672   4.667  1.00  0.00    -0.238 N 
HETATM    8  C   UNL     1      39.687 -12.862   5.626  1.00  0.00     0.183 C 
HETATM    9  C   UNL     1      41.125 -14.778   5.123  1.00  0.00     0.274 A 
HETATM   10  C   UNL     1      41.838 -15.566   4.101  1.00  0.00     0.046 A 
HETATM   11  O   UNL     1      41.193 -15.108   6.305  1.00  0.00    -0.266 OA
HETATM   12  C   UNL     1      41.742 -15.204   2.760  1.00  0.00     0.016 A 
HETATM   13  C   UNL     1      42.624 -16.661   4.486  1.00  0.00     0.018 A 
HETATM   14  C   UNL     1      42.455 -15.930   1.798  1.00  0.00     0.015 A 
HETATM   15  C   UNL     1      43.240 -17.022   2.183  1.00  0.00     0.001 A 
HETATM   16  C   UNL     1      43.322 -17.389   3.525  1.00  0.00     0.001 A 
ENDBRANCH   1   5
BRANCH   2  17
HETATM   17  C   UNL     1      39.106 -14.036  -0.878  1.00  0.00     0.047 A 
HETATM   18  C   UNL     1      38.412 -12.889  -1.346  1.00  0.00     0.019 A 
HETATM   19  C   UNL     1      37.905 -12.908  -2.655  1.00  0.00     0.044 A 
HETATM   20  C   UNL     1      38.008 -11.631  -0.801  1.00  0.00     0.033 A 
HETATM   21  N   UNL     1      37.278 -11.702  -2.884  1.00  0.00    -0.365 N 
HETATM   22  C   UNL     1      38.042 -13.999  -3.520  1.00  0.00     0.030 A 
HETATM   23  H   UNL     1      36.831 -11.446  -3.753  1.00  0.00     0.165 HD
HETATM   24  C   UNL     1      37.325 -10.926  -1.764  1.00  0.00     0.089 A 
HETATM   25  C   UNL     1      38.704 -15.124  -3.039  1.00  0.00     0.005 A 
HETATM   26  C   UNL     1      39.218 -15.144  -1.746  1.00  0.00     0.030 A 
ENDBRANCH   2  17
TORSDOF 2
ENDMDL
MODEL 9
REMARK VINA RESULT:      -8.4      2.255      7.238
REMARK  2 active torsions:
REMARK  status: ('A' for Active; 'I' for Inactive)
REMARK    1  A    between atoms: C_4  and  C_5 
REMARK       I    between atoms: C_5  and  N_6 
REMARK    2  A    between atoms: N_6  and  C_7 
ROOT
HETATM    1  C   UNL     1      40.931 -15.546   2.329  1.00  0.00     0.277 C 
HETATM    2  N   UNL     1      41.520 -14.553   1.583  1.00  0.00    -0.321 N 
HETATM    3  O   UNL     1      39.758 -15.732   2.594  1.00  0.00    -0.266 OA
HETATM    4  H   UNL     1      42.519 -14.468   1.755  1.00  0.00     0.169 HD
ENDROOT
BRANCH   1   5
HETATM    5  C   UNL     1      41.989 -16.471   2.936  1.00  0.00     0.156 A 
HETATM    6  N   UNL     1      42.167 -17.599   2.310  1.00  0.00    -0.164 NA
HETATM    7  N   UNL     1      43.088 -18.489   2.799  1.00  0.00    -0.238 N 
HETATM    8  C   UNL     1      43.278 -19.710   2.038  1.00  0.00     0.183 C 
HETATM    9  C   UNL     1      43.886 -18.263   3.916  1.00  0.00     0.274 A 
HETATM   10  C   UNL     1      43.652 -17.001   4.643  1.00  0.00     0.046 A 
HETATM   11  O   UNL     1      44.738 -19.051   4.319  1.00  0.00    -0.266 OA
HETATM   12  C   UNL     1      42.701 -16.100   4.172  1.00  0.00     0.016 A 
HETATM   13  C   UNL     1      44.373 -16.726   5.813  1.00  0.00     0.018 A 
HETATM   14  C   UNL     1      42.453 -14.923   4.890  1.00  0.00     0.015 A 
HETATM   15  C   UNL     1      43.172 -14.649   6.058  1.00  0.00     0.001 A 
HETATM   16  C   UNL     1      44.133 -15.548   6.518  1.00  0.00     0.001 A 
ENDBRANCH   1   5
BRANCH   2  17
HETATM   17  C   UNL     1      40.928 -13.551   0.792  1.00  0.00     0.047 A 
HETATM   18  C   UNL     1      40.079 -13.742  -0.330  1.00  0.00     0.019 A 
HETATM   19  C   UNL     1      39.604 -12.606  -1.005  1.00  0.00     0.044 A 
HETATM   20  C   UNL     1      39.564 -14.859  -1.058  1.00  0.00     0.033 A 
HETATM   21  N   UNL     1      38.809 -13.033  -2.046  1.00  0.00    -0.365 N 
HETATM   22  C   UNL     1      39.930 -11.297  -0.634  1.00  0.00     0.030 A 
HETATM   23  H   UNL     1      38.332 -12.418  -2.691  1.00  0.00     0.165 HD
HETATM   24  C   UNL     1      38.786 -14.395  -2.094  1.00  0.00     0.089 A 
HETATM   25  C   UNL     1      40.781 -11.126   0.453  1.00  0.00     0.005 A 
HETATM   26  C   UNL     1      41.274 -12.228   1.145  1.00  0.00     0.030 A 
ENDBRANCH   2  17
TORSDOF 2
ENDMDL
MODEL 10
REMARK VINA RESULT:      -8.3      2.026      2.970
REMARK  2 active torsions:
REMARK  status: ('A' for Active; 'I' for Inactive)
REMARK    1  A    between atoms: C_4  and  C_5 
REMARK       I    between atoms: C_5  and  N_6 
REMARK    2  A    between atoms: N_6  and  C_7 
ROOT
HETATM    1  C   UNL     1      40.862 -13.842   1.967  1.00  0.00     0.277 C 
HETATM    2  N   UNL     1      42.144 -14.308   2.143  1.00  0.00    -0.321 N 
HETATM    3  O   UNL     1      39.850 -14.082   2.600  1.00  0.00    -0.266 OA
HETATM    4  H   UNL     1      42.728 -14.181   1.320  1.00  0.00     0.169 HD
ENDROOT
BRANCH   1   5
HETATM    5  C   UNL     1      40.773 -12.951   0.726  1.00  0.00     0.156 A 
HETATM    6  N   UNL     1      41.195 -11.729   0.888  1.00  0.00    -0.164 NA
HETATM    7  N   UNL     1      41.135 -10.862  -0.173  1.00  0.00    -0.238 N 
HETATM    8  C   UNL     1      41.658  -9.527   0.049  1.00  0.00     0.183 C 
HETATM    9  C   UNL     1      40.680 -11.203  -1.443  1.00  0.00     0.274 A 
HETATM   10  C   UNL     1      40.169 -12.576  -1.609  1.00  0.00     0.046 A 
HETATM   11  O   UNL     1      40.672 -10.429  -2.397  1.00  0.00    -0.266 OA
HETATM   12  C   UNL     1      40.198 -13.458  -0.532  1.00  0.00     0.016 A 
HETATM   13  C   UNL     1      39.637 -12.978  -2.842  1.00  0.00     0.018 A 
HETATM   14  C   UNL     1      39.673 -14.747  -0.684  1.00  0.00     0.015 A 
HETATM   15  C   UNL     1      39.141 -15.148  -1.914  1.00  0.00     0.001 A 
HETATM   16  C   UNL     1      39.126 -14.266  -2.993  1.00  0.00     0.001 A 
ENDBRANCH   1   5
BRANCH   2  17
HETATM   17  C   UNL     1      42.685 -15.079   3.189  1.00  0.00     0.047 A 
HETATM   18  C   UNL     1      43.061 -16.447   3.132  1.00  0.00     0.019 A 
HETATM   19  C   UNL     1      43.566 -17.046   4.298  1.00  0.00     0.044 A 
HETATM   20  C   UNL     1      43.025 -17.489   2.155  1.00  0.00     0.033 A 
HETATM   21  N   UNL     1      43.858 -18.360   4.006  1.00  0.00    -0.365 N 
HETATM   22  C   UNL     1      43.711 -16.367   5.513  1.00  0.00     0.030 A 
HETATM   23  H   UNL     1      44.245 -19.020   4.666  1.00  0.00     0.165 HD
HETATM   24  C   UNL     1      43.525 -18.642   2.714  1.00  0.00     0.089 A 
HETATM   25  C   UNL     1      43.317 -15.034   5.559  1.00  0.00     0.005 A 
HETATM   26  C   UNL     1      42.809 -14.407   4.425  1.00  0.00     0.030 A 
ENDBRANCH   2  17
TORSDOF 2
ENDMDL
