MODEL 1
REMARK VINA RESULT:      -8.3      0.000      0.000
REMARK  8 active torsions:
REMARK  status: ('A' for Active; 'I' for Inactive)
REMARK       I    between atoms: N_2  and  C_3 
REMARK       I    between atoms: C_3  and  N_4 
REMARK       I    between atoms: N_4  and  C_5 
REMARK    1  A    between atoms: C_5  and  C_6 
REMARK    2  A    between atoms: C_6  and  N_7 
REMARK    3  A    between atoms: N_7  and  C_8 
REMARK    4  A    between atoms: C_9  and  C_10 
REMARK       I    between atoms: C_10  and  N_11 
REMARK    5  A    between atoms: N_11  and  C_12 
REMARK    6  A    between atoms: C_12  and  C_13 
REMARK    7  A    between atoms: C_13  and  C_14 
REMARK    8  A    between atoms: C_17  and  O_18 
ROOT
HETATM    1  C   UNL     1      43.736 -18.211   4.324  1.00  0.00     0.024 A 
HETATM    2  C   UNL     1      43.242 -18.137   3.003  1.00  0.00     0.053 A 
HETATM    3  C   UNL     1      43.194 -19.292   2.200  1.00  0.00     0.019 A 
HETATM    4  C   UNL     1      43.638 -20.516   2.697  1.00  0.00     0.001 A 
HETATM    5  C   UNL     1      44.137 -20.596   3.993  1.00  0.00     0.002 A 
HETATM    6  C   UNL     1      44.191 -19.454   4.795  1.00  0.00     0.024 A 
ENDROOT
BRANCH   2   7
HETATM    7  C   UNL     1      42.754 -16.863   2.408  1.00  0.00     0.253 C 
HETATM    8  N   UNL     1      41.542 -16.400   2.887  1.00  0.00    -0.357 N 
HETATM    9  H   UNL     1      41.192 -16.782   3.758  1.00  0.00     0.162 HD
HETATM   10  O   UNL     1      43.392 -16.281   1.539  1.00  0.00    -0.268 OA
BRANCH   8  11
HETATM   11  C   UNL     1      41.027 -15.116   2.445  1.00  0.00     0.127 C 
BRANCH  11  12
HETATM   12  C   UNL     1      39.996 -15.240   1.320  1.00  0.00     0.058 C 
BRANCH  12  13
HETATM   13  C   UNL     1      40.128 -14.318   0.127  1.00  0.00    -0.057 A 
HETATM   14  C   UNL     1      40.815 -13.100   0.165  1.00  0.00     0.010 A 
HETATM   15  C   UNL     1      40.957 -12.328  -0.994  1.00  0.00     0.037 A 
HETATM   16  C   UNL     1      40.439 -12.765  -2.213  1.00  0.00     0.068 A 
HETATM   17  C   UNL     1      39.750 -13.974  -2.263  1.00  0.00     0.037 A 
HETATM   18  C   UNL     1      39.601 -14.743  -1.103  1.00  0.00     0.010 A 
BRANCH  16  19
HETATM   19  O   UNL     1      40.668 -11.929  -3.271  1.00  0.00    -0.356 OA
HETATM   20  C   UNL     1      40.434 -10.544  -3.048  1.00  0.00     0.210 C 
ENDBRANCH  16  19
ENDBRANCH  12  13
ENDBRANCH  11  12
ENDBRANCH   8  11
ENDBRANCH   2   7
BRANCH   1  21
HETATM   21  N   UNL     1      43.828 -17.095   5.186  1.00  0.00    -0.283 NA
HETATM   22  H   UNL     1      43.551 -16.243   4.697  1.00  0.00     0.128 HD
BRANCH  21  23
HETATM   23  C   UNL     1      43.003 -17.229   6.421  1.00  0.00     0.195 C 
BRANCH  23  24
HETATM   24  C   UNL     1      42.042 -16.039   6.546  1.00  0.00     0.238 C 
HETATM   25  N   UNL     1      42.555 -14.881   5.981  1.00  0.00    -0.278 N 
HETATM   26  C   UNL     1      41.977 -13.658   5.778  1.00  0.00     0.322 C 
HETATM   27  H   UNL     1      43.507 -14.967   5.639  1.00  0.00     0.173 HD
HETATM   28  N   UNL     1      40.693 -13.531   6.219  1.00  0.00    -0.347 N 
HETATM   29  O   UNL     1      42.592 -12.763   5.203  1.00  0.00    -0.247 OA
HETATM   30  C   UNL     1      39.998 -12.274   6.162  1.00  0.00     0.151 C 
HETATM   31  H   UNL     1      40.365 -14.256   6.854  1.00  0.00     0.163 HD
HETATM   32  O   UNL     1      40.948 -16.119   7.103  1.00  0.00    -0.272 OA
ENDBRANCH  23  24
ENDBRANCH  21  23
ENDBRANCH   1  21
TORSDOF 8
ENDMDL
MODEL 2
REMARK VINA RESULT:      -8.3      2.131      5.311
REMARK  8 active torsions:
REMARK  status: ('A' for Active; 'I' for Inactive)
REMARK       I    between atoms: N_2  and  C_3 
REMARK       I    between atoms: C_3  and  N_4 
REMARK       I    between atoms: N_4  and  C_5 
REMARK    1  A    between atoms: C_5  and  C_6 
REMARK    2  A    between atoms: C_6  and  N_7 
REMARK    3  A    between atoms: N_7  and  C_8 
REMARK    4  A    between atoms: C_9  and  C_10 
REMARK       I    between atoms: C_10  and  N_11 
REMARK    5  A    between atoms: N_11  and  C_12 
REMARK    6  A    between atoms: C_12  and  C_13 
REMARK    7  A    between atoms: C_13  and  C_14 
REMARK    8  A    between atoms: C_17  and  O_18 
ROOT
HETATM    1  C   UNL     1      42.907 -17.496   3.209  1.00  0.00     0.024 A 
HETATM    2  C   UNL     1      43.626 -17.962   4.331  1.00  0.00     0.053 A 
HETATM    3  C   UNL     1      44.149 -19.268   4.344  1.00  0.00     0.019 A 
HETATM    4  C   UNL     1      43.958 -20.116   3.255  1.00  0.00     0.001 A 
HETATM    5  C   UNL     1      43.241 -19.669   2.150  1.00  0.00     0.002 A 
HETATM    6  C   UNL     1      42.716 -18.375   2.130  1.00  0.00     0.024 A 
ENDROOT
BRANCH   2   7
HETATM    7  C   UNL     1      43.865 -17.112   5.530  1.00  0.00     0.253 C 
HETATM    8  N   UNL     1      42.743 -16.788   6.271  1.00  0.00    -0.357 N 
HETATM    9  H   UNL     1      41.899 -17.330   6.127  1.00  0.00     0.162 HD
HETATM   10  O   UNL     1      44.989 -16.720   5.820  1.00  0.00    -0.268 OA
BRANCH   8  11
HETATM   11  C   UNL     1      42.880 -16.047   7.513  1.00  0.00     0.127 C 
BRANCH  11  12
HETATM   12  C   UNL     1      42.966 -14.533   7.301  1.00  0.00     0.058 C 
BRANCH  12  13
HETATM   13  C   UNL     1      42.257 -13.941   6.102  1.00  0.00    -0.057 A 
HETATM   14  C   UNL     1      40.867 -13.952   5.942  1.00  0.00     0.010 A 
HETATM   15  C   UNL     1      40.273 -13.325   4.841  1.00  0.00     0.037 A 
HETATM   16  C   UNL     1      41.049 -12.658   3.892  1.00  0.00     0.068 A 
HETATM   17  C   UNL     1      42.433 -12.643   4.038  1.00  0.00     0.037 A 
HETATM   18  C   UNL     1      43.029 -13.277   5.135  1.00  0.00     0.010 A 
BRANCH  16  19
HETATM   19  O   UNL     1      40.342 -12.069   2.880  1.00  0.00    -0.356 OA
HETATM   20  C   UNL     1      38.969 -12.423   2.773  1.00  0.00     0.210 C 
ENDBRANCH  16  19
ENDBRANCH  12  13
ENDBRANCH  11  12
ENDBRANCH   8  11
ENDBRANCH   2   7
BRANCH   1  21
HETATM   21  N   UNL     1      42.341 -16.203   3.127  1.00  0.00    -0.283 NA
HETATM   22  H   UNL     1      42.658 -15.626   3.906  1.00  0.00     0.128 HD
BRANCH  21  23
HETATM   23  C   UNL     1      42.652 -15.499   1.850  1.00  0.00     0.195 C 
BRANCH  23  24
HETATM   24  C   UNL     1      41.354 -15.049   1.165  1.00  0.00     0.238 C 
HETATM   25  N   UNL     1      41.516 -13.879   0.438  1.00  0.00    -0.278 N 
HETATM   26  C   UNL     1      40.655 -13.226  -0.399  1.00  0.00     0.322 C 
HETATM   27  H   UNL     1      42.435 -13.457   0.524  1.00  0.00     0.173 HD
HETATM   28  N   UNL     1      39.421 -13.790  -0.535  1.00  0.00    -0.347 N 
HETATM   29  O   UNL     1      41.012 -12.215  -1.000  1.00  0.00    -0.247 OA
HETATM   30  C   UNL     1      38.384 -13.157  -1.303  1.00  0.00     0.151 C 
HETATM   31  H   UNL     1      39.172 -14.492   0.158  1.00  0.00     0.163 HD
HETATM   32  O   UNL     1      40.293 -15.663   1.275  1.00  0.00    -0.272 OA
ENDBRANCH  23  24
ENDBRANCH  21  23
ENDBRANCH   1  21
TORSDOF 8
ENDMDL
MODEL 3
REMARK VINA RESULT:      -7.9      3.492      7.375
REMARK  8 active torsions:
REMARK  status: ('A' for Active; 'I' for Inactive)
REMARK       I    between atoms: N_2  and  C_3 
REMARK       I    between atoms: C_3  and  N_4 
REMARK       I    between atoms: N_4  and  C_5 
REMARK    1  A    between atoms: C_5  and  C_6 
REMARK    2  A    between atoms: C_6  and  N_7 
REMARK    3  A    between atoms: N_7  and  C_8 
REMARK    4  A    between atoms: C_9  and  C_10 
REMARK       I    between atoms: C_10  and  N_11 
REMARK    5  A    between atoms: N_11  and  C_12 
REMARK    6  A    between atoms: C_12  and  C_13 
REMARK    7  A    between atoms: C_13  and  C_14 
REMARK    8  A    between atoms: C_17  and  O_18 
ROOT
HETATM    1  C   UNL     1      42.675 -16.696   3.223  1.00  0.00     0.024 A 
HETATM    2  C   UNL     1      43.211 -16.850   4.521  1.00  0.00     0.053 A 
HETATM    3  C   UNL     1      43.906 -18.024   4.865  1.00  0.00     0.019 A 
HETATM    4  C   UNL     1      44.069 -19.047   3.932  1.00  0.00     0.001 A 
HETATM    5  C   UNL     1      43.536 -18.909   2.655  1.00  0.00     0.002 A 
HETATM    6  C   UNL     1      42.841 -17.749   2.307  1.00  0.00     0.024 A 
ENDROOT
BRANCH   2   7
HETATM    7  C   UNL     1      43.071 -15.800   5.567  1.00  0.00     0.253 C 
HETATM    8  N   UNL     1      43.295 -14.501   5.148  1.00  0.00    -0.357 N 
HETATM    9  H   UNL     1      43.282 -14.307   4.153  1.00  0.00     0.162 HD
HETATM   10  O   UNL     1      42.789 -16.086   6.724  1.00  0.00    -0.268 OA
BRANCH   8  11
HETATM   11  C   UNL     1      43.087 -13.394   6.066  1.00  0.00     0.127 C 
BRANCH  11  12
HETATM   12  C   UNL     1      44.371 -12.956   6.776  1.00  0.00     0.058 C 
BRANCH  12  13
HETATM   13  C   UNL     1      44.490 -11.509   7.204  1.00  0.00    -0.057 A 
HETATM   14  C   UNL     1      43.388 -10.693   7.481  1.00  0.00     0.010 A 
HETATM   15  C   UNL     1      43.572  -9.384   7.940  1.00  0.00     0.037 A 
HETATM   16  C   UNL     1      44.852  -8.872   8.152  1.00  0.00     0.068 A 
HETATM   17  C   UNL     1      45.956  -9.674   7.877  1.00  0.00     0.037 A 
HETATM   18  C   UNL     1      45.774 -10.981   7.411  1.00  0.00     0.010 A 
BRANCH  16  19
HETATM   19  O   UNL     1      44.890  -7.588   8.623  1.00  0.00    -0.356 OA
HETATM   20  C   UNL     1      43.657  -7.036   9.065  1.00  0.00     0.210 C 
ENDBRANCH  16  19
ENDBRANCH  12  13
ENDBRANCH  11  12
ENDBRANCH   8  11
ENDBRANCH   2   7
BRANCH   1  21
HETATM   21  N   UNL     1      41.954 -15.554   2.807  1.00  0.00    -0.283 NA
HETATM   22  H   UNL     1      42.381 -15.148   1.973  1.00  0.00     0.128 HD
BRANCH  21  23
HETATM   23  C   UNL     1      40.516 -15.831   2.524  1.00  0.00     0.195 C 
BRANCH  23  24
HETATM   24  C   UNL     1      39.897 -14.661   1.747  1.00  0.00     0.238 C 
HETATM   25  N   UNL     1      39.955 -14.847   0.373  1.00  0.00    -0.278 N 
HETATM   26  C   UNL     1      39.416 -14.112  -0.646  1.00  0.00     0.322 C 
HETATM   27  H   UNL     1      40.457 -15.680   0.084  1.00  0.00     0.173 HD
HETATM   28  N   UNL     1      38.725 -12.998  -0.272  1.00  0.00    -0.347 N 
HETATM   29  O   UNL     1      39.538 -14.479  -1.813  1.00  0.00    -0.247 OA
HETATM   30  C   UNL     1      38.194 -12.080  -1.242  1.00  0.00     0.151 C 
HETATM   31  H   UNL     1      38.867 -12.686   0.687  1.00  0.00     0.163 HD
HETATM   32  O   UNL     1      39.421 -13.670   2.299  1.00  0.00    -0.272 OA
ENDBRANCH  23  24
ENDBRANCH  21  23
ENDBRANCH   1  21
TORSDOF 8
ENDMDL
MODEL 4
REMARK VINA RESULT:      -7.9      3.194      6.706
REMARK  8 active torsions:
REMARK  status: ('A' for Active; 'I' for Inactive)
REMARK       I    between atoms: N_2  and  C_3 
REMARK       I    between atoms: C_3  and  N_4 
REMARK       I    between atoms: N_4  and  C_5 
REMARK    1  A    between atoms: C_5  and  C_6 
REMARK    2  A    between atoms: C_6  and  N_7 
REMARK    3  A    between atoms: N_7  and  C_8 
REMARK    4  A    between atoms: C_9  and  C_10 
REMARK       I    between atoms: C_10  and  N_11 
REMARK    5  A    between atoms: N_11  and  C_12 
REMARK    6  A    between atoms: C_12  and  C_13 
REMARK    7  A    between atoms: C_13  and  C_14 
REMARK    8  A    between atoms: C_17  and  O_18 
ROOT
HETATM    1  C   UNL     1      42.575 -16.586   2.669  1.00  0.00     0.024 A 
HETATM    2  C   UNL     1      43.156 -16.137   3.876  1.00  0.00     0.053 A 
HETATM    3  C   UNL     1      43.947 -17.008   4.648  1.00  0.00     0.019 A 
HETATM    4  C   UNL     1      44.160 -18.322   4.234  1.00  0.00     0.001 A 
HETATM    5  C   UNL     1      43.582 -18.777   3.053  1.00  0.00     0.002 A 
HETATM    6  C   UNL     1      42.793 -17.919   2.282  1.00  0.00     0.024 A 
ENDROOT
BRANCH   2   7
HETATM    7  C   UNL     1      42.968 -14.748   4.379  1.00  0.00     0.253 C 
HETATM    8  N   UNL     1      43.237 -13.739   3.472  1.00  0.00    -0.357 N 
HETATM    9  H   UNL     1      43.287 -13.977   2.489  1.00  0.00     0.162 HD
HETATM   10  O   UNL     1      42.612 -14.531   5.530  1.00  0.00    -0.268 OA
BRANCH   8  11
HETATM   11  C   UNL     1      42.989 -12.353   3.832  1.00  0.00     0.127 C 
BRANCH  11  12
HETATM   12  C   UNL     1      44.267 -11.591   4.192  1.00  0.00     0.058 C 
BRANCH  12  13
HETATM   13  C   UNL     1      44.582 -11.381   5.657  1.00  0.00    -0.057 A 
HETATM   14  C   UNL     1      45.878 -11.202   6.151  1.00  0.00     0.010 A 
HETATM   15  C   UNL     1      46.091 -10.944   7.510  1.00  0.00     0.037 A 
HETATM   16  C   UNL     1      45.019 -10.840   8.396  1.00  0.00     0.068 A 
HETATM   17  C   UNL     1      43.724 -11.020   7.917  1.00  0.00     0.037 A 
HETATM   18  C   UNL     1      43.510 -11.285   6.560  1.00  0.00     0.010 A 
BRANCH  16  19
HETATM   19  O   UNL     1      45.364 -10.563   9.690  1.00  0.00    -0.356 OA
HETATM   20  C   UNL     1      44.346 -10.012  10.516  1.00  0.00     0.210 C 
ENDBRANCH  16  19
ENDBRANCH  12  13
ENDBRANCH  11  12
ENDBRANCH   8  11
ENDBRANCH   2   7
BRANCH   1  21
HETATM   21  N   UNL     1      41.759 -15.776   1.847  1.00  0.00    -0.283 NA
HETATM   22  H   UNL     1      41.818 -16.083   0.875  1.00  0.00     0.128 HD
BRANCH  21  23
HETATM   23  C   UNL     1      40.327 -15.762   2.261  1.00  0.00     0.195 C 
BRANCH  23  24
HETATM   24  C   UNL     1      39.879 -14.326   2.564  1.00  0.00     0.238 C 
HETATM   25  N   UNL     1      39.731 -14.093   3.923  1.00  0.00    -0.278 N 
HETATM   26  C   UNL     1      39.469 -12.935   4.603  1.00  0.00     0.322 C 
HETATM   27  H   UNL     1      39.865 -14.912   4.506  1.00  0.00     0.173 HD
HETATM   28  N   UNL     1      39.301 -11.822   3.833  1.00  0.00    -0.347 N 
HETATM   29  O   UNL     1      39.428 -12.927   5.831  1.00  0.00    -0.247 OA
HETATM   30  C   UNL     1      38.922 -10.560   4.407  1.00  0.00     0.151 C 
HETATM   31  H   UNL     1      39.151 -11.985   2.840  1.00  0.00     0.163 HD
HETATM   32  O   UNL     1      39.664 -13.494   1.684  1.00  0.00    -0.272 OA
ENDBRANCH  23  24
ENDBRANCH  21  23
ENDBRANCH   1  21
TORSDOF 8
ENDMDL
MODEL 5
REMARK VINA RESULT:      -7.8      2.610      5.578
REMARK  8 active torsions:
REMARK  status: ('A' for Active; 'I' for Inactive)
REMARK       I    between atoms: N_2  and  C_3 
REMARK       I    between atoms: C_3  and  N_4 
REMARK       I    between atoms: N_4  and  C_5 
REMARK    1  A    between atoms: C_5  and  C_6 
REMARK    2  A    between atoms: C_6  and  N_7 
REMARK    3  A    between atoms: N_7  and  C_8 
REMARK    4  A    between atoms: C_9  and  C_10 
REMARK       I    between atoms: C_10  and  N_11 
REMARK    5  A    between atoms: N_11  and  C_12 
REMARK    6  A    between atoms: C_12  and  C_13 
REMARK    7  A    between atoms: C_13  and  C_14 
REMARK    8  A    between atoms: C_17  and  O_18 
ROOT
HETATM    1  C   UNL     1      42.411 -16.902   3.145  1.00  0.00     0.024 A 
HETATM    2  C   UNL     1      43.001 -16.721   4.416  1.00  0.00     0.053 A 
HETATM    3  C   UNL     1      43.994 -17.610   4.868  1.00  0.00     0.019 A 
HETATM    4  C   UNL     1      44.401 -18.678   4.071  1.00  0.00     0.001 A 
HETATM    5  C   UNL     1      43.818 -18.871   2.823  1.00  0.00     0.002 A 
HETATM    6  C   UNL     1      42.830 -17.995   2.368  1.00  0.00     0.024 A 
ENDROOT
BRANCH   2   7
HETATM    7  C   UNL     1      42.612 -15.604   5.320  1.00  0.00     0.253 C 
HETATM    8  N   UNL     1      43.642 -15.028   6.042  1.00  0.00    -0.357 N 
HETATM    9  H   UNL     1      44.594 -15.202   5.743  1.00  0.00     0.162 HD
HETATM   10  O   UNL     1      41.446 -15.240   5.418  1.00  0.00    -0.268 OA
BRANCH   8  11
HETATM   11  C   UNL     1      43.385 -13.868   6.877  1.00  0.00     0.127 C 
BRANCH  11  12
HETATM   12  C   UNL     1      44.061 -12.596   6.358  1.00  0.00     0.058 C 
BRANCH  12  13
HETATM   13  C   UNL     1      43.411 -11.864   5.203  1.00  0.00    -0.057 A 
HETATM   14  C   UNL     1      43.550 -12.251   3.867  1.00  0.00     0.010 A 
HETATM   15  C   UNL     1      42.865 -11.570   2.855  1.00  0.00     0.037 A 
HETATM   16  C   UNL     1      42.013 -10.507   3.156  1.00  0.00     0.068 A 
HETATM   17  C   UNL     1      41.869 -10.110   4.483  1.00  0.00     0.037 A 
HETATM   18  C   UNL     1      42.560 -10.786   5.495  1.00  0.00     0.010 A 
BRANCH  16  19
HETATM   19  O   UNL     1      41.388  -9.944   2.078  1.00  0.00    -0.356 OA
HETATM   20  C   UNL     1      41.273 -10.754   0.915  1.00  0.00     0.210 C 
ENDBRANCH  16  19
ENDBRANCH  12  13
ENDBRANCH  11  12
ENDBRANCH   8  11
ENDBRANCH   2   7
BRANCH   1  21
HETATM   21  N   UNL     1      41.400 -16.061   2.627  1.00  0.00    -0.283 NA
HETATM   22  H   UNL     1      40.976 -15.512   3.376  1.00  0.00     0.128 HD
BRANCH  21  23
HETATM   23  C   UNL     1      41.886 -15.132   1.567  1.00  0.00     0.195 C 
BRANCH  23  24
HETATM   24  C   UNL     1      40.700 -14.406   0.917  1.00  0.00     0.238 C 
HETATM   25  N   UNL     1      40.831 -14.305  -0.460  1.00  0.00    -0.278 N 
HETATM   26  C   UNL     1      39.955 -13.847  -1.405  1.00  0.00     0.322 C 
HETATM   27  H   UNL     1      41.711 -14.653  -0.824  1.00  0.00     0.173 HD
HETATM   28  N   UNL     1      38.760 -13.390  -0.931  1.00  0.00    -0.347 N 
HETATM   29  O   UNL     1      40.243 -13.891  -2.599  1.00  0.00    -0.247 OA
HETATM   30  C   UNL     1      37.787 -12.788  -1.800  1.00  0.00     0.151 C 
HETATM   31  H   UNL     1      38.716 -13.210   0.069  1.00  0.00     0.163 HD
HETATM   32  O   UNL     1      39.757 -13.955   1.565  1.00  0.00    -0.272 OA
ENDBRANCH  23  24
ENDBRANCH  21  23
ENDBRANCH   1  21
TORSDOF 8
ENDMDL
MODEL 6
REMARK VINA RESULT:      -7.8      3.127      7.012
REMARK  8 active torsions:
REMARK  status: ('A' for Active; 'I' for Inactive)
REMARK       I    between atoms: N_2  and  C_3 
REMARK       I    between atoms: C_3  and  N_4 
REMARK       I    between atoms: N_4  and  C_5 
REMARK    1  A    between atoms: C_5  and  C_6 
REMARK    2  A    between atoms: C_6  and  N_7 
REMARK    3  A    between atoms: N_7  and  C_8 
REMARK    4  A    between atoms: C_9  and  C_10 
REMARK       I    between atoms: C_10  and  N_11 
REMARK    5  A    between atoms: N_11  and  C_12 
REMARK    6  A    between atoms: C_12  and  C_13 
REMARK    7  A    between atoms: C_13  and  C_14 
REMARK    8  A    between atoms: C_17  and  O_18 
ROOT
HETATM    1  C   UNL     1      42.896 -16.790   2.749  1.00  0.00     0.024 A 
HETATM    2  C   UNL     1      43.232 -16.149   3.962  1.00  0.00     0.053 A 
HETATM    3  C   UNL     1      43.970 -16.835   4.944  1.00  0.00     0.019 A 
HETATM    4  C   UNL     1      44.372 -18.153   4.733  1.00  0.00     0.001 A 
HETATM    5  C   UNL     1      44.036 -18.796   3.546  1.00  0.00     0.002 A 
HETATM    6  C   UNL     1      43.301 -18.123   2.567  1.00  0.00     0.024 A 
ENDROOT
BRANCH   2   7
HETATM    7  C   UNL     1      42.834 -14.744   4.254  1.00  0.00     0.253 C 
HETATM    8  N   UNL     1      43.075 -13.828   3.246  1.00  0.00    -0.357 N 
HETATM    9  H   UNL     1      43.253 -14.178   2.312  1.00  0.00     0.162 HD
HETATM   10  O   UNL     1      42.338 -14.434   5.330  1.00  0.00    -0.268 OA
BRANCH   8  11
HETATM   11  C   UNL     1      42.632 -12.453   3.392  1.00  0.00     0.127 C 
BRANCH  11  12
HETATM   12  C   UNL     1      43.744 -11.514   3.868  1.00  0.00     0.058 C 
BRANCH  12  13
HETATM   13  C   UNL     1      43.858 -11.240   5.352  1.00  0.00    -0.057 A 
HETATM   14  C   UNL     1      42.810 -10.735   6.128  1.00  0.00     0.010 A 
HETATM   15  C   UNL     1      42.963 -10.571   7.509  1.00  0.00     0.037 A 
HETATM   16  C   UNL     1      44.153 -10.925   8.144  1.00  0.00     0.068 A 
HETATM   17  C   UNL     1      45.206 -11.424   7.382  1.00  0.00     0.037 A 
HETATM   18  C   UNL     1      45.056 -11.583   6.000  1.00  0.00     0.010 A 
BRANCH  16  19
HETATM   19  O   UNL     1      44.163 -10.735   9.499  1.00  0.00    -0.356 OA
HETATM   20  C   UNL     1      45.285 -10.046  10.037  1.00  0.00     0.210 C 
ENDBRANCH  16  19
ENDBRANCH  12  13
ENDBRANCH  11  12
ENDBRANCH   8  11
ENDBRANCH   2   7
BRANCH   1  21
HETATM   21  N   UNL     1      42.148 -16.172   1.721  1.00  0.00    -0.283 NA
HETATM   22  H   UNL     1      42.355 -16.605   0.820  1.00  0.00     0.128 HD
BRANCH  21  23
HETATM   23  C   UNL     1      40.675 -16.220   1.949  1.00  0.00     0.195 C 
BRANCH  23  24
HETATM   24  C   UNL     1      40.019 -14.932   1.434  1.00  0.00     0.238 C 
HETATM   25  N   UNL     1      39.934 -14.897   0.050  1.00  0.00    -0.278 N 
HETATM   26  C   UNL     1      39.321 -14.000  -0.781  1.00  0.00     0.322 C 
HETATM   27  H   UNL     1      40.378 -15.681  -0.417  1.00  0.00     0.173 HD
HETATM   28  N   UNL     1      38.707 -12.949  -0.166  1.00  0.00    -0.347 N 
HETATM   29  O   UNL     1      39.314 -14.178  -1.997  1.00  0.00    -0.247 OA
HETATM   30  C   UNL     1      38.111 -11.880  -0.920  1.00  0.00     0.151 C 
HETATM   31  H   UNL     1      38.952 -12.797   0.809  1.00  0.00     0.163 HD
HETATM   32  O   UNL     1      39.632 -14.034   2.181  1.00  0.00    -0.272 OA
ENDBRANCH  23  24
ENDBRANCH  21  23
ENDBRANCH   1  21
TORSDOF 8
ENDMDL
MODEL 7
REMARK VINA RESULT:      -7.8      1.159      1.623
REMARK  8 active torsions:
REMARK  status: ('A' for Active; 'I' for Inactive)
REMARK       I    between atoms: N_2  and  C_3 
REMARK       I    between atoms: C_3  and  N_4 
REMARK       I    between atoms: N_4  and  C_5 
REMARK    1  A    between atoms: C_5  and  C_6 
REMARK    2  A    between atoms: C_6  and  N_7 
REMARK    3  A    between atoms: N_7  and  C_8 
REMARK    4  A    between atoms: C_9  and  C_10 
REMARK       I    between atoms: C_10  and  N_11 
REMARK    5  A    between atoms: N_11  and  C_12 
REMARK    6  A    between atoms: C_12  and  C_13 
REMARK    7  A    between atoms: C_13  and  C_14 
REMARK    8  A    between atoms: C_17  and  O_18 
ROOT
HETATM    1  C   UNL     1      43.358 -16.981   4.807  1.00  0.00     0.024 A 
HETATM    2  C   UNL     1      42.905 -16.898   3.472  1.00  0.00     0.053 A 
HETATM    3  C   UNL     1      43.157 -17.950   2.572  1.00  0.00     0.019 A 
HETATM    4  C   UNL     1      43.859 -19.080   2.987  1.00  0.00     0.001 A 
HETATM    5  C   UNL     1      44.319 -19.166   4.297  1.00  0.00     0.002 A 
HETATM    6  C   UNL     1      44.076 -18.125   5.195  1.00  0.00     0.024 A 
ENDROOT
BRANCH   2   7
HETATM    7  C   UNL     1      42.153 -15.719   2.961  1.00  0.00     0.253 C 
HETATM    8  N   UNL     1      41.123 -15.998   2.080  1.00  0.00    -0.357 N 
HETATM    9  H   UNL     1      40.776 -16.949   2.032  1.00  0.00     0.162 HD
HETATM   10  O   UNL     1      42.448 -14.579   3.299  1.00  0.00    -0.268 OA
BRANCH   8  11
HETATM   11  C   UNL     1      40.265 -14.929   1.602  1.00  0.00     0.127 C 
BRANCH  11  12
HETATM   12  C   UNL     1      39.854 -15.101   0.137  1.00  0.00     0.058 C 
BRANCH  12  13
HETATM   13  C   UNL     1      40.202 -13.995  -0.835  1.00  0.00    -0.057 A 
HETATM   14  C   UNL     1      39.970 -14.075  -2.212  1.00  0.00     0.010 A 
HETATM   15  C   UNL     1      40.253 -12.986  -3.045  1.00  0.00     0.037 A 
HETATM   16  C   UNL     1      40.752 -11.793  -2.520  1.00  0.00     0.068 A 
HETATM   17  C   UNL     1      40.991 -11.703  -1.151  1.00  0.00     0.037 A 
HETATM   18  C   UNL     1      40.715 -12.794  -0.319  1.00  0.00     0.010 A 
BRANCH  16  19
HETATM   19  O   UNL     1      40.964 -10.802  -3.438  1.00  0.00    -0.356 OA
HETATM   20  C   UNL     1      40.310  -9.563  -3.198  1.00  0.00     0.210 C 
ENDBRANCH  16  19
ENDBRANCH  12  13
ENDBRANCH  11  12
ENDBRANCH   8  11
ENDBRANCH   2   7
BRANCH   1  21
HETATM   21  N   UNL     1      43.156 -15.961   5.765  1.00  0.00    -0.283 NA
HETATM   22  H   UNL     1      43.045 -15.058   5.304  1.00  0.00     0.128 HD
BRANCH  21  23
HETATM   23  C   UNL     1      41.977 -16.200   6.646  1.00  0.00     0.195 C 
BRANCH  23  24
HETATM   24  C   UNL     1      41.005 -15.015   6.559  1.00  0.00     0.238 C 
HETATM   25  N   UNL     1      41.643 -13.829   6.229  1.00  0.00    -0.278 N 
HETATM   26  C   UNL     1      41.131 -12.594   5.940  1.00  0.00     0.322 C 
HETATM   27  H   UNL     1      42.654 -13.899   6.169  1.00  0.00     0.173 HD
HETATM   28  N   UNL     1      39.772 -12.488   6.004  1.00  0.00    -0.347 N 
HETATM   29  O   UNL     1      41.872 -11.670   5.615  1.00  0.00    -0.247 OA
HETATM   30  C   UNL     1      39.107 -11.228   5.823  1.00  0.00     0.151 C 
HETATM   31  H   UNL     1      39.287 -13.247   6.478  1.00  0.00     0.163 HD
HETATM   32  O   UNL     1      39.799 -15.124   6.777  1.00  0.00    -0.272 OA
ENDBRANCH  23  24
ENDBRANCH  21  23
ENDBRANCH   1  21
TORSDOF 8
ENDMDL
MODEL 8
REMARK VINA RESULT:      -7.5      4.533      8.293
REMARK  8 active torsions:
REMARK  status: ('A' for Active; 'I' for Inactive)
REMARK       I    between atoms: N_2  and  C_3 
REMARK       I    between atoms: C_3  and  N_4 
REMARK       I    between atoms: N_4  and  C_5 
REMARK    1  A    between atoms: C_5  and  C_6 
REMARK    2  A    between atoms: C_6  and  N_7 
REMARK    3  A    between atoms: N_7  and  C_8 
REMARK    4  A    between atoms: C_9  and  C_10 
REMARK       I    between atoms: C_10  and  N_11 
REMARK    5  A    between atoms: N_11  and  C_12 
REMARK    6  A    between atoms: C_12  and  C_13 
REMARK    7  A    between atoms: C_13  and  C_14 
REMARK    8  A    between atoms: C_17  and  O_18 
ROOT
HETATM    1  C   UNL     1      43.491 -10.475   7.796  1.00  0.00     0.024 A 
HETATM    2  C   UNL     1      44.138 -11.511   7.088  1.00  0.00     0.053 A 
HETATM    3  C   UNL     1      45.540 -11.518   6.967  1.00  0.00     0.019 A 
HETATM    4  C   UNL     1      46.302 -10.501   7.539  1.00  0.00     0.001 A 
HETATM    5  C   UNL     1      45.673  -9.470   8.229  1.00  0.00     0.002 A 
HETATM    6  C   UNL     1      44.282  -9.455   8.351  1.00  0.00     0.024 A 
ENDROOT
BRANCH   2   7
HETATM    7  C   UNL     1      43.386 -12.626   6.449  1.00  0.00     0.253 C 
HETATM    8  N   UNL     1      42.918 -13.605   7.307  1.00  0.00    -0.357 N 
HETATM    9  H   UNL     1      42.877 -13.397   8.298  1.00  0.00     0.162 HD
HETATM   10  O   UNL     1      43.213 -12.666   5.237  1.00  0.00    -0.268 OA
BRANCH   8  11
HETATM   11  C   UNL     1      42.087 -14.683   6.798  1.00  0.00     0.127 C 
BRANCH  11  12
HETATM   12  C   UNL     1      42.677 -16.070   7.065  1.00  0.00     0.058 C 
BRANCH  12  13
HETATM   13  C   UNL     1      43.153 -16.882   5.880  1.00  0.00    -0.057 A 
HETATM   14  C   UNL     1      43.627 -18.194   5.982  1.00  0.00     0.010 A 
HETATM   15  C   UNL     1      43.987 -18.910   4.835  1.00  0.00     0.037 A 
HETATM   16  C   UNL     1      43.862 -18.343   3.567  1.00  0.00     0.068 A 
HETATM   17  C   UNL     1      43.395 -17.036   3.453  1.00  0.00     0.037 A 
HETATM   18  C   UNL     1      43.041 -16.316   4.599  1.00  0.00     0.010 A 
BRANCH  16  19
HETATM   19  O   UNL     1      44.226 -19.158   2.531  1.00  0.00    -0.356 OA
HETATM   20  C   UNL     1      43.533 -20.395   2.420  1.00  0.00     0.210 C 
ENDBRANCH  16  19
ENDBRANCH  12  13
ENDBRANCH  11  12
ENDBRANCH   8  11
ENDBRANCH   2   7
BRANCH   1  21
HETATM   21  N   UNL     1      42.088 -10.392   7.949  1.00  0.00    -0.283 NA
HETATM   22  H   UNL     1      41.816 -10.673   8.892  1.00  0.00     0.128 HD
BRANCH  21  23
HETATM   23  C   UNL     1      41.541  -9.032   7.677  1.00  0.00     0.195 C 
BRANCH  23  24
HETATM   24  C   UNL     1      40.829  -8.489   8.924  1.00  0.00     0.238 C 
HETATM   25  N   UNL     1      40.445  -9.498   9.796  1.00  0.00    -0.278 N 
HETATM   26  C   UNL     1      39.904  -9.430  11.050  1.00  0.00     0.322 C 
HETATM   27  H   UNL     1      40.620 -10.437   9.454  1.00  0.00     0.173 HD
HETATM   28  N   UNL     1      39.677  -8.173  11.529  1.00  0.00    -0.347 N 
HETATM   29  O   UNL     1      39.680 -10.455  11.690  1.00  0.00    -0.247 OA
HETATM   30  C   UNL     1      39.021  -7.955  12.789  1.00  0.00     0.151 C 
HETATM   31  H   UNL     1      39.705  -7.422  10.843  1.00  0.00     0.163 HD
HETATM   32  O   UNL     1      40.618  -7.291   9.104  1.00  0.00    -0.272 OA
ENDBRANCH  23  24
ENDBRANCH  21  23
ENDBRANCH   1  21
TORSDOF 8
ENDMDL
MODEL 9
REMARK VINA RESULT:      -7.3      2.238      2.462
REMARK  8 active torsions:
REMARK  status: ('A' for Active; 'I' for Inactive)
REMARK       I    between atoms: N_2  and  C_3 
REMARK       I    between atoms: C_3  and  N_4 
REMARK       I    between atoms: N_4  and  C_5 
REMARK    1  A    between atoms: C_5  and  C_6 
REMARK    2  A    between atoms: C_6  and  N_7 
REMARK    3  A    between atoms: N_7  and  C_8 
REMARK    4  A    between atoms: C_9  and  C_10 
REMARK       I    between atoms: C_10  and  N_11 
REMARK    5  A    between atoms: N_11  and  C_12 
REMARK    6  A    between atoms: C_12  and  C_13 
REMARK    7  A    between atoms: C_13  and  C_14 
REMARK    8  A    between atoms: C_17  and  O_18 
ROOT
HETATM    1  C   UNL     1      43.055 -16.830   4.623  1.00  0.00     0.024 A 
HETATM    2  C   UNL     1      43.174 -16.955   3.221  1.00  0.00     0.053 A 
HETATM    3  C   UNL     1      43.688 -18.136   2.657  1.00  0.00     0.019 A 
HETATM    4  C   UNL     1      44.090 -19.192   3.473  1.00  0.00     0.001 A 
HETATM    5  C   UNL     1      43.987 -19.074   4.855  1.00  0.00     0.002 A 
HETATM    6  C   UNL     1      43.480 -17.903   5.424  1.00  0.00     0.024 A 
ENDROOT
BRANCH   2   7
HETATM    7  C   UNL     1      42.767 -15.866   2.290  1.00  0.00     0.253 C 
HETATM    8  N   UNL     1      41.431 -15.511   2.327  1.00  0.00    -0.357 N 
HETATM    9  H   UNL     1      40.878 -15.803   3.125  1.00  0.00     0.162 HD
HETATM   10  O   UNL     1      43.575 -15.338   1.536  1.00  0.00    -0.268 OA
BRANCH   8  11
HETATM   11  C   UNL     1      40.952 -14.394   1.532  1.00  0.00     0.127 C 
BRANCH  11  12
HETATM   12  C   UNL     1      40.503 -14.808   0.128  1.00  0.00     0.058 C 
BRANCH  12  13
HETATM   13  C   UNL     1      39.501 -13.927  -0.588  1.00  0.00    -0.057 A 
HETATM   14  C   UNL     1      39.136 -12.653  -0.142  1.00  0.00     0.010 A 
HETATM   15  C   UNL     1      38.255 -11.864  -0.891  1.00  0.00     0.037 A 
HETATM   16  C   UNL     1      37.740 -12.320  -2.105  1.00  0.00     0.068 A 
HETATM   17  C   UNL     1      38.094 -13.589  -2.557  1.00  0.00     0.037 A 
HETATM   18  C   UNL     1      38.969 -14.381  -1.805  1.00  0.00     0.010 A 
BRANCH  16  19
HETATM   19  O   UNL     1      36.910 -11.443  -2.746  1.00  0.00    -0.356 OA
HETATM   20  C   UNL     1      36.662 -10.206  -2.090  1.00  0.00     0.210 C 
ENDBRANCH  16  19
ENDBRANCH  12  13
ENDBRANCH  11  12
ENDBRANCH   8  11
ENDBRANCH   2   7
BRANCH   1  21
HETATM   21  N   UNL     1      42.561 -15.672   5.265  1.00  0.00    -0.283 NA
HETATM   22  H   UNL     1      41.778 -15.909   5.874  1.00  0.00     0.128 HD
BRANCH  21  23
HETATM   23  C   UNL     1      43.592 -14.952   6.067  1.00  0.00     0.195 C 
BRANCH  23  24
HETATM   24  C   UNL     1      43.076 -13.562   6.464  1.00  0.00     0.238 C 
HETATM   25  N   UNL     1      43.980 -12.868   7.254  1.00  0.00    -0.278 N 
HETATM   26  C   UNL     1      43.956 -11.578   7.708  1.00  0.00     0.322 C 
HETATM   27  H   UNL     1      44.805 -13.399   7.514  1.00  0.00     0.173 HD
HETATM   28  N   UNL     1      42.861 -10.847   7.355  1.00  0.00    -0.347 N 
HETATM   29  O   UNL     1      44.894 -11.128   8.363  1.00  0.00    -0.247 OA
HETATM   30  C   UNL     1      42.656  -9.512   7.846  1.00  0.00     0.151 C 
HETATM   31  H   UNL     1      42.068 -11.375   6.998  1.00  0.00     0.163 HD
HETATM   32  O   UNL     1      41.974 -13.136   6.122  1.00  0.00    -0.272 OA
ENDBRANCH  23  24
ENDBRANCH  21  23
ENDBRANCH   1  21
TORSDOF 8
ENDMDL
MODEL 10
REMARK VINA RESULT:      -7.3      4.834      8.126
REMARK  8 active torsions:
REMARK  status: ('A' for Active; 'I' for Inactive)
REMARK       I    between atoms: N_2  and  C_3 
REMARK       I    between atoms: C_3  and  N_4 
REMARK       I    between atoms: N_4  and  C_5 
REMARK    1  A    between atoms: C_5  and  C_6 
REMARK    2  A    between atoms: C_6  and  N_7 
REMARK    3  A    between atoms: N_7  and  C_8 
REMARK    4  A    between atoms: C_9  and  C_10 
REMARK       I    between atoms: C_10  and  N_11 
REMARK    5  A    between atoms: N_11  and  C_12 
REMARK    6  A    between atoms: C_12  and  C_13 
REMARK    7  A    between atoms: C_13  and  C_14 
REMARK    8  A    between atoms: C_17  and  O_18 
ROOT
HETATM    1  C   UNL     1      43.809 -10.192   8.234  1.00  0.00     0.024 A 
HETATM    2  C   UNL     1      44.475 -11.045   7.327  1.00  0.00     0.053 A 
HETATM    3  C   UNL     1      45.853 -10.892   7.094  1.00  0.00     0.019 A 
HETATM    4  C   UNL     1      46.574  -9.895   7.749  1.00  0.00     0.001 A 
HETATM    5  C   UNL     1      45.925  -9.042   8.635  1.00  0.00     0.002 A 
HETATM    6  C   UNL     1      44.555  -9.186   8.871  1.00  0.00     0.024 A 
ENDROOT
BRANCH   2   7
HETATM    7  C   UNL     1      43.767 -12.129   6.591  1.00  0.00     0.253 C 
HETATM    8  N   UNL     1      42.891 -11.712   5.604  1.00  0.00    -0.357 N 
HETATM    9  H   UNL     1      42.967 -10.760   5.265  1.00  0.00     0.162 HD
HETATM   10  O   UNL     1      43.948 -13.309   6.864  1.00  0.00    -0.268 OA
BRANCH   8  11
HETATM   11  C   UNL     1      42.226 -12.690   4.761  1.00  0.00     0.127 C 
BRANCH  11  12
HETATM   12  C   UNL     1      43.093 -13.159   3.589  1.00  0.00     0.058 C 
BRANCH  12  13
HETATM   13  C   UNL     1      43.000 -14.610   3.170  1.00  0.00    -0.057 A 
HETATM   14  C   UNL     1      43.176 -15.047   1.853  1.00  0.00     0.010 A 
HETATM   15  C   UNL     1      43.145 -16.412   1.547  1.00  0.00     0.037 A 
HETATM   16  C   UNL     1      42.960 -17.366   2.548  1.00  0.00     0.068 A 
HETATM   17  C   UNL     1      42.780 -16.944   3.862  1.00  0.00     0.037 A 
HETATM   18  C   UNL     1      42.804 -15.578   4.168  1.00  0.00     0.010 A 
BRANCH  16  19
HETATM   19  O   UNL     1      42.973 -18.664   2.117  1.00  0.00    -0.356 OA
HETATM   20  C   UNL     1      43.863 -19.548   2.788  1.00  0.00     0.210 C 
ENDBRANCH  16  19
ENDBRANCH  12  13
ENDBRANCH  11  12
ENDBRANCH   8  11
ENDBRANCH   2   7
BRANCH   1  21
HETATM   21  N   UNL     1      42.425 -10.274   8.512  1.00  0.00    -0.283 NA
HETATM   22  H   UNL     1      42.264 -10.831   9.352  1.00  0.00     0.128 HD
BRANCH  21  23
HETATM   23  C   UNL     1      41.774  -8.945   8.685  1.00  0.00     0.195 C 
BRANCH  23  24
HETATM   24  C   UNL     1      41.630  -8.617  10.178  1.00  0.00     0.238 C 
HETATM   25  N   UNL     1      40.911  -9.584  10.865  1.00  0.00    -0.278 N 
HETATM   26  C   UNL     1      40.669  -9.727  12.204  1.00  0.00     0.322 C 
HETATM   27  H   UNL     1      40.527 -10.316  10.279  1.00  0.00     0.173 HD
HETATM   28  N   UNL     1      41.192  -8.757  13.007  1.00  0.00    -0.347 N 
HETATM   29  O   UNL     1      40.043 -10.697  12.626  1.00  0.00    -0.247 OA
HETATM   30  C   UNL     1      40.930  -8.726  14.419  1.00  0.00     0.151 C 
HETATM   31  H   UNL     1      41.504  -7.909  12.538  1.00  0.00     0.163 HD
HETATM   32  O   UNL     1      42.095  -7.597  10.686  1.00  0.00    -0.272 OA
ENDBRANCH  23  24
ENDBRANCH  21  23
ENDBRANCH   1  21
TORSDOF 8
ENDMDL
