MODEL 1
REMARK VINA RESULT:      -9.1      0.000      0.000
REMARK  1 active torsions:
REMARK  status: ('A' for Active; 'I' for Inactive)
REMARK    1  A    between atoms: C_8  and  C_9 
ROOT
HETATM    1  C   UNL     1      41.866 -16.018   6.709  1.00  0.00     0.073 C 
HETATM    2  C   UNL     1      41.047 -14.938   6.093  1.00  0.00     0.062 A 
HETATM    3  N   UNL     1      39.900 -14.581   6.673  1.00  0.00    -0.178 NA
HETATM    4  N   UNL     1      39.453 -13.583   5.909  1.00  0.00    -0.262 N 
HETATM    5  H   UNL     1      38.585 -13.135   6.176  1.00  0.00     0.191 HD
HETATM    6  C   UNL     1      40.234 -13.313   4.813  1.00  0.00     0.134 A 
HETATM    7  C   UNL     1      41.320 -14.172   4.905  1.00  0.00     0.032 A 
HETATM    8  C   UNL     1      42.579 -14.276   4.099  1.00  0.00     0.119 C 
HETATM    9  S   UNL     1      42.898 -12.975   2.889  1.00  0.00    -0.141 SA
HETATM   10  C   UNL     1      41.306 -12.946   2.016  1.00  0.00     0.136 C 
HETATM   11  C   UNL     1      41.566 -12.490   0.580  1.00  0.00     0.031 C 
HETATM   12  C   UNL     1      40.330 -12.009   2.715  1.00  0.00     0.236 C 
HETATM   13  O   UNL     1      39.865 -11.007   2.163  1.00  0.00    -0.272 OA
HETATM   14  N   UNL     1      39.843 -12.312   3.956  1.00  0.00    -0.311 N 
HETATM   15  H   UNL     1      39.098 -11.682   4.234  1.00  0.00     0.170 HD
ENDROOT
BRANCH   8  16
HETATM   16  C   UNL     1      42.697 -15.684   3.528  1.00  0.00    -0.039 A 
HETATM   17  C   UNL     1      43.458 -16.633   4.242  1.00  0.00     0.021 A 
HETATM   18  C   UNL     1      43.578 -17.967   3.814  1.00  0.00    -0.025 A 
HETATM   19  C   UNL     1      42.942 -18.365   2.620  1.00  0.00    -0.026 A 
HETATM   20  C   UNL     1      44.305 -18.912   4.555  1.00  0.00     0.012 A 
HETATM   21  C   UNL     1      42.208 -17.421   1.889  1.00  0.00     0.013 A 
HETATM   22  C   UNL     1      43.051 -19.701   2.197  1.00  0.00     0.012 A 
HETATM   23  C   UNL     1      42.085 -16.102   2.336  1.00  0.00     0.009 A 
HETATM   24  C   UNL     1      43.775 -20.630   2.946  1.00  0.00     0.001 A 
HETATM   25  C   UNL     1      44.399 -20.237   4.125  1.00  0.00     0.001 A 
ENDBRANCH   8  16
TORSDOF 1
ENDMDL
MODEL 2
REMARK VINA RESULT:      -8.8      3.720      4.909
REMARK  1 active torsions:
REMARK  status: ('A' for Active; 'I' for Inactive)
REMARK    1  A    between atoms: C_8  and  C_9 
ROOT
HETATM    1  C   UNL     1      45.482 -11.759   6.463  1.00  0.00     0.073 C 
HETATM    2  C   UNL     1      44.396 -11.137   7.271  1.00  0.00     0.062 A 
HETATM    3  N   UNL     1      44.636 -10.812   8.542  1.00  0.00    -0.178 NA
HETATM    4  N   UNL     1      43.497 -10.251   8.948  1.00  0.00    -0.262 N 
HETATM    5  H   UNL     1      43.454  -9.903   9.899  1.00  0.00     0.191 HD
HETATM    6  C   UNL     1      42.496 -10.251   8.010  1.00  0.00     0.134 A 
HETATM    7  C   UNL     1      43.054 -10.808   6.867  1.00  0.00     0.032 A 
HETATM    8  C   UNL     1      42.525 -10.961   5.473  1.00  0.00     0.119 C 
HETATM    9  S   UNL     1      40.965 -10.142   5.084  1.00  0.00    -0.141 SA
HETATM   10  C   UNL     1      39.942 -10.717   6.471  1.00  0.00     0.136 C 
HETATM   11  C   UNL     1      38.489 -10.762   5.995  1.00  0.00     0.031 C 
HETATM   12  C   UNL     1      40.093  -9.785   7.666  1.00  0.00     0.236 C 
HETATM   13  O   UNL     1      39.143  -9.149   8.132  1.00  0.00    -0.272 OA
HETATM   14  N   UNL     1      41.278  -9.710   8.344  1.00  0.00    -0.311 N 
HETATM   15  H   UNL     1      41.192  -9.169   9.198  1.00  0.00     0.170 HD
ENDROOT
BRANCH   8  16
HETATM   16  C   UNL     1      42.557 -12.434   5.081  1.00  0.00    -0.039 A 
HETATM   17  C   UNL     1      42.884 -12.764   3.749  1.00  0.00     0.021 A 
HETATM   18  C   UNL     1      42.985 -14.097   3.316  1.00  0.00    -0.025 A 
HETATM   19  C   UNL     1      42.725 -15.139   4.229  1.00  0.00    -0.026 A 
HETATM   20  C   UNL     1      43.352 -14.414   1.997  1.00  0.00     0.012 A 
HETATM   21  C   UNL     1      42.369 -14.819   5.547  1.00  0.00     0.013 A 
HETATM   22  C   UNL     1      42.836 -16.473   3.800  1.00  0.00     0.012 A 
HETATM   23  C   UNL     1      42.289 -13.489   5.967  1.00  0.00     0.009 A 
HETATM   24  C   UNL     1      43.205 -16.771   2.488  1.00  0.00     0.001 A 
HETATM   25  C   UNL     1      43.465 -15.743   1.587  1.00  0.00     0.001 A 
ENDBRANCH   8  16
TORSDOF 1
ENDMDL
MODEL 3
REMARK VINA RESULT:      -8.6      2.605      3.614
REMARK  1 active torsions:
REMARK  status: ('A' for Active; 'I' for Inactive)
REMARK    1  A    between atoms: C_8  and  C_9 
ROOT
HETATM    1  C   UNL     1      39.508 -16.415   0.597  1.00  0.00     0.073 C 
HETATM    2  C   UNL     1      39.905 -15.015   0.282  1.00  0.00     0.062 A 
HETATM    3  N   UNL     1      39.713 -14.545  -0.951  1.00  0.00    -0.178 NA
HETATM    4  N   UNL     1      40.126 -13.279  -0.879  1.00  0.00    -0.262 N 
HETATM    5  H   UNL     1      40.052 -12.710  -1.714  1.00  0.00     0.191 HD
HETATM    6  C   UNL     1      40.640 -12.918   0.340  1.00  0.00     0.134 A 
HETATM    7  C   UNL     1      40.493 -14.031   1.155  1.00  0.00     0.032 A 
HETATM    8  C   UNL     1      40.732 -14.232   2.621  1.00  0.00     0.119 C 
HETATM    9  S   UNL     1      41.109 -12.769   3.607  1.00  0.00    -0.141 SA
HETATM   10  C   UNL     1      42.430 -12.031   2.603  1.00  0.00     0.136 C 
HETATM   11  C   UNL     1      43.352 -11.251   3.540  1.00  0.00     0.031 C 
HETATM   12  C   UNL     1      41.842 -11.118   1.535  1.00  0.00     0.236 C 
HETATM   13  O   UNL     1      42.084  -9.908   1.495  1.00  0.00    -0.272 OA
HETATM   14  N   UNL     1      41.108 -11.636   0.504  1.00  0.00    -0.311 N 
HETATM   15  H   UNL     1      40.908 -10.938  -0.205  1.00  0.00     0.170 HD
ENDROOT
BRANCH   8  16
HETATM   16  C   UNL     1      41.723 -15.373   2.817  1.00  0.00    -0.039 A 
HETATM   17  C   UNL     1      41.858 -15.926   4.108  1.00  0.00     0.021 A 
HETATM   18  C   UNL     1      42.711 -17.013   4.367  1.00  0.00    -0.025 A 
HETATM   19  C   UNL     1      43.479 -17.552   3.314  1.00  0.00    -0.026 A 
HETATM   20  C   UNL     1      42.806 -17.581   5.649  1.00  0.00     0.012 A 
HETATM   21  C   UNL     1      43.374 -16.989   2.035  1.00  0.00     0.013 A 
HETATM   22  C   UNL     1      44.324 -18.645   3.570  1.00  0.00     0.012 A 
HETATM   23  C   UNL     1      42.508 -15.919   1.789  1.00  0.00     0.009 A 
HETATM   24  C   UNL     1      44.404 -19.201   4.847  1.00  0.00     0.001 A 
HETATM   25  C   UNL     1      43.645 -18.671   5.885  1.00  0.00     0.001 A 
ENDBRANCH   8  16
TORSDOF 1
ENDMDL
MODEL 4
REMARK VINA RESULT:      -8.4      2.211      3.211
REMARK  1 active torsions:
REMARK  status: ('A' for Active; 'I' for Inactive)
REMARK    1  A    between atoms: C_8  and  C_9 
ROOT
HETATM    1  C   UNL     1      39.819 -15.706   1.973  1.00  0.00     0.073 C 
HETATM    2  C   UNL     1      40.397 -14.342   2.121  1.00  0.00     0.062 A 
HETATM    3  N   UNL     1      40.264 -13.467   1.123  1.00  0.00    -0.178 NA
HETATM    4  N   UNL     1      40.842 -12.359   1.590  1.00  0.00    -0.262 N 
HETATM    5  H   UNL     1      40.841 -11.540   0.995  1.00  0.00     0.191 HD
HETATM    6  C   UNL     1      41.405 -12.493   2.834  1.00  0.00     0.134 A 
HETATM    7  C   UNL     1      41.114 -13.788   3.241  1.00  0.00     0.032 A 
HETATM    8  C   UNL     1      41.330 -14.496   4.544  1.00  0.00     0.119 C 
HETATM    9  S   UNL     1      41.903 -13.506   5.940  1.00  0.00    -0.141 SA
HETATM   10  C   UNL     1      43.306 -12.644   5.173  1.00  0.00     0.136 C 
HETATM   11  C   UNL     1      44.328 -12.343   6.271  1.00  0.00     0.031 C 
HETATM   12  C   UNL     1      42.840 -11.361   4.498  1.00  0.00     0.236 C 
HETATM   13  O   UNL     1      43.241 -10.247   4.849  1.00  0.00    -0.272 OA
HETATM   14  N   UNL     1      42.040 -11.409   3.391  1.00  0.00    -0.311 N 
HETATM   15  H   UNL     1      41.931 -10.495   2.963  1.00  0.00     0.170 HD
ENDROOT
BRANCH   8  16
HETATM   16  C   UNL     1      42.162 -15.750   4.303  1.00  0.00    -0.039 A 
HETATM   17  C   UNL     1      42.325 -16.658   5.371  1.00  0.00     0.021 A 
HETATM   18  C   UNL     1      43.033 -17.864   5.222  1.00  0.00    -0.025 A 
HETATM   19  C   UNL     1      43.624 -18.165   3.978  1.00  0.00    -0.026 A 
HETATM   20  C   UNL     1      43.154 -18.779   6.281  1.00  0.00     0.012 A 
HETATM   21  C   UNL     1      43.492 -17.254   2.921  1.00  0.00     0.013 A 
HETATM   22  C   UNL     1      44.323 -19.374   3.824  1.00  0.00     0.012 A 
HETATM   23  C   UNL     1      42.771 -16.067   3.079  1.00  0.00     0.009 A 
HETATM   24  C   UNL     1      44.431 -20.275   4.884  1.00  0.00     0.001 A 
HETATM   25  C   UNL     1      43.846 -19.979   6.111  1.00  0.00     0.001 A 
ENDBRANCH   8  16
TORSDOF 1
ENDMDL
MODEL 5
REMARK VINA RESULT:      -8.3     13.567     15.783
REMARK  1 active torsions:
REMARK  status: ('A' for Active; 'I' for Inactive)
REMARK    1  A    between atoms: C_8  and  C_9 
ROOT
HETATM    1  C   UNL     1      38.699  -5.825  15.004  1.00  0.00     0.073 C 
HETATM    2  C   UNL     1      39.206  -5.240  16.276  1.00  0.00     0.062 A 
HETATM    3  N   UNL     1      38.860  -3.993  16.602  1.00  0.00    -0.178 NA
HETATM    4  N   UNL     1      39.433  -3.803  17.791  1.00  0.00    -0.262 N 
HETATM    5  H   UNL     1      39.286  -2.911  18.249  1.00  0.00     0.191 HD
HETATM    6  C   UNL     1      40.193  -4.857  18.231  1.00  0.00     0.134 A 
HETATM    7  C   UNL     1      40.054  -5.847  17.269  1.00  0.00     0.032 A 
HETATM    8  C   UNL     1      40.519  -7.272  17.230  1.00  0.00     0.119 C 
HETATM    9  S   UNL     1      41.240  -7.949  18.739  1.00  0.00    -0.141 SA
HETATM   10  C   UNL     1      42.447  -6.650  19.134  1.00  0.00     0.136 C 
HETATM   11  C   UNL     1      43.608  -7.301  19.887  1.00  0.00     0.031 C 
HETATM   12  C   UNL     1      41.799  -5.557  19.975  1.00  0.00     0.236 C 
HETATM   13  O   UNL     1      42.178  -5.293  21.120  1.00  0.00    -0.272 OA
HETATM   14  N   UNL     1      40.838  -4.746  19.440  1.00  0.00    -0.311 N 
HETATM   15  H   UNL     1      40.604  -3.976  20.059  1.00  0.00     0.170 HD
ENDROOT
BRANCH   8  16
HETATM   16  C   UNL     1      41.380  -7.487  15.992  1.00  0.00    -0.039 A 
HETATM   17  C   UNL     1      41.062  -8.563  15.136  1.00  0.00     0.021 A 
HETATM   18  C   UNL     1      41.772  -8.803  13.946  1.00  0.00    -0.025 A 
HETATM   19  C   UNL     1      42.853  -7.963  13.609  1.00  0.00    -0.026 A 
HETATM   20  C   UNL     1      41.420  -9.853  13.082  1.00  0.00     0.012 A 
HETATM   21  C   UNL     1      43.194  -6.911  14.469  1.00  0.00     0.013 A 
HETATM   22  C   UNL     1      43.557  -8.196  12.415  1.00  0.00     0.012 A 
HETATM   23  C   UNL     1      42.468  -6.674  15.640  1.00  0.00     0.009 A 
HETATM   24  C   UNL     1      43.193  -9.240  11.564  1.00  0.00     0.001 A 
HETATM   25  C   UNL     1      42.124 -10.067  11.896  1.00  0.00     0.001 A 
ENDBRANCH   8  16
TORSDOF 1
ENDMDL
MODEL 6
REMARK VINA RESULT:      -8.2      4.325      7.133
REMARK  1 active torsions:
REMARK  status: ('A' for Active; 'I' for Inactive)
REMARK    1  A    between atoms: C_8  and  C_9 
ROOT
HETATM    1  C   UNL     1      41.944  -9.942   4.152  1.00  0.00     0.073 C 
HETATM    2  C   UNL     1      41.072 -11.032   4.671  1.00  0.00     0.062 A 
HETATM    3  N   UNL     1      39.754 -10.834   4.738  1.00  0.00    -0.178 NA
HETATM    4  N   UNL     1      39.280 -11.995   5.193  1.00  0.00    -0.262 N 
HETATM    5  H   UNL     1      38.278 -12.083   5.307  1.00  0.00     0.191 HD
HETATM    6  C   UNL     1      40.244 -12.927   5.485  1.00  0.00     0.134 A 
HETATM    7  C   UNL     1      41.451 -12.342   5.131  1.00  0.00     0.032 A 
HETATM    8  C   UNL     1      42.846 -12.888   5.080  1.00  0.00     0.119 C 
HETATM    9  S   UNL     1      43.051 -14.663   5.336  1.00  0.00    -0.141 SA
HETATM   10  C   UNL     1      42.085 -14.885   6.858  1.00  0.00     0.136 C 
HETATM   11  C   UNL     1      42.682 -16.066   7.625  1.00  0.00     0.031 C 
HETATM   12  C   UNL     1      40.619 -15.136   6.529  1.00  0.00     0.236 C 
HETATM   13  O   UNL     1      40.044 -16.185   6.834  1.00  0.00    -0.272 OA
HETATM   14  N   UNL     1      39.851 -14.149   5.978  1.00  0.00    -0.311 N 
HETATM   15  H   UNL     1      38.869 -14.404   5.950  1.00  0.00     0.170 HD
ENDROOT
BRANCH   8  16
HETATM   16  C   UNL     1      43.754 -12.036   5.958  1.00  0.00    -0.039 A 
HETATM   17  C   UNL     1      43.275 -11.635   7.223  1.00  0.00     0.021 A 
HETATM   18  C   UNL     1      44.065 -10.891   8.117  1.00  0.00    -0.025 A 
HETATM   19  C   UNL     1      45.365 -10.506   7.730  1.00  0.00    -0.026 A 
HETATM   20  C   UNL     1      43.592 -10.533   9.390  1.00  0.00     0.012 A 
HETATM   21  C   UNL     1      45.837 -10.874   6.462  1.00  0.00     0.013 A 
HETATM   22  C   UNL     1      46.159  -9.771   8.626  1.00  0.00     0.012 A 
HETATM   23  C   UNL     1      45.046 -11.629   5.591  1.00  0.00     0.009 A 
HETATM   24  C   UNL     1      45.677  -9.426   9.889  1.00  0.00     0.001 A 
HETATM   25  C   UNL     1      44.395  -9.809  10.272  1.00  0.00     0.001 A 
ENDBRANCH   8  16
TORSDOF 1
ENDMDL
MODEL 7
REMARK VINA RESULT:      -8.1     14.441     16.442
REMARK  1 active torsions:
REMARK  status: ('A' for Active; 'I' for Inactive)
REMARK    1  A    between atoms: C_8  and  C_9 
ROOT
HETATM    1  C   UNL     1      42.026 -31.996   0.948  1.00  0.00     0.073 C 
HETATM    2  C   UNL     1      42.793 -30.811   1.419  1.00  0.00     0.062 A 
HETATM    3  N   UNL     1      42.146 -29.819   2.032  1.00  0.00    -0.178 NA
HETATM    4  N   UNL     1      43.113 -28.958   2.355  1.00  0.00    -0.262 N 
HETATM    5  H   UNL     1      42.849 -28.119   2.857  1.00  0.00     0.191 HD
HETATM    6  C   UNL     1      44.363 -29.320   1.922  1.00  0.00     0.134 A 
HETATM    7  C   UNL     1      44.207 -30.558   1.315  1.00  0.00     0.032 A 
HETATM    8  C   UNL     1      45.205 -31.532   0.768  1.00  0.00     0.119 C 
HETATM    9  S   UNL     1      46.951 -31.192   1.076  1.00  0.00    -0.141 SA
HETATM   10  C   UNL     1      47.043 -29.459   0.540  1.00  0.00     0.136 C 
HETATM   11  C   UNL     1      48.464 -29.197   0.039  1.00  0.00     0.031 C 
HETATM   12  C   UNL     1      46.693 -28.525   1.692  1.00  0.00     0.236 C 
HETATM   13  O   UNL     1      47.497 -27.705   2.145  1.00  0.00    -0.272 OA
HETATM   14  N   UNL     1      45.421 -28.485   2.192  1.00  0.00    -0.311 N 
HETATM   15  H   UNL     1      45.297 -27.720   2.848  1.00  0.00     0.170 HD
ENDROOT
BRANCH   8  16
HETATM   16  C   UNL     1      44.887 -31.812  -0.696  1.00  0.00    -0.039 A 
HETATM   17  C   UNL     1      44.669 -30.712  -1.554  1.00  0.00     0.021 A 
HETATM   18  C   UNL     1      44.419 -30.878  -2.927  1.00  0.00    -0.025 A 
HETATM   19  C   UNL     1      44.356 -32.180  -3.464  1.00  0.00    -0.026 A 
HETATM   20  C   UNL     1      44.244 -29.774  -3.778  1.00  0.00     0.012 A 
HETATM   21  C   UNL     1      44.541 -33.279  -2.612  1.00  0.00     0.013 A 
HETATM   22  C   UNL     1      44.117 -32.347  -4.838  1.00  0.00     0.012 A 
HETATM   23  C   UNL     1      44.805 -33.098  -1.251  1.00  0.00     0.009 A 
HETATM   24  C   UNL     1      43.949 -31.240  -5.672  1.00  0.00     0.001 A 
HETATM   25  C   UNL     1      44.014 -29.955  -5.143  1.00  0.00     0.001 A 
ENDBRANCH   8  16
TORSDOF 1
ENDMDL
MODEL 8
REMARK VINA RESULT:      -8.0     15.115     16.453
REMARK  1 active torsions:
REMARK  status: ('A' for Active; 'I' for Inactive)
REMARK    1  A    between atoms: C_8  and  C_9 
ROOT
HETATM    1  C   UNL     1      47.013 -29.292   0.416  1.00  0.00     0.073 C 
HETATM    2  C   UNL     1      46.358 -29.862   1.625  1.00  0.00     0.062 A 
HETATM    3  N   UNL     1      47.116 -30.283   2.638  1.00  0.00    -0.178 NA
HETATM    4  N   UNL     1      46.233 -30.683   3.554  1.00  0.00    -0.262 N 
HETATM    5  H   UNL     1      46.591 -31.032   4.435  1.00  0.00     0.191 HD
HETATM    6  C   UNL     1      44.923 -30.597   3.155  1.00  0.00     0.134 A 
HETATM    7  C   UNL     1      44.953 -30.034   1.887  1.00  0.00     0.032 A 
HETATM    8  C   UNL     1      43.857 -29.561   0.981  1.00  0.00     0.119 C 
HETATM    9  S   UNL     1      42.183 -29.519   1.656  1.00  0.00    -0.141 SA
HETATM   10  C   UNL     1      42.073 -31.191   2.357  1.00  0.00     0.136 C 
HETATM   11  C   UNL     1      40.606 -31.619   2.322  1.00  0.00     0.031 C 
HETATM   12  C   UNL     1      42.611 -31.209   3.782  1.00  0.00     0.236 C 
HETATM   13  O   UNL     1      41.905 -31.505   4.750  1.00  0.00    -0.272 OA
HETATM   14  N   UNL     1      43.941 -31.005   4.026  1.00  0.00    -0.311 N 
HETATM   15  H   UNL     1      44.180 -31.190   4.995  1.00  0.00     0.170 HD
ENDROOT
BRANCH   8  16
HETATM   16  C   UNL     1      43.958 -30.290  -0.354  1.00  0.00    -0.039 A 
HETATM   17  C   UNL     1      43.910 -29.524  -1.538  1.00  0.00     0.021 A 
HETATM   18  C   UNL     1      44.047 -30.108  -2.810  1.00  0.00    -0.025 A 
HETATM   19  C   UNL     1      44.210 -31.505  -2.910  1.00  0.00    -0.026 A 
HETATM   20  C   UNL     1      44.038 -29.330  -3.979  1.00  0.00     0.012 A 
HETATM   21  C   UNL     1      44.229 -32.277  -1.740  1.00  0.00     0.013 A 
HETATM   22  C   UNL     1      44.358 -32.090  -4.179  1.00  0.00     0.012 A 
HETATM   23  C   UNL     1      44.108 -31.679  -0.482  1.00  0.00     0.009 A 
HETATM   24  C   UNL     1      44.351 -31.303  -5.332  1.00  0.00     0.001 A 
HETATM   25  C   UNL     1      44.193 -29.925  -5.232  1.00  0.00     0.001 A 
ENDBRANCH   8  16
TORSDOF 1
ENDMDL
MODEL 9
REMARK VINA RESULT:      -8.0     14.981     16.511
REMARK  1 active torsions:
REMARK  status: ('A' for Active; 'I' for Inactive)
REMARK    1  A    between atoms: C_8  and  C_9 
ROOT
HETATM    1  C   UNL     1      47.664 -28.089  -0.677  1.00  0.00     0.073 C 
HETATM    2  C   UNL     1      47.277 -29.050   0.393  1.00  0.00     0.062 A 
HETATM    3  N   UNL     1      48.230 -29.623   1.128  1.00  0.00    -0.178 NA
HETATM    4  N   UNL     1      47.554 -30.372   2.000  1.00  0.00    -0.262 N 
HETATM    5  H   UNL     1      48.085 -30.895   2.685  1.00  0.00     0.191 HD
HETATM    6  C   UNL     1      46.193 -30.360   1.824  1.00  0.00     0.134 A 
HETATM    7  C   UNL     1      45.957 -29.475   0.782  1.00  0.00     0.032 A 
HETATM    8  C   UNL     1      44.686 -28.927   0.208  1.00  0.00     0.119 C 
HETATM    9  S   UNL     1      43.153 -29.297   1.086  1.00  0.00    -0.141 SA
HETATM   10  C   UNL     1      43.317 -31.096   1.282  1.00  0.00     0.136 C 
HETATM   11  C   UNL     1      41.910 -31.693   1.324  1.00  0.00     0.031 C 
HETATM   12  C   UNL     1      44.086 -31.426   2.554  1.00  0.00     0.236 C 
HETATM   13  O   UNL     1      43.583 -32.068   3.482  1.00  0.00    -0.272 OA
HETATM   14  N   UNL     1      45.413 -31.118   2.665  1.00  0.00    -0.311 N 
HETATM   15  H   UNL     1      45.828 -31.525   3.496  1.00  0.00     0.170 HD
ENDROOT
BRANCH   8  16
HETATM   16  C   UNL     1      44.628 -29.245  -1.282  1.00  0.00    -0.039 A 
HETATM   17  C   UNL     1      44.517 -30.597  -1.672  1.00  0.00     0.021 A 
HETATM   18  C   UNL     1      44.408 -30.975  -3.022  1.00  0.00    -0.025 A 
HETATM   19  C   UNL     1      44.436 -29.979  -4.020  1.00  0.00    -0.026 A 
HETATM   20  C   UNL     1      44.257 -32.320  -3.396  1.00  0.00     0.012 A 
HETATM   21  C   UNL     1      44.576 -28.637  -3.642  1.00  0.00     0.013 A 
HETATM   22  C   UNL     1      44.316 -30.355  -5.369  1.00  0.00     0.012 A 
HETATM   23  C   UNL     1      44.667 -28.275  -2.295  1.00  0.00     0.009 A 
HETATM   24  C   UNL     1      44.163 -31.695  -5.725  1.00  0.00     0.001 A 
HETATM   25  C   UNL     1      44.132 -32.678  -4.740  1.00  0.00     0.001 A 
ENDBRANCH   8  16
TORSDOF 1
ENDMDL
MODEL 10
REMARK VINA RESULT:      -7.9      2.797      5.781
REMARK  1 active torsions:
REMARK  status: ('A' for Active; 'I' for Inactive)
REMARK    1  A    between atoms: C_8  and  C_9 
ROOT
HETATM    1  C   UNL     1      39.546 -11.775   4.309  1.00  0.00     0.073 C 
HETATM    2  C   UNL     1      40.669 -12.509   4.955  1.00  0.00     0.062 A 
HETATM    3  N   UNL     1      41.309 -11.946   5.981  1.00  0.00    -0.178 NA
HETATM    4  N   UNL     1      42.204 -12.865   6.342  1.00  0.00    -0.262 N 
HETATM    5  H   UNL     1      42.803 -12.657   7.132  1.00  0.00     0.191 HD
HETATM    6  C   UNL     1      42.218 -13.986   5.551  1.00  0.00     0.134 A 
HETATM    7  C   UNL     1      41.197 -13.808   4.629  1.00  0.00     0.032 A 
HETATM    8  C   UNL     1      40.619 -14.723   3.592  1.00  0.00     0.119 C 
HETATM    9  S   UNL     1      41.173 -16.441   3.601  1.00  0.00    -0.141 SA
HETATM   10  C   UNL     1      42.973 -16.201   3.644  1.00  0.00     0.136 C 
HETATM   11  C   UNL     1      43.623 -17.400   2.954  1.00  0.00     0.031 C 
HETATM   12  C   UNL     1      43.460 -16.072   5.082  1.00  0.00     0.236 C 
HETATM   13  O   UNL     1      44.251 -16.875   5.586  1.00  0.00    -0.272 OA
HETATM   14  N   UNL     1      43.122 -14.983   5.836  1.00  0.00    -0.311 N 
HETATM   15  H   UNL     1      43.631 -14.956   6.713  1.00  0.00     0.170 HD
ENDROOT
BRANCH   8  16
HETATM   16  C   UNL     1      40.713 -14.058   2.224  1.00  0.00    -0.039 A 
HETATM   17  C   UNL     1      40.066 -14.678   1.134  1.00  0.00     0.021 A 
HETATM   18  C   UNL     1      40.060 -14.107  -0.151  1.00  0.00    -0.025 A 
HETATM   19  C   UNL     1      40.744 -12.893  -0.368  1.00  0.00    -0.026 A 
HETATM   20  C   UNL     1      39.378 -14.713  -1.219  1.00  0.00     0.012 A 
HETATM   21  C   UNL     1      41.415 -12.286   0.703  1.00  0.00     0.013 A 
HETATM   22  C   UNL     1      40.730 -12.316  -1.649  1.00  0.00     0.012 A 
HETATM   23  C   UNL     1      41.398 -12.858   1.979  1.00  0.00     0.009 A 
HETATM   24  C   UNL     1      40.044 -12.927  -2.699  1.00  0.00     0.001 A 
HETATM   25  C   UNL     1      39.367 -14.124  -2.484  1.00  0.00     0.001 A 
ENDBRANCH   8  16
TORSDOF 1
ENDMDL
