MODEL 1
REMARK VINA RESULT:      -9.1      0.000      0.000
REMARK  4 active torsions:
REMARK  status: ('A' for Active; 'I' for Inactive)
REMARK    1  A    between atoms: C_6  and  N_7 
REMARK       I    between atoms: N_7  and  C_8 
REMARK    2  A    between atoms: C_8  and  C_9 
REMARK    3  A    between atoms: C_10  and  C_11 
REMARK    4  A    between atoms: C_13  and  O_14 
ROOT
HETATM    1  C   UNL     1      41.793 -14.152   1.718  1.00  0.00     0.062 C 
HETATM    2  C   UNL     1      42.365 -12.756   1.930  1.00  0.00     0.202 C 
HETATM    3  N   UNL     1      41.495 -11.744   1.318  1.00  0.00    -0.084 N 
HETATM    4  C   UNL     1      40.233 -12.001   0.849  1.00  0.00     0.725 A 
HETATM    5  N   UNL     1      39.751 -13.257   0.903  1.00  0.00    -0.192 N 
HETATM    6  N   UNL     1      41.862 -10.470   1.064  1.00  0.00    -0.149 NA
HETATM    7  C   UNL     1      40.733  -9.992   0.527  1.00  0.00     0.275 A 
HETATM    8  N   UNL     1      39.716 -10.900   0.369  1.00  0.00    -0.054 NA
HETATM    9  C   UNL     1      40.531 -14.352   1.262  1.00  0.00     0.037 C 
HETATM   10  C   UNL     1      39.880 -15.704   1.116  1.00  0.00     0.070 C 
HETATM   11  H   UNL     1      38.828 -13.439   0.518  1.00  0.00     0.184 HD
ENDROOT
BRANCH   1  12
HETATM   12  C   UNL     1      42.737 -15.264   1.994  1.00  0.00     0.256 C 
HETATM   13  N   UNL     1      42.320 -16.051   3.049  1.00  0.00    -0.323 N 
HETATM   14  H   UNL     1      41.472 -15.764   3.518  1.00  0.00     0.169 HD
HETATM   15  O   UNL     1      43.720 -15.417   1.285  1.00  0.00    -0.267 OA
BRANCH  13  16
HETATM   16  C   UNL     1      42.928 -17.233   3.538  1.00  0.00     0.041 A 
HETATM   17  C   UNL     1      43.267 -17.309   4.906  1.00  0.00    -0.035 A 
HETATM   18  C   UNL     1      43.839 -18.494   5.413  1.00  0.00     0.015 A 
HETATM   19  C   UNL     1      43.034 -16.170   5.862  1.00  0.00     0.050 C 
HETATM   20  C   UNL     1      44.096 -19.590   4.584  1.00  0.00    -0.061 A 
HETATM   21  C   UNL     1      44.663 -20.861   5.141  1.00  0.00     0.048 C 
HETATM   22  C   UNL     1      43.759 -19.503   3.235  1.00  0.00     0.009 A 
HETATM   23  C   UNL     1      43.187 -18.336   2.718  1.00  0.00     0.030 A 
ENDBRANCH  13  16
ENDBRANCH   1  12
BRANCH   2  24
HETATM   24  C   UNL     1      42.607 -12.405   3.395  1.00  0.00    -0.025 A 
HETATM   25  C   UNL     1      43.853 -11.877   3.789  1.00  0.00     0.046 A 
HETATM   26  C   UNL     1      44.104 -11.558   5.126  1.00  0.00     0.068 A 
HETATM   27  C   UNL     1      43.103 -11.761   6.077  1.00  0.00     0.037 A 
HETATM   28  C   UNL     1      41.863 -12.279   5.704  1.00  0.00     0.003 A 
HETATM   29  C   UNL     1      41.614 -12.597   4.371  1.00  0.00     0.010 A 
BRANCH  26  30
HETATM   30  O   UNL     1      45.269 -11.045   5.626  1.00  0.00    -0.356 OA
HETATM   31  C   UNL     1      45.470 -11.153   7.030  1.00  0.00     0.210 C 
ENDBRANCH  26  30
ENDBRANCH   2  24
TORSDOF 4
ENDMDL
MODEL 2
REMARK VINA RESULT:      -9.0      2.186      4.861
REMARK  4 active torsions:
REMARK  status: ('A' for Active; 'I' for Inactive)
REMARK    1  A    between atoms: C_6  and  N_7 
REMARK       I    between atoms: N_7  and  C_8 
REMARK    2  A    between atoms: C_8  and  C_9 
REMARK    3  A    between atoms: C_10  and  C_11 
REMARK    4  A    between atoms: C_13  and  O_14 
ROOT
HETATM    1  C   UNL     1      42.276 -12.999   2.664  1.00  0.00     0.062 C 
HETATM    2  C   UNL     1      40.818 -13.006   2.223  1.00  0.00     0.202 C 
HETATM    3  N   UNL     1      40.108 -11.843   2.770  1.00  0.00    -0.084 N 
HETATM    4  C   UNL     1      40.728 -10.782   3.376  1.00  0.00     0.725 A 
HETATM    5  N   UNL     1      42.067 -10.799   3.528  1.00  0.00    -0.192 N 
HETATM    6  N   UNL     1      38.765 -11.721   2.823  1.00  0.00    -0.149 NA
HETATM    7  C   UNL     1      38.651 -10.513   3.389  1.00  0.00     0.275 A 
HETATM    8  N   UNL     1      39.829  -9.910   3.752  1.00  0.00    -0.054 NA
HETATM    9  C   UNL     1      42.846 -11.916   3.249  1.00  0.00     0.037 C 
HETATM   10  C   UNL     1      44.303 -11.817   3.625  1.00  0.00     0.070 C 
HETATM   11  H   UNL     1      42.508 -10.021   4.012  1.00  0.00     0.184 HD
ENDROOT
BRANCH   1  12
HETATM   12  C   UNL     1      42.999 -14.278   2.454  1.00  0.00     0.256 C 
HETATM   13  N   UNL     1      42.535 -15.280   3.282  1.00  0.00    -0.323 N 
HETATM   14  H   UNL     1      41.810 -15.023   3.938  1.00  0.00     0.169 HD
HETATM   15  O   UNL     1      43.860 -14.355   1.590  1.00  0.00    -0.267 OA
BRANCH  13  16
HETATM   16  C   UNL     1      42.936 -16.638   3.304  1.00  0.00     0.041 A 
HETATM   17  C   UNL     1      43.593 -17.137   4.450  1.00  0.00    -0.035 A 
HETATM   18  C   UNL     1      43.964 -18.495   4.500  1.00  0.00     0.015 A 
HETATM   19  C   UNL     1      43.911 -16.272   5.640  1.00  0.00     0.050 C 
HETATM   20  C   UNL     1      43.713 -19.357   3.428  1.00  0.00    -0.061 A 
HETATM   21  C   UNL     1      44.071 -20.811   3.507  1.00  0.00     0.048 C 
HETATM   22  C   UNL     1      43.065 -18.854   2.301  1.00  0.00     0.009 A 
HETATM   23  C   UNL     1      42.687 -17.510   2.239  1.00  0.00     0.030 A 
ENDBRANCH  13  16
ENDBRANCH   1  12
BRANCH   2  24
HETATM   24  C   UNL     1      40.631 -13.053   0.709  1.00  0.00    -0.025 A 
HETATM   25  C   UNL     1      39.927 -14.125   0.126  1.00  0.00     0.046 A 
HETATM   26  C   UNL     1      39.751 -14.198  -1.258  1.00  0.00     0.068 A 
HETATM   27  C   UNL     1      40.279 -13.191  -2.067  1.00  0.00     0.037 A 
HETATM   28  C   UNL     1      40.975 -12.121  -1.508  1.00  0.00     0.003 A 
HETATM   29  C   UNL     1      41.150 -12.050  -0.128  1.00  0.00     0.010 A 
BRANCH  26  30
HETATM   30  O   UNL     1      39.092 -15.187  -1.936  1.00  0.00    -0.356 OA
HETATM   31  C   UNL     1      38.436 -14.814  -3.141  1.00  0.00     0.210 C 
ENDBRANCH  26  30
ENDBRANCH   2  24
TORSDOF 4
ENDMDL
MODEL 3
REMARK VINA RESULT:      -8.8      2.811      4.678
REMARK  4 active torsions:
REMARK  status: ('A' for Active; 'I' for Inactive)
REMARK    1  A    between atoms: C_6  and  N_7 
REMARK       I    between atoms: N_7  and  C_8 
REMARK    2  A    between atoms: C_8  and  C_9 
REMARK    3  A    between atoms: C_10  and  C_11 
REMARK    4  A    between atoms: C_13  and  O_14 
ROOT
HETATM    1  C   UNL     1      41.667 -13.426   5.632  1.00  0.00     0.062 C 
HETATM    2  C   UNL     1      40.462 -12.617   5.169  1.00  0.00     0.202 C 
HETATM    3  N   UNL     1      40.422 -11.316   5.847  1.00  0.00    -0.084 N 
HETATM    4  C   UNL     1      41.453 -10.810   6.595  1.00  0.00     0.725 A 
HETATM    5  N   UNL     1      42.568 -11.546   6.767  1.00  0.00    -0.192 N 
HETATM    6  N   UNL     1      39.342 -10.507   5.893  1.00  0.00    -0.149 NA
HETATM    7  C   UNL     1      39.830  -9.486   6.606  1.00  0.00     0.275 A 
HETATM    8  N   UNL     1      41.116  -9.636   7.063  1.00  0.00    -0.054 NA
HETATM    9  C   UNL     1      42.668 -12.873   6.361  1.00  0.00     0.037 C 
HETATM   10  C   UNL     1      43.925 -13.597   6.772  1.00  0.00     0.070 C 
HETATM   11  H   UNL     1      43.309 -11.173   7.354  1.00  0.00     0.184 HD
ENDROOT
BRANCH   1  12
HETATM   12  C   UNL     1      41.629 -14.866   5.274  1.00  0.00     0.256 C 
HETATM   13  N   UNL     1      42.633 -15.209   4.390  1.00  0.00    -0.323 N 
HETATM   14  H   UNL     1      43.230 -14.458   4.072  1.00  0.00     0.169 HD
HETATM   15  O   UNL     1      40.798 -15.599   5.789  1.00  0.00    -0.267 OA
BRANCH  13  16
HETATM   16  C   UNL     1      42.944 -16.499   3.895  1.00  0.00     0.041 A 
HETATM   17  C   UNL     1      42.347 -16.928   2.690  1.00  0.00    -0.035 A 
HETATM   18  C   UNL     1      42.677 -18.195   2.167  1.00  0.00     0.015 A 
HETATM   19  C   UNL     1      41.368 -16.080   1.925  1.00  0.00     0.050 C 
HETATM   20  C   UNL     1      43.570 -19.044   2.828  1.00  0.00    -0.061 A 
HETATM   21  C   UNL     1      43.949 -20.371   2.241  1.00  0.00     0.048 C 
HETATM   22  C   UNL     1      44.152 -18.610   4.017  1.00  0.00     0.009 A 
HETATM   23  C   UNL     1      43.839 -17.355   4.546  1.00  0.00     0.030 A 
ENDBRANCH  13  16
ENDBRANCH   1  12
BRANCH   2  24
HETATM   24  C   UNL     1      40.403 -12.408   3.659  1.00  0.00    -0.025 A 
HETATM   25  C   UNL     1      41.300 -11.514   3.041  1.00  0.00     0.046 A 
HETATM   26  C   UNL     1      41.260 -11.296   1.662  1.00  0.00     0.068 A 
HETATM   27  C   UNL     1      40.320 -11.980   0.890  1.00  0.00     0.037 A 
HETATM   28  C   UNL     1      39.427 -12.872   1.482  1.00  0.00     0.003 A 
HETATM   29  C   UNL     1      39.468 -13.087   2.858  1.00  0.00     0.010 A 
BRANCH  26  30
HETATM   30  O   UNL     1      42.074 -10.454   0.955  1.00  0.00    -0.356 OA
HETATM   31  C   UNL     1      41.542  -9.899  -0.241  1.00  0.00     0.210 C 
ENDBRANCH  26  30
ENDBRANCH   2  24
TORSDOF 4
ENDMDL
MODEL 4
REMARK VINA RESULT:      -8.5      2.756      6.605
REMARK  4 active torsions:
REMARK  status: ('A' for Active; 'I' for Inactive)
REMARK    1  A    between atoms: C_6  and  N_7 
REMARK       I    between atoms: N_7  and  C_8 
REMARK    2  A    between atoms: C_8  and  C_9 
REMARK    3  A    between atoms: C_10  and  C_11 
REMARK    4  A    between atoms: C_13  and  O_14 
ROOT
HETATM    1  C   UNL     1      41.561 -15.501   3.414  1.00  0.00     0.062 C 
HETATM    2  C   UNL     1      41.243 -15.212   4.876  1.00  0.00     0.202 C 
HETATM    3  N   UNL     1      42.249 -15.823   5.753  1.00  0.00    -0.084 N 
HETATM    4  C   UNL     1      43.430 -16.358   5.309  1.00  0.00     0.725 A 
HETATM    5  N   UNL     1      43.693 -16.371   3.988  1.00  0.00    -0.192 N 
HETATM    6  N   UNL     1      42.094 -16.014   7.081  1.00  0.00    -0.149 NA
HETATM    7  C   UNL     1      43.267 -16.582   7.385  1.00  0.00     0.275 A 
HETATM    8  N   UNL     1      44.109 -16.819   6.327  1.00  0.00    -0.054 NA
HETATM    9  C   UNL     1      42.753 -16.019   3.025  1.00  0.00     0.037 C 
HETATM   10  C   UNL     1      43.159 -16.243   1.591  1.00  0.00     0.070 C 
HETATM   11  H   UNL     1      44.557 -16.803   3.671  1.00  0.00     0.184 HD
ENDROOT
BRANCH   1  12
HETATM   12  C   UNL     1      40.453 -15.225   2.466  1.00  0.00     0.256 C 
HETATM   13  N   UNL     1      40.677 -14.084   1.721  1.00  0.00    -0.323 N 
HETATM   14  H   UNL     1      41.521 -13.569   1.929  1.00  0.00     0.169 HD
HETATM   15  O   UNL     1      39.512 -16.000   2.389  1.00  0.00    -0.267 OA
BRANCH  13  16
HETATM   16  C   UNL     1      39.875 -13.564   0.676  1.00  0.00     0.041 A 
HETATM   17  C   UNL     1      39.160 -12.367   0.897  1.00  0.00    -0.035 A 
HETATM   18  C   UNL     1      38.388 -11.819  -0.146  1.00  0.00     0.015 A 
HETATM   19  C   UNL     1      39.191 -11.638   2.213  1.00  0.00     0.050 C 
HETATM   20  C   UNL     1      38.300 -12.446  -1.393  1.00  0.00    -0.061 A 
HETATM   21  C   UNL     1      37.512 -11.832  -2.511  1.00  0.00     0.048 C 
HETATM   22  C   UNL     1      39.009 -13.627  -1.600  1.00  0.00     0.009 A 
HETATM   23  C   UNL     1      39.783 -14.182  -0.576  1.00  0.00     0.030 A 
ENDBRANCH  13  16
ENDBRANCH   1  12
BRANCH   2  24
HETATM   24  C   UNL     1      41.118 -13.726   5.198  1.00  0.00    -0.025 A 
HETATM   25  C   UNL     1      39.979 -13.252   5.879  1.00  0.00     0.046 A 
HETATM   26  C   UNL     1      39.835 -11.895   6.176  1.00  0.00     0.068 A 
HETATM   27  C   UNL     1      40.839 -11.002   5.796  1.00  0.00     0.037 A 
HETATM   28  C   UNL     1      41.975 -11.453   5.125  1.00  0.00     0.003 A 
HETATM   29  C   UNL     1      42.116 -12.807   4.829  1.00  0.00     0.010 A 
BRANCH  26  30
HETATM   30  O   UNL     1      38.778 -11.320   6.827  1.00  0.00    -0.356 OA
HETATM   31  C   UNL     1      39.086 -10.398   7.864  1.00  0.00     0.210 C 
ENDBRANCH  26  30
ENDBRANCH   2  24
TORSDOF 4
ENDMDL
MODEL 5
REMARK VINA RESULT:      -8.4      2.630      4.888
REMARK  4 active torsions:
REMARK  status: ('A' for Active; 'I' for Inactive)
REMARK    1  A    between atoms: C_6  and  N_7 
REMARK       I    between atoms: N_7  and  C_8 
REMARK    2  A    between atoms: C_8  and  C_9 
REMARK    3  A    between atoms: C_10  and  C_11 
REMARK    4  A    between atoms: C_13  and  O_14 
ROOT
HETATM    1  C   UNL     1      42.192 -12.871   4.792  1.00  0.00     0.062 C 
HETATM    2  C   UNL     1      40.770 -12.541   4.352  1.00  0.00     0.202 C 
HETATM    3  N   UNL     1      40.103 -11.700   5.352  1.00  0.00    -0.084 N 
HETATM    4  C   UNL     1      40.749 -11.098   6.401  1.00  0.00     0.725 A 
HETATM    5  N   UNL     1      42.069 -11.305   6.570  1.00  0.00    -0.192 N 
HETATM    6  N   UNL     1      38.771 -11.492   5.414  1.00  0.00    -0.149 NA
HETATM    7  C   UNL     1      38.699 -10.675   6.471  1.00  0.00     0.275 A 
HETATM    8  N   UNL     1      39.886 -10.416   7.109  1.00  0.00    -0.054 NA
HETATM    9  C   UNL     1      42.790 -12.236   5.830  1.00  0.00     0.037 C 
HETATM   10  C   UNL     1      44.220 -12.456   6.255  1.00  0.00     0.070 C 
HETATM   11  H   UNL     1      42.527 -10.881   7.373  1.00  0.00     0.184 HD
ENDROOT
BRANCH   1  12
HETATM   12  C   UNL     1      42.840 -13.972   4.036  1.00  0.00     0.256 C 
HETATM   13  N   UNL     1      42.460 -15.216   4.500  1.00  0.00    -0.323 N 
HETATM   14  H   UNL     1      41.839 -15.230   5.296  1.00  0.00     0.169 HD
HETATM   15  O   UNL     1      43.574 -13.713   3.094  1.00  0.00    -0.267 OA
BRANCH  13  16
HETATM   16  C   UNL     1      42.819 -16.481   3.973  1.00  0.00     0.041 A 
HETATM   17  C   UNL     1      42.145 -16.958   2.827  1.00  0.00    -0.035 A 
HETATM   18  C   UNL     1      42.518 -18.198   2.271  1.00  0.00     0.015 A 
HETATM   19  C   UNL     1      41.038 -16.187   2.161  1.00  0.00     0.050 C 
HETATM   20  C   UNL     1      43.529 -18.976   2.842  1.00  0.00    -0.061 A 
HETATM   21  C   UNL     1      43.949 -20.273   2.217  1.00  0.00     0.048 C 
HETATM   22  C   UNL     1      44.187 -18.496   3.972  1.00  0.00     0.009 A 
HETATM   23  C   UNL     1      43.832 -17.266   4.534  1.00  0.00     0.030 A 
ENDBRANCH  13  16
ENDBRANCH   1  12
BRANCH   2  24
HETATM   24  C   UNL     1      40.688 -11.871   2.984  1.00  0.00    -0.025 A 
HETATM   25  C   UNL     1      39.925 -12.466   1.959  1.00  0.00     0.046 A 
HETATM   26  C   UNL     1      39.842 -11.879   0.694  1.00  0.00     0.068 A 
HETATM   27  C   UNL     1      40.523 -10.686   0.450  1.00  0.00     0.037 A 
HETATM   28  C   UNL     1      41.280 -10.080   1.452  1.00  0.00     0.003 A 
HETATM   29  C   UNL     1      41.362 -10.667   2.713  1.00  0.00     0.010 A 
BRANCH  26  30
HETATM   30  O   UNL     1      39.138 -12.362  -0.374  1.00  0.00    -0.356 OA
HETATM   31  C   UNL     1      39.538 -13.626  -0.889  1.00  0.00     0.210 C 
ENDBRANCH  26  30
ENDBRANCH   2  24
TORSDOF 4
ENDMDL
MODEL 6
REMARK VINA RESULT:      -8.3      2.203      2.933
REMARK  4 active torsions:
REMARK  status: ('A' for Active; 'I' for Inactive)
REMARK    1  A    between atoms: C_6  and  N_7 
REMARK       I    between atoms: N_7  and  C_8 
REMARK    2  A    between atoms: C_8  and  C_9 
REMARK    3  A    between atoms: C_10  and  C_11 
REMARK    4  A    between atoms: C_13  and  O_14 
ROOT
HETATM    1  C   UNL     1      40.688 -13.115   0.301  1.00  0.00     0.062 C 
HETATM    2  C   UNL     1      41.260 -11.802   0.823  1.00  0.00     0.202 C 
HETATM    3  N   UNL     1      41.368 -10.820  -0.263  1.00  0.00    -0.084 N 
HETATM    4  C   UNL     1      40.805 -10.981  -1.502  1.00  0.00     0.725 A 
HETATM    5  N   UNL     1      40.138 -12.118  -1.781  1.00  0.00    -0.192 N 
HETATM    6  N   UNL     1      42.105  -9.690  -0.204  1.00  0.00    -0.149 NA
HETATM    7  C   UNL     1      41.858  -9.173  -1.413  1.00  0.00     0.275 A 
HETATM    8  N   UNL     1      41.075  -9.937  -2.242  1.00  0.00    -0.054 NA
HETATM    9  C   UNL     1      40.129 -13.218  -0.930  1.00  0.00     0.037 C 
HETATM   10  C   UNL     1      39.470 -14.463  -1.466  1.00  0.00     0.070 C 
HETATM   11  H   UNL     1      39.757 -12.239  -2.716  1.00  0.00     0.184 HD
ENDROOT
BRANCH   1  12
HETATM   12  C   UNL     1      40.842 -14.272   1.219  1.00  0.00     0.256 C 
HETATM   13  N   UNL     1      42.161 -14.662   1.348  1.00  0.00    -0.323 N 
HETATM   14  H   UNL     1      42.837 -14.157   0.791  1.00  0.00     0.169 HD
HETATM   15  O   UNL     1      39.864 -14.730   1.789  1.00  0.00    -0.267 OA
BRANCH  13  16
HETATM   16  C   UNL     1      42.684 -15.672   2.191  1.00  0.00     0.041 A 
HETATM   17  C   UNL     1      43.002 -15.347   3.528  1.00  0.00    -0.035 A 
HETATM   18  C   UNL     1      43.488 -16.352   4.387  1.00  0.00     0.015 A 
HETATM   19  C   UNL     1      42.835 -13.959   4.084  1.00  0.00     0.050 C 
HETATM   20  C   UNL     1      43.681 -17.662   3.939  1.00  0.00    -0.061 A 
HETATM   21  C   UNL     1      44.156 -18.735   4.873  1.00  0.00     0.048 C 
HETATM   22  C   UNL     1      43.365 -17.971   2.618  1.00  0.00     0.009 A 
HETATM   23  C   UNL     1      42.877 -16.987   1.753  1.00  0.00     0.030 A 
ENDBRANCH  13  16
ENDBRANCH   1  12
BRANCH   2  24
HETATM   24  C   UNL     1      40.467 -11.200   1.979  1.00  0.00    -0.025 A 
HETATM   25  C   UNL     1      41.122 -10.892   3.189  1.00  0.00     0.046 A 
HETATM   26  C   UNL     1      40.418 -10.351   4.267  1.00  0.00     0.068 A 
HETATM   27  C   UNL     1      39.049 -10.111   4.137  1.00  0.00     0.037 A 
HETATM   28  C   UNL     1      38.385 -10.406   2.947  1.00  0.00     0.003 A 
HETATM   29  C   UNL     1      39.089 -10.946   1.873  1.00  0.00     0.010 A 
BRANCH  26  30
HETATM   30  O   UNL     1      40.942 -10.015   5.485  1.00  0.00    -0.356 OA
HETATM   31  C   UNL     1      42.283 -10.413   5.740  1.00  0.00     0.210 C 
ENDBRANCH  26  30
ENDBRANCH   2  24
TORSDOF 4
ENDMDL
MODEL 7
REMARK VINA RESULT:      -8.3      3.038      6.181
REMARK  4 active torsions:
REMARK  status: ('A' for Active; 'I' for Inactive)
REMARK    1  A    between atoms: C_6  and  N_7 
REMARK       I    between atoms: N_7  and  C_8 
REMARK    2  A    between atoms: C_8  and  C_9 
REMARK    3  A    between atoms: C_10  and  C_11 
REMARK    4  A    between atoms: C_13  and  O_14 
ROOT
HETATM    1  C   UNL     1      42.110 -11.377   4.479  1.00  0.00     0.062 C 
HETATM    2  C   UNL     1      42.968 -12.271   5.366  1.00  0.00     0.202 C 
HETATM    3  N   UNL     1      43.269 -11.601   6.636  1.00  0.00    -0.084 N 
HETATM    4  C   UNL     1      42.659 -10.449   7.058  1.00  0.00     0.725 A 
HETATM    5  N   UNL     1      41.752  -9.852   6.261  1.00  0.00    -0.192 N 
HETATM    6  N   UNL     1      44.238 -11.984   7.494  1.00  0.00    -0.149 NA
HETATM    7  C   UNL     1      44.088 -11.069   8.459  1.00  0.00     0.275 A 
HETATM    8  N   UNL     1      43.138 -10.106   8.226  1.00  0.00    -0.054 NA
HETATM    9  C   UNL     1      41.517 -10.252   4.950  1.00  0.00     0.037 C 
HETATM   10  C   UNL     1      40.587  -9.377   4.148  1.00  0.00     0.070 C 
HETATM   11  H   UNL     1      41.335  -8.978   6.572  1.00  0.00     0.184 HD
ENDROOT
BRANCH   1  12
HETATM   12  C   UNL     1      42.023 -11.802   3.060  1.00  0.00     0.256 C 
HETATM   13  N   UNL     1      40.911 -12.585   2.818  1.00  0.00    -0.323 N 
HETATM   14  H   UNL     1      40.329 -12.801   3.616  1.00  0.00     0.169 HD
HETATM   15  O   UNL     1      42.858 -11.415   2.257  1.00  0.00    -0.267 OA
BRANCH  13  16
HETATM   16  C   UNL     1      40.471 -13.100   1.574  1.00  0.00     0.041 A 
HETATM   17  C   UNL     1      40.421 -14.500   1.396  1.00  0.00    -0.035 A 
HETATM   18  C   UNL     1      39.950 -15.026   0.177  1.00  0.00     0.015 A 
HETATM   19  C   UNL     1      40.845 -15.467   2.468  1.00  0.00     0.050 C 
HETATM   20  C   UNL     1      39.550 -14.190  -0.870  1.00  0.00    -0.061 A 
HETATM   21  C   UNL     1      39.009 -14.759  -2.148  1.00  0.00     0.048 C 
HETATM   22  C   UNL     1      39.605 -12.810  -0.684  1.00  0.00     0.009 A 
HETATM   23  C   UNL     1      40.066 -12.272   0.522  1.00  0.00     0.030 A 
ENDBRANCH  13  16
ENDBRANCH   1  12
BRANCH   2  24
HETATM   24  C   UNL     1      42.352 -13.640   5.642  1.00  0.00    -0.025 A 
HETATM   25  C   UNL     1      43.103 -14.806   5.395  1.00  0.00     0.046 A 
HETATM   26  C   UNL     1      42.558 -16.071   5.629  1.00  0.00     0.068 A 
HETATM   27  C   UNL     1      41.255 -16.174   6.119  1.00  0.00     0.037 A 
HETATM   28  C   UNL     1      40.499 -15.031   6.373  1.00  0.00     0.003 A 
HETATM   29  C   UNL     1      41.043 -13.770   6.139  1.00  0.00     0.010 A 
BRANCH  26  30
HETATM   30  O   UNL     1      43.186 -17.269   5.425  1.00  0.00    -0.356 OA
HETATM   31  C   UNL     1      43.359 -18.107   6.561  1.00  0.00     0.210 C 
ENDBRANCH  26  30
ENDBRANCH   2  24
TORSDOF 4
ENDMDL
MODEL 8
REMARK VINA RESULT:      -8.1      2.931      6.451
REMARK  4 active torsions:
REMARK  status: ('A' for Active; 'I' for Inactive)
REMARK    1  A    between atoms: C_6  and  N_7 
REMARK       I    between atoms: N_7  and  C_8 
REMARK    2  A    between atoms: C_8  and  C_9 
REMARK    3  A    between atoms: C_10  and  C_11 
REMARK    4  A    between atoms: C_13  and  O_14 
ROOT
HETATM    1  C   UNL     1      41.596 -12.289   5.190  1.00  0.00     0.062 C 
HETATM    2  C   UNL     1      42.994 -12.875   5.352  1.00  0.00     0.202 C 
HETATM    3  N   UNL     1      43.787 -12.065   6.284  1.00  0.00    -0.084 N 
HETATM    4  C   UNL     1      43.264 -11.079   7.079  1.00  0.00     0.725 A 
HETATM    5  N   UNL     1      41.953 -10.786   6.992  1.00  0.00    -0.192 N 
HETATM    6  N   UNL     1      45.130 -12.131   6.406  1.00  0.00    -0.149 NA
HETATM    7  C   UNL     1      45.335 -11.220   7.364  1.00  0.00     0.275 A 
HETATM    8  N   UNL     1      44.220 -10.547   7.797  1.00  0.00    -0.054 NA
HETATM    9  C   UNL     1      41.121 -11.321   6.014  1.00  0.00     0.037 C 
HETATM   10  C   UNL     1      39.721 -10.767   5.960  1.00  0.00     0.070 C 
HETATM   11  H   UNL     1      41.587 -10.027   7.561  1.00  0.00     0.184 HD
ENDROOT
BRANCH   1  12
HETATM   12  C   UNL     1      40.826 -12.818   4.037  1.00  0.00     0.256 C 
HETATM   13  N   UNL     1      41.417 -12.506   2.829  1.00  0.00    -0.323 N 
HETATM   14  H   UNL     1      42.253 -11.940   2.869  1.00  0.00     0.169 HD
HETATM   15  O   UNL     1      39.821 -13.486   4.232  1.00  0.00    -0.267 OA
BRANCH  13  16
HETATM   16  C   UNL     1      41.003 -12.909   1.536  1.00  0.00     0.041 A 
HETATM   17  C   UNL     1      41.007 -11.958   0.492  1.00  0.00    -0.035 A 
HETATM   18  C   UNL     1      40.633 -12.355  -0.807  1.00  0.00     0.015 A 
HETATM   19  C   UNL     1      41.403 -10.522   0.708  1.00  0.00     0.050 C 
HETATM   20  C   UNL     1      40.241 -13.668  -1.082  1.00  0.00    -0.061 A 
HETATM   21  C   UNL     1      39.888 -14.092  -2.477  1.00  0.00     0.048 C 
HETATM   22  C   UNL     1      40.240 -14.598  -0.044  1.00  0.00     0.009 A 
HETATM   23  C   UNL     1      40.612 -14.221   1.250  1.00  0.00     0.030 A 
ENDBRANCH  13  16
ENDBRANCH   1  12
BRANCH   2  24
HETATM   24  C   UNL     1      43.003 -14.332   5.803  1.00  0.00    -0.025 A 
HETATM   25  C   UNL     1      43.257 -15.352   4.865  1.00  0.00     0.046 A 
HETATM   26  C   UNL     1      43.260 -16.695   5.250  1.00  0.00     0.068 A 
HETATM   27  C   UNL     1      43.014 -17.024   6.584  1.00  0.00     0.037 A 
HETATM   28  C   UNL     1      42.766 -16.028   7.527  1.00  0.00     0.003 A 
HETATM   29  C   UNL     1      42.762 -14.689   7.141  1.00  0.00     0.010 A 
BRANCH  26  30
HETATM   30  O   UNL     1      43.490 -17.767   4.432  1.00  0.00    -0.356 OA
HETATM   31  C   UNL     1      43.310 -17.562   3.036  1.00  0.00     0.210 C 
ENDBRANCH  26  30
ENDBRANCH   2  24
TORSDOF 4
ENDMDL
MODEL 9
REMARK VINA RESULT:      -7.8      2.357      6.528
REMARK  4 active torsions:
REMARK  status: ('A' for Active; 'I' for Inactive)
REMARK    1  A    between atoms: C_6  and  N_7 
REMARK       I    between atoms: N_7  and  C_8 
REMARK    2  A    between atoms: C_8  and  C_9 
REMARK    3  A    between atoms: C_10  and  C_11 
REMARK    4  A    between atoms: C_13  and  O_14 
ROOT
HETATM    1  C   UNL     1      41.485 -15.374   3.497  1.00  0.00     0.062 C 
HETATM    2  C   UNL     1      41.316 -15.219   5.004  1.00  0.00     0.202 C 
HETATM    3  N   UNL     1      42.335 -15.996   5.720  1.00  0.00    -0.084 N 
HETATM    4  C   UNL     1      43.425 -16.569   5.118  1.00  0.00     0.725 A 
HETATM    5  N   UNL     1      43.574 -16.461   3.783  1.00  0.00    -0.192 N 
HETATM    6  N   UNL     1      42.276 -16.315   7.030  1.00  0.00    -0.149 NA
HETATM    7  C   UNL     1      43.416 -17.001   7.167  1.00  0.00     0.275 A 
HETATM    8  N   UNL     1      44.144 -17.187   6.018  1.00  0.00    -0.054 NA
HETATM    9  C   UNL     1      42.591 -15.937   2.951  1.00  0.00     0.037 C 
HETATM   10  C   UNL     1      42.855 -16.038   1.470  1.00  0.00     0.070 C 
HETATM   11  H   UNL     1      44.369 -16.922   3.347  1.00  0.00     0.184 HD
ENDROOT
BRANCH   1  12
HETATM   12  C   UNL     1      40.329 -14.914   2.688  1.00  0.00     0.256 C 
HETATM   13  N   UNL     1      40.441 -13.585   2.329  1.00  0.00    -0.323 N 
HETATM   14  H   UNL     1      41.248 -13.089   2.681  1.00  0.00     0.169 HD
HETATM   15  O   UNL     1      39.449 -15.704   2.380  1.00  0.00    -0.267 OA
BRANCH  13  16
HETATM   16  C   UNL     1      39.568 -12.838   1.500  1.00  0.00     0.041 A 
HETATM   17  C   UNL     1      39.613 -13.043   0.104  1.00  0.00    -0.035 A 
HETATM   18  C   UNL     1      38.725 -12.333  -0.728  1.00  0.00     0.015 A 
HETATM   19  C   UNL     1      40.574 -14.003  -0.542  1.00  0.00     0.050 C 
HETATM   20  C   UNL     1      37.812 -11.414  -0.202  1.00  0.00    -0.061 A 
HETATM   21  C   UNL     1      36.840 -10.697  -1.091  1.00  0.00     0.048 C 
HETATM   22  C   UNL     1      37.777 -11.219   1.177  1.00  0.00     0.009 A 
HETATM   23  C   UNL     1      38.649 -11.919   2.017  1.00  0.00     0.030 A 
ENDBRANCH  13  16
ENDBRANCH   1  12
BRANCH   2  24
HETATM   24  C   UNL     1      41.346 -13.771   5.483  1.00  0.00    -0.025 A 
HETATM   25  C   UNL     1      42.569 -13.072   5.515  1.00  0.00     0.046 A 
HETATM   26  C   UNL     1      42.626 -11.749   5.960  1.00  0.00     0.068 A 
HETATM   27  C   UNL     1      41.453 -11.115   6.371  1.00  0.00     0.037 A 
HETATM   28  C   UNL     1      40.233 -11.789   6.342  1.00  0.00     0.003 A 
HETATM   29  C   UNL     1      40.178 -13.109   5.899  1.00  0.00     0.010 A 
BRANCH  26  30
HETATM   30  O   UNL     1      43.750 -10.973   6.039  1.00  0.00    -0.356 OA
HETATM   31  C   UNL     1      44.963 -11.630   6.386  1.00  0.00     0.210 C 
ENDBRANCH  26  30
ENDBRANCH   2  24
TORSDOF 4
ENDMDL
MODEL 10
REMARK VINA RESULT:      -7.7     15.199     18.054
REMARK  4 active torsions:
REMARK  status: ('A' for Active; 'I' for Inactive)
REMARK    1  A    between atoms: C_6  and  N_7 
REMARK       I    between atoms: N_7  and  C_8 
REMARK    2  A    between atoms: C_8  and  C_9 
REMARK    3  A    between atoms: C_10  and  C_11 
REMARK    4  A    between atoms: C_13  and  O_14 
ROOT
HETATM    1  C   UNL     1      47.003 -29.495   0.348  1.00  0.00     0.062 C 
HETATM    2  C   UNL     1      45.944 -30.253  -0.442  1.00  0.00     0.202 C 
HETATM    3  N   UNL     1      44.712 -30.389   0.345  1.00  0.00    -0.084 N 
HETATM    4  C   UNL     1      44.472 -29.715   1.514  1.00  0.00     0.725 A 
HETATM    5  N   UNL     1      45.422 -28.902   2.015  1.00  0.00    -0.192 N 
HETATM    6  N   UNL     1      43.714 -31.253   0.064  1.00  0.00    -0.149 NA
HETATM    7  C   UNL     1      42.861 -30.974   1.057  1.00  0.00     0.275 A 
HETATM    8  N   UNL     1      43.292 -30.045   1.971  1.00  0.00    -0.054 NA
HETATM    9  C   UNL     1      46.710 -28.833   1.494  1.00  0.00     0.037 C 
HETATM   10  C   UNL     1      47.693 -27.994   2.271  1.00  0.00     0.070 C 
HETATM   11  H   UNL     1      45.243 -28.437   2.901  1.00  0.00     0.184 HD
ENDROOT
BRANCH   1  12
HETATM   12  C   UNL     1      48.379 -29.586  -0.203  1.00  0.00     0.256 C 
HETATM   13  N   UNL     1      48.967 -30.806   0.065  1.00  0.00    -0.323 N 
HETATM   14  H   UNL     1      48.427 -31.455   0.620  1.00  0.00     0.169 HD
HETATM   15  O   UNL     1      48.837 -28.656  -0.850  1.00  0.00    -0.267 OA
BRANCH  13  16
HETATM   16  C   UNL     1      50.234 -31.268  -0.369  1.00  0.00     0.041 A 
HETATM   17  C   UNL     1      50.955 -32.157   0.458  1.00  0.00    -0.035 A 
HETATM   18  C   UNL     1      52.199 -32.653   0.021  1.00  0.00     0.015 A 
HETATM   19  C   UNL     1      50.443 -32.610   1.798  1.00  0.00     0.050 C 
HETATM   20  C   UNL     1      52.745 -32.268  -1.207  1.00  0.00    -0.061 A 
HETATM   21  C   UNL     1      54.049 -32.836  -1.683  1.00  0.00     0.048 C 
HETATM   22  C   UNL     1      52.026 -31.389  -2.014  1.00  0.00     0.009 A 
HETATM   23  C   UNL     1      50.788 -30.891  -1.597  1.00  0.00     0.030 A 
ENDBRANCH  13  16
ENDBRANCH   1  12
BRANCH   2  24
HETATM   24  C   UNL     1      45.619 -29.629  -1.796  1.00  0.00    -0.025 A 
HETATM   25  C   UNL     1      45.582 -30.440  -2.948  1.00  0.00     0.046 A 
HETATM   26  C   UNL     1      45.299 -29.891  -4.201  1.00  0.00     0.068 A 
HETATM   27  C   UNL     1      45.045 -28.523  -4.306  1.00  0.00     0.037 A 
HETATM   28  C   UNL     1      45.074 -27.705  -3.177  1.00  0.00     0.003 A 
HETATM   29  C   UNL     1      45.357 -28.254  -1.928  1.00  0.00     0.010 A 
BRANCH  26  30
HETATM   30  O   UNL     1      45.238 -30.574  -5.385  1.00  0.00    -0.356 OA
HETATM   31  C   UNL     1      43.949 -30.755  -5.958  1.00  0.00     0.210 C 
ENDBRANCH  26  30
ENDBRANCH   2  24
TORSDOF 4
ENDMDL
