MODEL 1
REMARK VINA RESULT:      -8.3      0.000      0.000
REMARK  7 active torsions:
REMARK  status: ('A' for Active; 'I' for Inactive)
REMARK    1  A    between atoms: C_2  and  C_3 
REMARK    2  A    between atoms: C_3  and  C_4 
REMARK    3  A    between atoms: C_7  and  C_8 
REMARK    4  A    between atoms: C_14  and  C_15 
REMARK    5  A    between atoms: C_16  and  O_17 
REMARK    6  A    between atoms: O_17  and  C_18 
REMARK       I    between atoms: C_18  and  N_19 
REMARK    7  A    between atoms: C_33  and  N_34 
ROOT
HETATM    1  C   UNL     1      39.394 -14.355  -0.875  1.00  0.00     0.099 A 
HETATM    2  N   UNL     1      39.274 -15.235  -1.891  1.00  0.00    -0.172 NA
HETATM    3  N   UNL     1      38.410 -14.662  -2.748  1.00  0.00    -0.256 N 
HETATM    4  H   UNL     1      38.149 -15.164  -3.588  1.00  0.00     0.191 HD
HETATM    5  C   UNL     1      37.990 -13.443  -2.331  1.00  0.00     0.175 A 
HETATM    6  C   UNL     1      38.626 -13.188  -1.144  1.00  0.00     0.040 A 
HETATM    7  C   UNL     1      38.382 -11.895  -0.444  1.00  0.00     0.109 A 
HETATM    8  C   UNL     1      37.272 -11.107  -1.146  1.00  0.00     0.081 A 
HETATM    9  C   UNL     1      36.790  -9.953  -0.463  1.00  0.00     0.100 C 
HETATM   10  N   UNL     1      36.393  -9.028   0.115  1.00  0.00    -0.191 NA
HETATM   11  C   UNL     1      36.715 -11.502  -2.324  1.00  0.00     0.140 A 
HETATM   12  O   UNL     1      37.119 -12.679  -2.979  1.00  0.00    -0.279 OA
ENDROOT
BRANCH   7  13
HETATM   13  C   UNL     1      39.704 -11.135  -0.425  1.00  0.00    -0.010 A 
HETATM   14  C   UNL     1      40.368 -10.879   0.792  1.00  0.00     0.088 A 
HETATM   15  C   UNL     1      41.533 -10.110   0.835  1.00  0.00     0.038 A 
HETATM   16  C   UNL     1      42.074  -9.602  -0.346  1.00  0.00     0.003 A 
HETATM   17  C   UNL     1      41.440  -9.841  -1.560  1.00  0.00     0.001 A 
HETATM   18  C   UNL     1      40.261 -10.588  -1.600  1.00  0.00     0.011 A 
BRANCH  14  19
HETATM   19  O   UNL     1      39.740 -11.357   1.974  1.00  0.00    -0.261 OA
BRANCH  19  20
HETATM   20  C   UNL     1      39.325 -10.577   3.059  1.00  0.00     0.368 C 
HETATM   21  N   UNL     1      39.406 -11.265   4.261  1.00  0.00    -0.324 N 
HETATM   22  C   UNL     1      39.670 -12.702   4.334  1.00  0.00     0.154 C 
HETATM   23  C   UNL     1      38.720 -10.705   5.424  1.00  0.00     0.154 C 
HETATM   24  C   UNL     1      40.265 -13.089   5.691  1.00  0.00     0.187 C 
HETATM   25  O   UNL     1      39.449 -12.614   6.771  1.00  0.00    -0.388 OA
HETATM   26  C   UNL     1      39.349 -11.182   6.734  1.00  0.00     0.187 C 
HETATM   27  O   UNL     1      38.943  -9.415   2.975  1.00  0.00    -0.238 OA
ENDBRANCH  19  20
ENDBRANCH  14  19
ENDBRANCH   7  13
BRANCH  11  28
HETATM   28  N   UNL     1      35.713 -10.838  -2.995  1.00  0.00    -0.282 NA
HETATM   29  H   UNL     1      34.957 -11.422  -3.345  1.00  0.00     0.126 HD
HETATM   30  H   UNL     1      35.380 -10.027  -2.480  1.00  0.00     0.126 HD
ENDBRANCH  11  28
BRANCH   1  31
HETATM   31  C   UNL     1      40.231 -14.662   0.284  1.00  0.00    -0.005 A 
HETATM   32  C   UNL     1      41.480 -14.043   0.430  1.00  0.00     0.014 A 
HETATM   33  C   UNL     1      42.300 -14.338   1.522  1.00  0.00     0.008 A 
HETATM   34  C   UNL     1      41.887 -15.259   2.491  1.00  0.00    -0.058 A 
HETATM   35  C   UNL     1      40.640 -15.881   2.346  1.00  0.00     0.008 A 
HETATM   36  C   UNL     1      39.824 -15.590   1.249  1.00  0.00     0.014 A 
BRANCH  34  37
HETATM   37  C   UNL     1      42.772 -15.585   3.671  1.00  0.00     0.042 C 
BRANCH  37  38
HETATM   38  C   UNL     1      42.970 -17.095   3.899  1.00  0.00    -0.019 C 
HETATM   39  C   UNL     1      43.868 -17.379   5.106  1.00  0.00     0.010 C 
HETATM   40  C   UNL     1      43.574 -17.732   2.646  1.00  0.00     0.010 C 
ENDBRANCH  37  38
ENDBRANCH  34  37
ENDBRANCH   1  31
TORSDOF 7
ENDMDL
MODEL 2
REMARK VINA RESULT:      -7.9     10.195     13.888
REMARK  7 active torsions:
REMARK  status: ('A' for Active; 'I' for Inactive)
REMARK    1  A    between atoms: C_2  and  C_3 
REMARK    2  A    between atoms: C_3  and  C_4 
REMARK    3  A    between atoms: C_7  and  C_8 
REMARK    4  A    between atoms: C_14  and  C_15 
REMARK    5  A    between atoms: C_16  and  O_17 
REMARK    6  A    between atoms: O_17  and  C_18 
REMARK       I    between atoms: C_18  and  N_19 
REMARK    7  A    between atoms: C_33  and  N_34 
ROOT
HETATM    1  C   UNL     1      43.052  -7.916  11.559  1.00  0.00     0.099 A 
HETATM    2  N   UNL     1      44.020  -8.778  11.184  1.00  0.00    -0.172 NA
HETATM    3  N   UNL     1      44.152  -8.598   9.857  1.00  0.00    -0.256 N 
HETATM    4  H   UNL     1      44.819  -9.168   9.350  1.00  0.00     0.191 HD
HETATM    5  C   UNL     1      43.323  -7.642   9.374  1.00  0.00     0.175 A 
HETATM    6  C   UNL     1      42.619  -7.149  10.442  1.00  0.00     0.040 A 
HETATM    7  C   UNL     1      41.632  -6.053  10.228  1.00  0.00     0.109 A 
HETATM    8  C   UNL     1      41.461  -5.771   8.732  1.00  0.00     0.081 A 
HETATM    9  C   UNL     1      40.394  -4.897   8.374  1.00  0.00     0.100 C 
HETATM   10  N   UNL     1      39.508  -4.199   8.096  1.00  0.00    -0.191 NA
HETATM   11  C   UNL     1      42.228  -6.361   7.775  1.00  0.00     0.140 A 
HETATM   12  O   UNL     1      43.237  -7.287   8.098  1.00  0.00    -0.279 OA
ENDROOT
BRANCH   7  13
HETATM   13  C   UNL     1      42.139  -4.833  10.989  1.00  0.00    -0.010 A 
HETATM   14  C   UNL     1      41.528  -4.433  12.195  1.00  0.00     0.088 A 
HETATM   15  C   UNL     1      41.924  -3.269  12.858  1.00  0.00     0.038 A 
HETATM   16  C   UNL     1      42.960  -2.493  12.341  1.00  0.00     0.003 A 
HETATM   17  C   UNL     1      43.581  -2.865  11.153  1.00  0.00     0.001 A 
HETATM   18  C   UNL     1      43.169  -4.014  10.477  1.00  0.00     0.011 A 
BRANCH  14  19
HETATM   19  O   UNL     1      40.431  -5.216  12.643  1.00  0.00    -0.261 OA
BRANCH  19  20
HETATM   20  C   UNL     1      39.083  -4.840  12.613  1.00  0.00     0.368 C 
HETATM   21  N   UNL     1      38.603  -4.507  13.871  1.00  0.00    -0.324 N 
HETATM   22  C   UNL     1      39.361  -4.754  15.099  1.00  0.00     0.154 C 
HETATM   23  C   UNL     1      37.156  -4.402  14.053  1.00  0.00     0.154 C 
HETATM   24  C   UNL     1      38.910  -3.821  16.226  1.00  0.00     0.187 C 
HETATM   25  O   UNL     1      37.491  -3.889  16.422  1.00  0.00    -0.388 OA
HETATM   26  C   UNL     1      36.799  -3.492  15.228  1.00  0.00     0.187 C 
HETATM   27  O   UNL     1      38.397  -4.793  11.598  1.00  0.00    -0.238 OA
ENDBRANCH  19  20
ENDBRANCH  14  19
ENDBRANCH   7  13
BRANCH  11  28
HETATM   28  N   UNL     1      42.116  -6.150   6.419  1.00  0.00    -0.282 NA
HETATM   29  H   UNL     1      42.899  -6.477   5.858  1.00  0.00     0.126 HD
HETATM   30  H   UNL     1      41.216  -6.456   6.058  1.00  0.00     0.126 HD
ENDBRANCH  11  28
BRANCH   1  31
HETATM   31  C   UNL     1      42.598  -7.861  12.948  1.00  0.00    -0.005 A 
HETATM   32  C   UNL     1      41.480  -8.603  13.349  1.00  0.00     0.014 A 
HETATM   33  C   UNL     1      41.022  -8.549  14.668  1.00  0.00     0.008 A 
HETATM   34  C   UNL     1      41.674  -7.749  15.613  1.00  0.00    -0.058 A 
HETATM   35  C   UNL     1      42.790  -7.003  15.214  1.00  0.00     0.008 A 
HETATM   36  C   UNL     1      43.243  -7.053  13.892  1.00  0.00     0.014 A 
BRANCH  34  37
HETATM   37  C   UNL     1      41.179  -7.682  17.038  1.00  0.00     0.042 C 
BRANCH  37  38
HETATM   38  C   UNL     1      42.117  -6.910  17.985  1.00  0.00    -0.019 C 
HETATM   39  C   UNL     1      42.370  -7.672  19.289  1.00  0.00     0.010 C 
HETATM   40  C   UNL     1      41.519  -5.537  18.298  1.00  0.00     0.010 C 
ENDBRANCH  37  38
ENDBRANCH  34  37
ENDBRANCH   1  31
TORSDOF 7
ENDMDL
MODEL 3
REMARK VINA RESULT:      -7.9     17.447     19.996
REMARK  7 active torsions:
REMARK  status: ('A' for Active; 'I' for Inactive)
REMARK    1  A    between atoms: C_2  and  C_3 
REMARK    2  A    between atoms: C_3  and  C_4 
REMARK    3  A    between atoms: C_7  and  C_8 
REMARK    4  A    between atoms: C_14  and  C_15 
REMARK    5  A    between atoms: C_16  and  O_17 
REMARK    6  A    between atoms: O_17  and  C_18 
REMARK       I    between atoms: C_18  and  N_19 
REMARK    7  A    between atoms: C_33  and  N_34 
ROOT
HETATM    1  C   UNL     1      47.105 -28.809  -0.776  1.00  0.00     0.099 A 
HETATM    2  N   UNL     1      47.457 -27.731  -1.507  1.00  0.00    -0.172 NA
HETATM    3  N   UNL     1      46.741 -27.832  -2.642  1.00  0.00    -0.256 N 
HETATM    4  H   UNL     1      46.864 -27.129  -3.361  1.00  0.00     0.191 HD
HETATM    5  C   UNL     1      45.933 -28.918  -2.656  1.00  0.00     0.175 A 
HETATM    6  C   UNL     1      46.108 -29.560  -1.457  1.00  0.00     0.040 A 
HETATM    7  C   UNL     1      45.325 -30.793  -1.164  1.00  0.00     0.109 A 
HETATM    8  C   UNL     1      44.534 -31.233  -2.400  1.00  0.00     0.081 A 
HETATM    9  C   UNL     1      43.911 -32.513  -2.327  1.00  0.00     0.100 C 
HETATM   10  N   UNL     1      43.426 -33.566  -2.260  1.00  0.00    -0.191 NA
HETATM   11  C   UNL     1      44.471 -30.492  -3.540  1.00  0.00     0.140 A 
HETATM   12  O   UNL     1      45.142 -29.262  -3.665  1.00  0.00    -0.279 OA
ENDROOT
BRANCH   7  13
HETATM   13  C   UNL     1      44.415 -30.480   0.020  1.00  0.00    -0.010 A 
HETATM   14  C   UNL     1      44.409 -31.309   1.160  1.00  0.00     0.088 A 
HETATM   15  C   UNL     1      43.520 -31.086   2.214  1.00  0.00     0.038 A 
HETATM   16  C   UNL     1      42.635 -30.010   2.160  1.00  0.00     0.003 A 
HETATM   17  C   UNL     1      42.621 -29.176   1.047  1.00  0.00     0.001 A 
HETATM   18  C   UNL     1      43.492 -29.414  -0.017  1.00  0.00     0.011 A 
BRANCH  14  19
HETATM   19  O   UNL     1      45.278 -32.433   1.136  1.00  0.00    -0.261 OA
BRANCH  19  20
HETATM   20  C   UNL     1      46.496 -32.547   1.814  1.00  0.00     0.368 C 
HETATM   21  N   UNL     1      47.488 -33.105   1.021  1.00  0.00    -0.324 N 
HETATM   22  C   UNL     1      47.212 -33.710  -0.283  1.00  0.00     0.154 C 
HETATM   23  C   UNL     1      48.710 -33.576   1.671  1.00  0.00     0.154 C 
HETATM   24  C   UNL     1      48.462 -33.716  -1.168  1.00  0.00     0.187 C 
HETATM   25  O   UNL     1      49.574 -34.322  -0.493  1.00  0.00    -0.388 OA
HETATM   26  C   UNL     1      49.893 -33.596   0.703  1.00  0.00     0.187 C 
HETATM   27  O   UNL     1      46.685 -32.189   2.971  1.00  0.00    -0.238 OA
ENDBRANCH  19  20
ENDBRANCH  14  19
ENDBRANCH   7  13
BRANCH  11  28
HETATM   28  N   UNL     1      43.782 -30.840  -4.681  1.00  0.00    -0.282 NA
HETATM   29  H   UNL     1      43.401 -30.063  -5.216  1.00  0.00     0.126 HD
HETATM   30  H   UNL     1      44.302 -31.498  -5.255  1.00  0.00     0.126 HD
ENDBRANCH  11  28
BRANCH   1  31
HETATM   31  C   UNL     1      47.725 -29.064   0.525  1.00  0.00    -0.005 A 
HETATM   32  C   UNL     1      47.144 -28.547   1.690  1.00  0.00     0.014 A 
HETATM   33  C   UNL     1      47.732 -28.766   2.938  1.00  0.00     0.008 A 
HETATM   34  C   UNL     1      48.915 -29.506   3.046  1.00  0.00    -0.058 A 
HETATM   35  C   UNL     1      49.500 -30.021   1.882  1.00  0.00     0.008 A 
HETATM   36  C   UNL     1      48.914 -29.795   0.633  1.00  0.00     0.014 A 
BRANCH  34  37
HETATM   37  C   UNL     1      49.557 -29.741   4.392  1.00  0.00     0.042 C 
BRANCH  37  38
HETATM   38  C   UNL     1      50.159 -31.149   4.556  1.00  0.00    -0.019 C 
HETATM   39  C   UNL     1      49.227 -32.084   5.331  1.00  0.00     0.010 C 
HETATM   40  C   UNL     1      51.508 -31.054   5.272  1.00  0.00     0.010 C 
ENDBRANCH  37  38
ENDBRANCH  34  37
ENDBRANCH   1  31
TORSDOF 7
ENDMDL
MODEL 4
REMARK VINA RESULT:      -7.8     17.742     20.390
REMARK  7 active torsions:
REMARK  status: ('A' for Active; 'I' for Inactive)
REMARK    1  A    between atoms: C_2  and  C_3 
REMARK    2  A    between atoms: C_3  and  C_4 
REMARK    3  A    between atoms: C_7  and  C_8 
REMARK    4  A    between atoms: C_14  and  C_15 
REMARK    5  A    between atoms: C_16  and  O_17 
REMARK    6  A    between atoms: O_17  and  C_18 
REMARK       I    between atoms: C_18  and  N_19 
REMARK    7  A    between atoms: C_33  and  N_34 
ROOT
HETATM    1  C   UNL     1      46.383 -29.585   1.132  1.00  0.00     0.099 A 
HETATM    2  N   UNL     1      46.981 -28.757   2.014  1.00  0.00    -0.172 NA
HETATM    3  N   UNL     1      48.230 -28.590   1.543  1.00  0.00    -0.256 N 
HETATM    4  H   UNL     1      48.878 -28.014   2.067  1.00  0.00     0.191 HD
HETATM    5  C   UNL     1      48.447 -29.261   0.386  1.00  0.00     0.175 A 
HETATM    6  C   UNL     1      47.272 -29.890   0.064  1.00  0.00     0.040 A 
HETATM    7  C   UNL     1      47.190 -30.697  -1.185  1.00  0.00     0.109 A 
HETATM    8  C   UNL     1      48.570 -30.814  -1.840  1.00  0.00     0.081 A 
HETATM    9  C   UNL     1      48.679 -31.734  -2.922  1.00  0.00     0.100 C 
HETATM   10  N   UNL     1      48.756 -32.502  -3.790  1.00  0.00    -0.191 NA
HETATM   11  C   UNL     1      49.663 -30.139  -1.388  1.00  0.00     0.140 A 
HETATM   12  O   UNL     1      49.600 -29.284  -0.272  1.00  0.00    -0.279 OA
ENDROOT
BRANCH   7  13
HETATM   13  C   UNL     1      46.176 -30.016  -2.098  1.00  0.00    -0.010 A 
HETATM   14  C   UNL     1      45.168 -30.765  -2.739  1.00  0.00     0.088 A 
HETATM   15  C   UNL     1      44.287 -30.171  -3.645  1.00  0.00     0.038 A 
HETATM   16  C   UNL     1      44.380 -28.805  -3.910  1.00  0.00     0.003 A 
HETATM   17  C   UNL     1      45.365 -28.042  -3.291  1.00  0.00     0.001 A 
HETATM   18  C   UNL     1      46.262 -28.641  -2.405  1.00  0.00     0.011 A 
BRANCH  14  19
HETATM   19  O   UNL     1      45.160 -32.164  -2.491  1.00  0.00    -0.261 OA
BRANCH  19  20
HETATM   20  C   UNL     1      44.465 -33.128  -3.231  1.00  0.00     0.368 C 
HETATM   21  N   UNL     1      43.508 -33.783  -2.470  1.00  0.00    -0.324 N 
HETATM   22  C   UNL     1      43.415 -33.635  -1.017  1.00  0.00     0.154 C 
HETATM   23  C   UNL     1      42.927 -35.014  -3.001  1.00  0.00     0.154 C 
HETATM   24  C   UNL     1      42.005 -33.962  -0.515  1.00  0.00     0.187 C 
HETATM   25  O   UNL     1      41.575 -35.251  -0.975  1.00  0.00    -0.388 OA
HETATM   26  C   UNL     1      41.544 -35.288  -2.410  1.00  0.00     0.187 C 
HETATM   27  O   UNL     1      44.660 -33.368  -4.417  1.00  0.00    -0.238 OA
ENDBRANCH  19  20
ENDBRANCH  14  19
ENDBRANCH   7  13
BRANCH  11  28
HETATM   28  N   UNL     1      50.926 -30.209  -1.932  1.00  0.00    -0.282 NA
HETATM   29  H   UNL     1      50.981 -30.622  -2.860  1.00  0.00     0.126 HD
HETATM   30  H   UNL     1      51.422 -29.324  -1.862  1.00  0.00     0.126 HD
ENDBRANCH  11  28
BRANCH   1  31
HETATM   31  C   UNL     1      45.007 -30.034   1.344  1.00  0.00    -0.005 A 
HETATM   32  C   UNL     1      43.940 -29.289   0.825  1.00  0.00     0.014 A 
HETATM   33  C   UNL     1      42.619 -29.693   1.033  1.00  0.00     0.008 A 
HETATM   34  C   UNL     1      42.339 -30.852   1.766  1.00  0.00    -0.058 A 
HETATM   35  C   UNL     1      43.404 -31.597   2.289  1.00  0.00     0.008 A 
HETATM   36  C   UNL     1      44.725 -31.187   2.085  1.00  0.00     0.014 A 
BRANCH  34  37
HETATM   37  C   UNL     1      40.913 -31.291   1.998  1.00  0.00     0.042 C 
BRANCH  37  38
HETATM   38  C   UNL     1      40.680 -31.941   3.375  1.00  0.00    -0.019 C 
HETATM   39  C   UNL     1      39.412 -32.799   3.396  1.00  0.00     0.010 C 
HETATM   40  C   UNL     1      40.586 -30.856   4.449  1.00  0.00     0.010 C 
ENDBRANCH  37  38
ENDBRANCH  34  37
ENDBRANCH   1  31
TORSDOF 7
ENDMDL
MODEL 5
REMARK VINA RESULT:      -7.7     17.695     20.805
REMARK  7 active torsions:
REMARK  status: ('A' for Active; 'I' for Inactive)
REMARK    1  A    between atoms: C_2  and  C_3 
REMARK    2  A    between atoms: C_3  and  C_4 
REMARK    3  A    between atoms: C_7  and  C_8 
REMARK    4  A    between atoms: C_14  and  C_15 
REMARK    5  A    between atoms: C_16  and  O_17 
REMARK    6  A    between atoms: O_17  and  C_18 
REMARK       I    between atoms: C_18  and  N_19 
REMARK    7  A    between atoms: C_33  and  N_34 
ROOT
HETATM    1  C   UNL     1      47.971 -28.697   1.594  1.00  0.00     0.099 A 
HETATM    2  N   UNL     1      48.243 -27.568   2.282  1.00  0.00    -0.172 NA
HETATM    3  N   UNL     1      48.821 -27.986   3.422  1.00  0.00    -0.256 N 
HETATM    4  H   UNL     1      49.093 -27.297   4.114  1.00  0.00     0.191 HD
HETATM    5  C   UNL     1      48.948 -29.333   3.482  1.00  0.00     0.175 A 
HETATM    6  C   UNL     1      48.445 -29.832   2.308  1.00  0.00     0.040 A 
HETATM    7  C   UNL     1      48.469 -31.303   2.065  1.00  0.00     0.109 A 
HETATM    8  C   UNL     1      48.937 -32.045   3.321  1.00  0.00     0.081 A 
HETATM    9  C   UNL     1      48.804 -33.464   3.300  1.00  0.00     0.100 C 
HETATM   10  N   UNL     1      48.671 -34.617   3.276  1.00  0.00    -0.191 NA
HETATM   11  C   UNL     1      49.394 -31.406   4.432  1.00  0.00     0.140 A 
HETATM   12  O   UNL     1      49.462 -30.002   4.506  1.00  0.00    -0.279 OA
ENDROOT
BRANCH   7  13
HETATM   13  C   UNL     1      49.389 -31.549   0.875  1.00  0.00    -0.010 A 
HETATM   14  C   UNL     1      48.950 -32.310  -0.228  1.00  0.00     0.088 A 
HETATM   15  C   UNL     1      49.808 -32.617  -1.286  1.00  0.00     0.038 A 
HETATM   16  C   UNL     1      51.120 -32.146  -1.275  1.00  0.00     0.003 A 
HETATM   17  C   UNL     1      51.580 -31.393  -0.199  1.00  0.00     0.001 A 
HETATM   18  C   UNL     1      50.729 -31.107   0.870  1.00  0.00     0.011 A 
BRANCH  14  19
HETATM   19  O   UNL     1      47.628 -32.826  -0.159  1.00  0.00    -0.261 OA
BRANCH  19  20
HETATM   20  C   UNL     1      46.496 -32.278  -0.772  1.00  0.00     0.368 C 
HETATM   21  N   UNL     1      45.436 -32.137   0.112  1.00  0.00    -0.324 N 
HETATM   22  C   UNL     1      45.446 -32.714   1.457  1.00  0.00     0.154 C 
HETATM   23  C   UNL     1      44.107 -31.880  -0.438  1.00  0.00     0.154 C 
HETATM   24  C   UNL     1      44.486 -31.967   2.388  1.00  0.00     0.187 C 
HETATM   25  O   UNL     1      43.170 -31.886   1.823  1.00  0.00    -0.388 OA
HETATM   26  C   UNL     1      43.202 -31.177   0.574  1.00  0.00     0.187 C 
HETATM   27  O   UNL     1      46.436 -31.945  -1.951  1.00  0.00    -0.238 OA
ENDBRANCH  19  20
ENDBRANCH  14  19
ENDBRANCH   7  13
BRANCH  11  28
HETATM   28  N   UNL     1      49.821 -32.019   5.588  1.00  0.00    -0.282 NA
HETATM   29  H   UNL     1      50.276 -32.921   5.463  1.00  0.00     0.126 HD
HETATM   30  H   UNL     1      50.352 -31.388   6.183  1.00  0.00     0.126 HD
ENDBRANCH  11  28
BRANCH   1  31
HETATM   31  C   UNL     1      47.287 -28.638   0.302  1.00  0.00    -0.005 A 
HETATM   32  C   UNL     1      48.030 -28.692  -0.885  1.00  0.00     0.014 A 
HETATM   33  C   UNL     1      47.395 -28.620  -2.128  1.00  0.00     0.008 A 
HETATM   34  C   UNL     1      46.004 -28.491  -2.207  1.00  0.00    -0.058 A 
HETATM   35  C   UNL     1      45.260 -28.433  -1.022  1.00  0.00     0.008 A 
HETATM   36  C   UNL     1      45.897 -28.499   0.221  1.00  0.00     0.014 A 
BRANCH  34  37
HETATM   37  C   UNL     1      45.313 -28.407  -3.548  1.00  0.00     0.042 C 
BRANCH  37  38
HETATM   38  C   UNL     1      44.573 -29.697  -3.947  1.00  0.00    -0.019 C 
HETATM   39  C   UNL     1      45.103 -30.280  -5.259  1.00  0.00     0.010 C 
HETATM   40  C   UNL     1      43.075 -29.414  -4.076  1.00  0.00     0.010 C 
ENDBRANCH  37  38
ENDBRANCH  34  37
ENDBRANCH   1  31
TORSDOF 7
ENDMDL
MODEL 6
REMARK VINA RESULT:      -7.6      8.488     13.013
REMARK  7 active torsions:
REMARK  status: ('A' for Active; 'I' for Inactive)
REMARK    1  A    between atoms: C_2  and  C_3 
REMARK    2  A    between atoms: C_3  and  C_4 
REMARK    3  A    between atoms: C_7  and  C_8 
REMARK    4  A    between atoms: C_14  and  C_15 
REMARK    5  A    between atoms: C_16  and  O_17 
REMARK    6  A    between atoms: O_17  and  C_18 
REMARK       I    between atoms: C_18  and  N_19 
REMARK    7  A    between atoms: C_33  and  N_34 
ROOT
HETATM    1  C   UNL     1      42.454  -5.171  10.857  1.00  0.00     0.099 A 
HETATM    2  N   UNL     1      43.227  -4.112  10.538  1.00  0.00    -0.172 NA
HETATM    3  N   UNL     1      42.655  -3.065  11.158  1.00  0.00    -0.256 N 
HETATM    4  H   UNL     1      43.061  -2.144  11.038  1.00  0.00     0.191 HD
HETATM    5  C   UNL     1      41.562  -3.415  11.877  1.00  0.00     0.175 A 
HETATM    6  C   UNL     1      41.414  -4.771  11.740  1.00  0.00     0.040 A 
HETATM    7  C   UNL     1      40.298  -5.462  12.446  1.00  0.00     0.109 A 
HETATM    8  C   UNL     1      39.367  -4.440  13.107  1.00  0.00     0.081 A 
HETATM    9  C   UNL     1      38.144  -4.949  13.632  1.00  0.00     0.100 C 
HETATM   10  N   UNL     1      37.143  -5.375  14.038  1.00  0.00    -0.191 NA
HETATM   11  C   UNL     1      39.639  -3.107  13.143  1.00  0.00     0.140 A 
HETATM   12  O   UNL     1      40.802  -2.570  12.562  1.00  0.00    -0.279 OA
ENDROOT
BRANCH   7  13
HETATM   13  C   UNL     1      40.923  -6.412  13.461  1.00  0.00    -0.010 A 
HETATM   14  C   UNL     1      40.569  -7.777  13.482  1.00  0.00     0.088 A 
HETATM   15  C   UNL     1      41.067  -8.641  14.460  1.00  0.00     0.038 A 
HETATM   16  C   UNL     1      41.952  -8.161  15.424  1.00  0.00     0.003 A 
HETATM   17  C   UNL     1      42.319  -6.820  15.426  1.00  0.00     0.001 A 
HETATM   18  C   UNL     1      41.802  -5.951  14.464  1.00  0.00     0.011 A 
BRANCH  14  19
HETATM   19  O   UNL     1      39.609  -8.200  12.524  1.00  0.00    -0.261 OA
BRANCH  19  20
HETATM   20  C   UNL     1      39.818  -9.140  11.509  1.00  0.00     0.368 C 
HETATM   21  N   UNL     1      39.426  -8.666  10.265  1.00  0.00    -0.324 N 
HETATM   22  C   UNL     1      38.671  -7.424  10.094  1.00  0.00     0.154 C 
HETATM   23  C   UNL     1      39.285  -9.627   9.173  1.00  0.00     0.154 C 
HETATM   24  C   UNL     1      38.864  -6.847   8.689  1.00  0.00     0.187 C 
HETATM   25  O   UNL     1      38.570  -7.824   7.680  1.00  0.00    -0.388 OA
HETATM   26  C   UNL     1      39.443  -8.956   7.807  1.00  0.00     0.187 C 
HETATM   27  O   UNL     1      40.301 -10.254  11.681  1.00  0.00    -0.238 OA
ENDBRANCH  19  20
ENDBRANCH  14  19
ENDBRANCH   7  13
BRANCH  11  28
HETATM   28  N   UNL     1      38.839  -2.145  13.717  1.00  0.00    -0.282 NA
HETATM   29  H   UNL     1      39.302  -1.267  13.943  1.00  0.00     0.126 HD
HETATM   30  H   UNL     1      37.971  -2.013  13.203  1.00  0.00     0.126 HD
ENDBRANCH  11  28
BRANCH   1  31
HETATM   31  C   UNL     1      42.746  -6.499  10.317  1.00  0.00    -0.005 A 
HETATM   32  C   UNL     1      42.590  -6.746   8.947  1.00  0.00     0.014 A 
HETATM   33  C   UNL     1      42.847  -8.013   8.416  1.00  0.00     0.008 A 
HETATM   34  C   UNL     1      43.265  -9.059   9.246  1.00  0.00    -0.058 A 
HETATM   35  C   UNL     1      43.419  -8.815  10.617  1.00  0.00     0.008 A 
HETATM   36  C   UNL     1      43.154  -7.549  11.148  1.00  0.00     0.014 A 
BRANCH  34  37
HETATM   37  C   UNL     1      43.539 -10.431   8.678  1.00  0.00     0.042 C 
BRANCH  37  38
HETATM   38  C   UNL     1      44.606 -10.441   7.567  1.00  0.00    -0.019 C 
HETATM   39  C   UNL     1      44.750 -11.822   6.923  1.00  0.00     0.010 C 
HETATM   40  C   UNL     1      45.953  -9.996   8.141  1.00  0.00     0.010 C 
ENDBRANCH  37  38
ENDBRANCH  34  37
ENDBRANCH   1  31
TORSDOF 7
ENDMDL
MODEL 7
REMARK VINA RESULT:      -7.4     17.961     20.921
REMARK  7 active torsions:
REMARK  status: ('A' for Active; 'I' for Inactive)
REMARK    1  A    between atoms: C_2  and  C_3 
REMARK    2  A    between atoms: C_3  and  C_4 
REMARK    3  A    between atoms: C_7  and  C_8 
REMARK    4  A    between atoms: C_14  and  C_15 
REMARK    5  A    between atoms: C_16  and  O_17 
REMARK    6  A    between atoms: O_17  and  C_18 
REMARK       I    between atoms: C_18  and  N_19 
REMARK    7  A    between atoms: C_33  and  N_34 
ROOT
HETATM    1  C   UNL     1      45.625 -29.490  -3.275  1.00  0.00     0.099 A 
HETATM    2  N   UNL     1      44.974 -28.600  -4.052  1.00  0.00    -0.172 NA
HETATM    3  N   UNL     1      44.760 -29.243  -5.214  1.00  0.00    -0.256 N 
HETATM    4  H   UNL     1      44.298 -28.749  -5.968  1.00  0.00     0.191 HD
HETATM    5  C   UNL     1      45.229 -30.514  -5.203  1.00  0.00     0.175 A 
HETATM    6  C   UNL     1      45.764 -30.729  -3.959  1.00  0.00     0.040 A 
HETATM    7  C   UNL     1      46.344 -32.062  -3.630  1.00  0.00     0.109 A 
HETATM    8  C   UNL     1      46.380 -32.953  -4.876  1.00  0.00     0.081 A 
HETATM    9  C   UNL     1      47.104 -34.174  -4.757  1.00  0.00     0.100 C 
HETATM   10  N   UNL     1      47.714 -35.157  -4.650  1.00  0.00    -0.191 NA
HETATM   11  C   UNL     1      45.819 -32.590  -6.062  1.00  0.00     0.140 A 
HETATM   12  O   UNL     1      45.166 -31.354  -6.228  1.00  0.00    -0.279 OA
ENDROOT
BRANCH   7  13
HETATM   13  C   UNL     1      45.493 -32.664  -2.518  1.00  0.00    -0.010 A 
HETATM   14  C   UNL     1      46.097 -33.259  -1.392  1.00  0.00     0.088 A 
HETATM   15  C   UNL     1      45.334 -33.891  -0.407  1.00  0.00     0.038 A 
HETATM   16  C   UNL     1      43.945 -33.917  -0.516  1.00  0.00     0.003 A 
HETATM   17  C   UNL     1      43.322 -33.337  -1.616  1.00  0.00     0.001 A 
HETATM   18  C   UNL     1      44.086 -32.728  -2.613  1.00  0.00     0.011 A 
BRANCH  14  19
HETATM   19  O   UNL     1      47.518 -33.269  -1.362  1.00  0.00    -0.261 OA
BRANCH  19  20
HETATM   20  C   UNL     1      48.337 -32.278  -0.811  1.00  0.00     0.368 C 
HETATM   21  N   UNL     1      49.491 -32.076  -1.556  1.00  0.00    -0.324 N 
HETATM   22  C   UNL     1      49.893 -32.964  -2.647  1.00  0.00     0.154 C 
HETATM   23  C   UNL     1      50.580 -31.314  -0.949  1.00  0.00     0.154 C 
HETATM   24  C   UNL     1      50.817 -32.246  -3.635  1.00  0.00     0.187 C 
HETATM   25  O   UNL     1      51.932 -31.645  -2.962  1.00  0.00    -0.388 OA
HETATM   26  C   UNL     1      51.479 -30.673  -2.007  1.00  0.00     0.187 C 
HETATM   27  O   UNL     1      48.075 -31.644   0.205  1.00  0.00    -0.238 OA
ENDBRANCH  19  20
ENDBRANCH  14  19
ENDBRANCH   7  13
BRANCH  11  28
HETATM   28  N   UNL     1      45.826 -33.345  -7.213  1.00  0.00    -0.282 NA
HETATM   29  H   UNL     1      45.263 -34.192  -7.185  1.00  0.00     0.126 HD
HETATM   30  H   UNL     1      45.650 -32.782  -8.041  1.00  0.00     0.126 HD
ENDBRANCH  11  28
BRANCH   1  31
HETATM   31  C   UNL     1      46.071 -29.123  -1.931  1.00  0.00    -0.005 A 
HETATM   32  C   UNL     1      47.345 -28.572  -1.743  1.00  0.00     0.014 A 
HETATM   33  C   UNL     1      47.794 -28.232  -0.464  1.00  0.00     0.008 A 
HETATM   34  C   UNL     1      46.976 -28.437   0.653  1.00  0.00    -0.058 A 
HETATM   35  C   UNL     1      45.703 -28.991   0.468  1.00  0.00     0.008 A 
HETATM   36  C   UNL     1      45.258 -29.337  -0.811  1.00  0.00     0.014 A 
BRANCH  34  37
HETATM   37  C   UNL     1      47.459 -28.076   2.038  1.00  0.00     0.042 C 
BRANCH  37  38
HETATM   38  C   UNL     1      48.048 -29.265   2.820  1.00  0.00    -0.019 C 
HETATM   39  C   UNL     1      46.975 -30.022   3.607  1.00  0.00     0.010 C 
HETATM   40  C   UNL     1      49.134 -28.768   3.775  1.00  0.00     0.010 C 
ENDBRANCH  37  38
ENDBRANCH  34  37
ENDBRANCH   1  31
TORSDOF 7
ENDMDL
MODEL 8
REMARK VINA RESULT:      -7.4     17.191     19.841
REMARK  7 active torsions:
REMARK  status: ('A' for Active; 'I' for Inactive)
REMARK    1  A    between atoms: C_2  and  C_3 
REMARK    2  A    between atoms: C_3  and  C_4 
REMARK    3  A    between atoms: C_7  and  C_8 
REMARK    4  A    between atoms: C_14  and  C_15 
REMARK    5  A    between atoms: C_16  and  O_17 
REMARK    6  A    between atoms: O_17  and  C_18 
REMARK       I    between atoms: C_18  and  N_19 
REMARK    7  A    between atoms: C_33  and  N_34 
ROOT
HETATM    1  C   UNL     1      46.209 -33.019  -0.871  1.00  0.00     0.099 A 
HETATM    2  N   UNL     1      46.031 -34.332  -1.124  1.00  0.00    -0.172 NA
HETATM    3  N   UNL     1      44.752 -34.581  -0.788  1.00  0.00    -0.256 N 
HETATM    4  H   UNL     1      44.399 -35.526  -0.876  1.00  0.00     0.191 HD
HETATM    5  C   UNL     1      44.102 -33.476  -0.350  1.00  0.00     0.175 A 
HETATM    6  C   UNL     1      44.993 -32.436  -0.419  1.00  0.00     0.040 A 
HETATM    7  C   UNL     1      44.556 -31.068  -0.021  1.00  0.00     0.109 A 
HETATM    8  C   UNL     1      43.148 -31.109   0.581  1.00  0.00     0.081 A 
HETATM    9  C   UNL     1      42.692 -29.908   1.199  1.00  0.00     0.100 C 
HETATM   10  N   UNL     1      42.343 -28.929   1.716  1.00  0.00    -0.191 NA
HETATM   11  C   UNL     1      42.383 -32.234   0.599  1.00  0.00     0.140 A 
HETATM   12  O   UNL     1      42.842 -33.453   0.065  1.00  0.00    -0.279 OA
ENDROOT
BRANCH   7  13
HETATM   13  C   UNL     1      44.624 -30.191  -1.267  1.00  0.00    -0.010 A 
HETATM   14  C   UNL     1      45.282 -28.945  -1.234  1.00  0.00     0.088 A 
HETATM   15  C   UNL     1      45.277 -28.093  -2.340  1.00  0.00     0.038 A 
HETATM   16  C   UNL     1      44.635 -28.483  -3.515  1.00  0.00     0.003 A 
HETATM   17  C   UNL     1      43.979 -29.708  -3.575  1.00  0.00     0.001 A 
HETATM   18  C   UNL     1      43.962 -30.548  -2.461  1.00  0.00     0.011 A 
BRANCH  14  19
HETATM   19  O   UNL     1      45.859 -28.562   0.007  1.00  0.00    -0.261 OA
BRANCH  19  20
HETATM   20  C   UNL     1      47.180 -28.792   0.407  1.00  0.00     0.368 C 
HETATM   21  N   UNL     1      47.257 -29.295   1.698  1.00  0.00    -0.324 N 
HETATM   22  C   UNL     1      46.103 -29.347   2.597  1.00  0.00     0.154 C 
HETATM   23  C   UNL     1      48.557 -29.288   2.366  1.00  0.00     0.154 C 
HETATM   24  C   UNL     1      46.289 -30.418   3.676  1.00  0.00     0.187 C 
HETATM   25  O   UNL     1      47.533 -30.246   4.371  1.00  0.00    -0.388 OA
HETATM   26  C   UNL     1      48.637 -30.354   3.459  1.00  0.00     0.187 C 
HETATM   27  O   UNL     1      48.164 -28.590  -0.294  1.00  0.00    -0.238 OA
ENDBRANCH  19  20
ENDBRANCH  14  19
ENDBRANCH   7  13
BRANCH  11  28
HETATM   28  N   UNL     1      41.117 -32.331   1.130  1.00  0.00    -0.282 NA
HETATM   29  H   UNL     1      40.769 -31.492   1.589  1.00  0.00     0.126 HD
HETATM   30  H   UNL     1      40.452 -32.722   0.467  1.00  0.00     0.126 HD
ENDBRANCH  11  28
BRANCH   1  31
HETATM   31  C   UNL     1      47.514 -32.389  -1.075  1.00  0.00    -0.005 A 
HETATM   32  C   UNL     1      47.803 -31.759  -2.293  1.00  0.00     0.014 A 
HETATM   33  C   UNL     1      49.050 -31.168  -2.512  1.00  0.00     0.008 A 
HETATM   34  C   UNL     1      50.034 -31.196  -1.517  1.00  0.00    -0.058 A 
HETATM   35  C   UNL     1      49.748 -31.828  -0.300  1.00  0.00     0.008 A 
HETATM   36  C   UNL     1      48.502 -32.425  -0.085  1.00  0.00     0.014 A 
BRANCH  34  37
HETATM   37  C   UNL     1      51.385 -30.563  -1.751  1.00  0.00     0.042 C 
BRANCH  37  38
HETATM   38  C   UNL     1      52.446 -31.545  -2.282  1.00  0.00    -0.019 C 
HETATM   39  C   UNL     1      51.893 -32.439  -3.395  1.00  0.00     0.010 C 
HETATM   40  C   UNL     1      52.968 -32.412  -1.135  1.00  0.00     0.010 C 
ENDBRANCH  37  38
ENDBRANCH  34  37
ENDBRANCH   1  31
TORSDOF 7
ENDMDL
MODEL 9
REMARK VINA RESULT:      -7.4      8.983     13.478
REMARK  7 active torsions:
REMARK  status: ('A' for Active; 'I' for Inactive)
REMARK    1  A    between atoms: C_2  and  C_3 
REMARK    2  A    between atoms: C_3  and  C_4 
REMARK    3  A    between atoms: C_7  and  C_8 
REMARK    4  A    between atoms: C_14  and  C_15 
REMARK    5  A    between atoms: C_16  and  O_17 
REMARK    6  A    between atoms: O_17  and  C_18 
REMARK       I    between atoms: C_18  and  N_19 
REMARK    7  A    between atoms: C_33  and  N_34 
ROOT
HETATM    1  C   UNL     1      42.457  -9.014  11.993  1.00  0.00     0.099 A 
HETATM    2  N   UNL     1      43.279 -10.056  11.750  1.00  0.00    -0.172 NA
HETATM    3  N   UNL     1      43.112 -10.335  10.445  1.00  0.00    -0.256 N 
HETATM    4  H   UNL     1      43.624 -11.111  10.041  1.00  0.00     0.191 HD
HETATM    5  C   UNL     1      42.233  -9.500   9.840  1.00  0.00     0.175 A 
HETATM    6  C   UNL     1      41.811  -8.610  10.793  1.00  0.00     0.040 A 
HETATM    7  C   UNL     1      40.845  -7.538  10.418  1.00  0.00     0.109 A 
HETATM    8  C   UNL     1      40.348  -7.742   8.984  1.00  0.00     0.081 A 
HETATM    9  C   UNL     1      39.262  -6.917   8.570  1.00  0.00     0.100 C 
HETATM   10  N   UNL     1      38.364  -6.252   8.254  1.00  0.00    -0.191 NA
HETATM   11  C   UNL     1      40.853  -8.695   8.154  1.00  0.00     0.140 A 
HETATM   12  O   UNL     1      41.872  -9.574   8.565  1.00  0.00    -0.279 OA
ENDROOT
BRANCH   7  13
HETATM   13  C   UNL     1      41.559  -6.203  10.596  1.00  0.00    -0.010 A 
HETATM   14  C   UNL     1      41.073  -5.244  11.508  1.00  0.00     0.088 A 
HETATM   15  C   UNL     1      41.664  -3.983  11.620  1.00  0.00     0.038 A 
HETATM   16  C   UNL     1      42.773  -3.665  10.837  1.00  0.00     0.003 A 
HETATM   17  C   UNL     1      43.274  -4.593   9.929  1.00  0.00     0.001 A 
HETATM   18  C   UNL     1      42.667  -5.843   9.800  1.00  0.00     0.011 A 
BRANCH  14  19
HETATM   19  O   UNL     1      39.899  -5.589  12.230  1.00  0.00    -0.261 OA
BRANCH  19  20
HETATM   20  C   UNL     1      39.433  -4.963  13.392  1.00  0.00     0.368 C 
HETATM   21  N   UNL     1      38.265  -4.247  13.170  1.00  0.00    -0.324 N 
HETATM   22  C   UNL     1      37.734  -3.995  11.830  1.00  0.00     0.154 C 
HETATM   23  C   UNL     1      37.835  -3.294  14.191  1.00  0.00     0.154 C 
HETATM   24  C   UNL     1      36.228  -3.719  11.873  1.00  0.00     0.187 C 
HETATM   25  O   UNL     1      35.917  -2.673  12.804  1.00  0.00    -0.388 OA
HETATM   26  C   UNL     1      36.328  -3.041  14.129  1.00  0.00     0.187 C 
HETATM   27  O   UNL     1      39.975  -5.040  14.489  1.00  0.00    -0.238 OA
ENDBRANCH  19  20
ENDBRANCH  14  19
ENDBRANCH   7  13
BRANCH  11  28
HETATM   28  N   UNL     1      40.443  -8.927   6.860  1.00  0.00    -0.282 NA
HETATM   29  H   UNL     1      39.617  -9.512   6.760  1.00  0.00     0.126 HD
HETATM   30  H   UNL     1      40.388  -8.068   6.317  1.00  0.00     0.126 HD
ENDBRANCH  11  28
BRANCH   1  31
HETATM   31  C   UNL     1      42.334  -8.458  13.341  1.00  0.00    -0.005 A 
HETATM   32  C   UNL     1      41.346  -8.940  14.209  1.00  0.00     0.014 A 
HETATM   33  C   UNL     1      41.203  -8.408  15.493  1.00  0.00     0.008 A 
HETATM   34  C   UNL     1      42.046  -7.381  15.934  1.00  0.00    -0.058 A 
HETATM   35  C   UNL     1      43.032  -6.896  15.066  1.00  0.00     0.008 A 
HETATM   36  C   UNL     1      43.170  -7.424  13.779  1.00  0.00     0.014 A 
BRANCH  34  37
HETATM   37  C   UNL     1      41.892  -6.799  17.319  1.00  0.00     0.042 C 
BRANCH  37  38
HETATM   38  C   UNL     1      40.426  -6.611  17.753  1.00  0.00    -0.019 C 
HETATM   39  C   UNL     1      40.117  -5.154  18.110  1.00  0.00     0.010 C 
HETATM   40  C   UNL     1      40.122  -7.512  18.952  1.00  0.00     0.010 C 
ENDBRANCH  37  38
ENDBRANCH  34  37
ENDBRANCH   1  31
TORSDOF 7
ENDMDL
MODEL 10
REMARK VINA RESULT:      -7.3      3.744      8.090
REMARK  7 active torsions:
REMARK  status: ('A' for Active; 'I' for Inactive)
REMARK    1  A    between atoms: C_2  and  C_3 
REMARK    2  A    between atoms: C_3  and  C_4 
REMARK    3  A    between atoms: C_7  and  C_8 
REMARK    4  A    between atoms: C_14  and  C_15 
REMARK    5  A    between atoms: C_16  and  O_17 
REMARK    6  A    between atoms: O_17  and  C_18 
REMARK       I    between atoms: C_18  and  N_19 
REMARK    7  A    between atoms: C_33  and  N_34 
ROOT
HETATM    1  C   UNL     1      43.978 -11.182   6.978  1.00  0.00     0.099 A 
HETATM    2  N   UNL     1      44.843 -11.608   7.921  1.00  0.00    -0.172 NA
HETATM    3  N   UNL     1      44.888 -10.615   8.827  1.00  0.00    -0.256 N 
HETATM    4  H   UNL     1      45.503 -10.710   9.626  1.00  0.00     0.191 HD
HETATM    5  C   UNL     1      44.072  -9.581   8.511  1.00  0.00     0.175 A 
HETATM    6  C   UNL     1      43.438  -9.918   7.343  1.00  0.00     0.040 A 
HETATM    7  C   UNL     1      42.445  -8.978   6.750  1.00  0.00     0.109 A 
HETATM    8  C   UNL     1      42.434  -7.654   7.520  1.00  0.00     0.081 A 
HETATM    9  C   UNL     1      41.689  -6.590   6.933  1.00  0.00     0.100 C 
HETATM   10  N   UNL     1      41.095  -5.727   6.433  1.00  0.00    -0.191 NA
HETATM   11  C   UNL     1      43.142  -7.458   8.666  1.00  0.00     0.140 A 
HETATM   12  O   UNL     1      43.947  -8.468   9.223  1.00  0.00    -0.279 OA
ENDROOT
BRANCH   7  13
HETATM   13  C   UNL     1      41.088  -9.673   6.781  1.00  0.00    -0.010 A 
HETATM   14  C   UNL     1      40.495 -10.145   5.593  1.00  0.00     0.088 A 
HETATM   15  C   UNL     1      39.215 -10.705   5.594  1.00  0.00     0.038 A 
HETATM   16  C   UNL     1      38.512 -10.829   6.792  1.00  0.00     0.003 A 
HETATM   17  C   UNL     1      39.075 -10.373   7.979  1.00  0.00     0.001 A 
HETATM   18  C   UNL     1      40.343  -9.790   7.974  1.00  0.00     0.011 A 
BRANCH  14  19
HETATM   19  O   UNL     1      41.220  -9.931   4.390  1.00  0.00    -0.261 OA
BRANCH  19  20
HETATM   20  C   UNL     1      40.866  -9.053   3.360  1.00  0.00     0.368 C 
HETATM   21  N   UNL     1      40.500  -9.723   2.201  1.00  0.00    -0.324 N 
HETATM   22  C   UNL     1      40.694 -11.163   2.025  1.00  0.00     0.154 C 
HETATM   23  C   UNL     1      40.412  -8.957   0.959  1.00  0.00     0.154 C 
HETATM   24  C   UNL     1      39.731 -11.727   0.977  1.00  0.00     0.187 C 
HETATM   25  O   UNL     1      39.815 -10.996  -0.255  1.00  0.00    -0.388 OA
HETATM   26  C   UNL     1      39.469  -9.619  -0.046  1.00  0.00     0.187 C 
HETATM   27  O   UNL     1      40.863  -7.831   3.458  1.00  0.00    -0.238 OA
ENDBRANCH  19  20
ENDBRANCH  14  19
ENDBRANCH   7  13
BRANCH  11  28
HETATM   28  N   UNL     1      43.174  -6.291   9.395  1.00  0.00    -0.282 NA
HETATM   29  H   UNL     1      42.610  -5.529   9.028  1.00  0.00     0.126 HD
HETATM   30  H   UNL     1      43.019  -6.455  10.387  1.00  0.00     0.126 HD
ENDBRANCH  11  28
BRANCH   1  31
HETATM   31  C   UNL     1      43.706 -11.993   5.791  1.00  0.00    -0.005 A 
HETATM   32  C   UNL     1      43.050 -13.224   5.921  1.00  0.00     0.014 A 
HETATM   33  C   UNL     1      42.798 -14.021   4.801  1.00  0.00     0.008 A 
HETATM   34  C   UNL     1      43.199 -13.601   3.527  1.00  0.00    -0.058 A 
HETATM   35  C   UNL     1      43.858 -12.373   3.395  1.00  0.00     0.008 A 
HETATM   36  C   UNL     1      44.115 -11.580   4.518  1.00  0.00     0.014 A 
BRANCH  34  37
HETATM   37  C   UNL     1      42.934 -14.461   2.314  1.00  0.00     0.042 C 
BRANCH  37  38
HETATM   38  C   UNL     1      42.312 -15.830   2.648  1.00  0.00    -0.019 C 
HETATM   39  C   UNL     1      43.199 -16.990   2.188  1.00  0.00     0.010 C 
HETATM   40  C   UNL     1      40.933 -15.944   1.994  1.00  0.00     0.010 C 
ENDBRANCH  37  38
ENDBRANCH  34  37
ENDBRANCH   1  31
TORSDOF 7
ENDMDL
