MODEL 1
REMARK VINA RESULT:      -9.2      0.000      0.000
REMARK  6 active torsions:
REMARK  status: ('A' for Active; 'I' for Inactive)
REMARK    1  A    between atoms: O_2  and  C_3 
REMARK    2  A    between atoms: C_4  and  C_5 
REMARK    3  A    between atoms: N_7  and  C_8 
REMARK    4  A    between atoms: C_15  and  C_16 
REMARK       I    between atoms: C_16  and  N_17 
REMARK    5  A    between atoms: N_17  and  N_18 
REMARK       I    between atoms: N_18  and  C_19 
REMARK    6  A    between atoms: C_19  and  C_20 
ROOT
HETATM    1  C   UNL     1      42.920 -14.978   4.504  1.00  0.00     0.107 A 
HETATM    2  N   UNL     1      43.054 -16.011   3.658  1.00  0.00    -0.166 NA
HETATM    3  N   UNL     1      43.428 -17.061   4.416  1.00  0.00    -0.244 N 
HETATM    4  C   UNL     1      43.634 -16.684   5.723  1.00  0.00     0.138 A 
HETATM    5  C   UNL     1      43.308 -15.341   5.830  1.00  0.00     0.082 A 
ENDROOT
BRANCH   5   6
HETATM    6  C   UNL     1      43.340 -14.514   7.029  1.00  0.00     0.274 C 
HETATM    7  N   UNL     1      43.585 -13.170   6.813  1.00  0.00    -0.263 N 
HETATM    8  H   UNL     1      43.652 -12.744   5.894  1.00  0.00     0.190 HD
HETATM    9  O   UNL     1      43.147 -14.948   8.162  1.00  0.00    -0.266 OA
BRANCH   7  10
HETATM   10  N   UNL     1      43.515 -12.289   7.899  1.00  0.00    -0.262 N 
HETATM   11  C   UNL     1      44.528 -11.369   8.071  1.00  0.00     0.286 C 
HETATM   12  O   UNL     1      45.512 -11.352   7.330  1.00  0.00    -0.264 OA
HETATM   13  H   UNL     1      42.658 -12.296   8.445  1.00  0.00     0.190 HD
BRANCH  11  14
HETATM   14  C   UNL     1      44.354 -10.438   9.162  1.00  0.00     0.102 A 
HETATM   15  N   UNL     1      43.206 -10.439   9.929  1.00  0.00    -0.361 N 
HETATM   16  H   UNL     1      42.432 -11.075   9.780  1.00  0.00     0.165 HD
HETATM   17  C   UNL     1      43.277  -9.471  10.892  1.00  0.00     0.088 A 
HETATM   18  C   UNL     1      44.485  -8.830  10.758  1.00  0.00     0.019 A 
HETATM   19  C   UNL     1      45.165  -9.435   9.671  1.00  0.00     0.036 A 
ENDBRANCH  11  14
ENDBRANCH   7  10
ENDBRANCH   5   6
BRANCH   1  20
HETATM   20  C   UNL     1      42.454 -13.686   4.001  1.00  0.00     0.029 A 
HETATM   21  C   UNL     1      41.135 -13.250   4.210  1.00  0.00     0.080 A 
HETATM   22  C   UNL     1      40.713 -12.002   3.738  1.00  0.00     0.037 A 
HETATM   23  C   UNL     1      41.593 -11.195   3.019  1.00  0.00     0.003 A 
HETATM   24  C   UNL     1      42.896 -11.628   2.782  1.00  0.00     0.001 A 
HETATM   25  C   UNL     1      43.325 -12.867   3.269  1.00  0.00     0.017 A 
BRANCH  21  26
HETATM   26  O   UNL     1      40.256 -14.001   4.951  1.00  0.00    -0.355 OA
HETATM   27  C   UNL     1      39.903 -13.303   6.147  1.00  0.00     0.210 C 
ENDBRANCH  21  26
ENDBRANCH   1  20
BRANCH   3  28
HETATM   28  C   UNL     1      43.565 -18.360   3.846  1.00  0.00     0.058 A 
HETATM   29  C   UNL     1      44.020 -19.419   4.648  1.00  0.00     0.031 A 
HETATM   30  C   UNL     1      44.179 -20.696   4.107  1.00  0.00     0.002 A 
HETATM   31  C   UNL     1      43.885 -20.927   2.765  1.00  0.00     0.000 A 
HETATM   32  C   UNL     1      43.431 -19.883   1.962  1.00  0.00     0.002 A 
HETATM   33  C   UNL     1      43.270 -18.601   2.495  1.00  0.00     0.031 A 
ENDBRANCH   3  28
TORSDOF 6
ENDMDL
MODEL 2
REMARK VINA RESULT:      -9.2      1.359      2.068
REMARK  6 active torsions:
REMARK  status: ('A' for Active; 'I' for Inactive)
REMARK    1  A    between atoms: O_2  and  C_3 
REMARK    2  A    between atoms: C_4  and  C_5 
REMARK    3  A    between atoms: N_7  and  C_8 
REMARK    4  A    between atoms: C_15  and  C_16 
REMARK       I    between atoms: C_16  and  N_17 
REMARK    5  A    between atoms: N_17  and  N_18 
REMARK       I    between atoms: N_18  and  C_19 
REMARK    6  A    between atoms: C_19  and  C_20 
ROOT
HETATM    1  C   UNL     1      42.178 -15.104   3.636  1.00  0.00     0.107 A 
HETATM    2  N   UNL     1      42.517 -16.243   3.014  1.00  0.00    -0.166 NA
HETATM    3  N   UNL     1      43.008 -17.054   3.972  1.00  0.00    -0.244 N 
HETATM    4  C   UNL     1      43.080 -16.405   5.183  1.00  0.00     0.138 A 
HETATM    5  C   UNL     1      42.543 -15.139   5.016  1.00  0.00     0.082 A 
ENDROOT
BRANCH   5   6
HETATM    6  C   UNL     1      42.379 -14.105   6.029  1.00  0.00     0.274 C 
HETATM    7  N   UNL     1      43.548 -13.678   6.632  1.00  0.00    -0.263 N 
HETATM    8  H   UNL     1      44.477 -13.977   6.350  1.00  0.00     0.190 HD
HETATM    9  O   UNL     1      41.294 -13.614   6.333  1.00  0.00    -0.266 OA
BRANCH   7  10
HETATM   10  N   UNL     1      43.491 -12.605   7.530  1.00  0.00    -0.262 N 
HETATM   11  C   UNL     1      44.498 -11.663   7.500  1.00  0.00     0.286 C 
HETATM   12  O   UNL     1      45.466 -11.782   6.749  1.00  0.00    -0.264 OA
HETATM   13  H   UNL     1      42.645 -12.512   8.086  1.00  0.00     0.190 HD
BRANCH  11  14
HETATM   14  C   UNL     1      44.337 -10.541   8.397  1.00  0.00     0.102 A 
HETATM   15  N   UNL     1      43.374 -10.547   9.386  1.00  0.00    -0.361 N 
HETATM   16  H   UNL     1      42.734 -11.317   9.543  1.00  0.00     0.165 HD
HETATM   17  C   UNL     1      43.416  -9.380  10.098  1.00  0.00     0.088 A 
HETATM   18  C   UNL     1      44.420  -8.602   9.572  1.00  0.00     0.019 A 
HETATM   19  C   UNL     1      45.000  -9.328   8.502  1.00  0.00     0.036 A 
ENDBRANCH  11  14
ENDBRANCH   7  10
ENDBRANCH   5   6
BRANCH   1  20
HETATM   20  C   UNL     1      41.544 -14.025   2.878  1.00  0.00     0.029 A 
HETATM   21  C   UNL     1      42.253 -12.868   2.515  1.00  0.00     0.080 A 
HETATM   22  C   UNL     1      41.634 -11.855   1.773  1.00  0.00     0.037 A 
HETATM   23  C   UNL     1      40.290 -11.972   1.421  1.00  0.00     0.003 A 
HETATM   24  C   UNL     1      39.569 -13.102   1.799  1.00  0.00     0.001 A 
HETATM   25  C   UNL     1      40.190 -14.123   2.523  1.00  0.00     0.017 A 
BRANCH  21  26
HETATM   26  O   UNL     1      43.588 -12.742   2.808  1.00  0.00    -0.355 OA
HETATM   27  C   UNL     1      43.801 -11.603   3.645  1.00  0.00     0.210 C 
ENDBRANCH  21  26
ENDBRANCH   1  20
BRANCH   3  28
HETATM   28  C   UNL     1      43.378 -18.396   3.672  1.00  0.00     0.058 A 
HETATM   29  C   UNL     1      43.178 -18.891   2.372  1.00  0.00     0.031 A 
HETATM   30  C   UNL     1      43.516 -20.208   2.059  1.00  0.00     0.002 A 
HETATM   31  C   UNL     1      44.056 -21.042   3.035  1.00  0.00     0.000 A 
HETATM   32  C   UNL     1      44.260 -20.559   4.327  1.00  0.00     0.002 A 
HETATM   33  C   UNL     1      43.923 -19.241   4.650  1.00  0.00     0.031 A 
ENDBRANCH   3  28
TORSDOF 6
ENDMDL
MODEL 3
REMARK VINA RESULT:      -9.1      3.571      5.599
REMARK  6 active torsions:
REMARK  status: ('A' for Active; 'I' for Inactive)
REMARK    1  A    between atoms: O_2  and  C_3 
REMARK    2  A    between atoms: C_4  and  C_5 
REMARK    3  A    between atoms: N_7  and  C_8 
REMARK    4  A    between atoms: C_15  and  C_16 
REMARK       I    between atoms: C_16  and  N_17 
REMARK    5  A    between atoms: N_17  and  N_18 
REMARK       I    between atoms: N_18  and  C_19 
REMARK    6  A    between atoms: C_19  and  C_20 
ROOT
HETATM    1  C   UNL     1      41.460 -14.563   1.986  1.00  0.00     0.107 A 
HETATM    2  N   UNL     1      40.616 -14.922   1.007  1.00  0.00    -0.166 NA
HETATM    3  N   UNL     1      40.241 -13.776   0.405  1.00  0.00    -0.244 N 
HETATM    4  C   UNL     1      40.759 -12.680   1.056  1.00  0.00     0.138 A 
HETATM    5  C   UNL     1      41.565 -13.142   2.084  1.00  0.00     0.082 A 
ENDROOT
BRANCH   5   6
HETATM    6  C   UNL     1      42.345 -12.349   3.024  1.00  0.00     0.274 C 
HETATM    7  N   UNL     1      41.824 -12.265   4.302  1.00  0.00    -0.263 N 
HETATM    8  H   UNL     1      41.008 -12.780   4.620  1.00  0.00     0.190 HD
HETATM    9  O   UNL     1      43.405 -11.797   2.736  1.00  0.00    -0.266 OA
BRANCH   7  10
HETATM   10  N   UNL     1      42.572 -11.621   5.295  1.00  0.00    -0.262 N 
HETATM   11  C   UNL     1      43.395 -12.380   6.101  1.00  0.00     0.286 C 
HETATM   12  O   UNL     1      43.435 -13.606   6.003  1.00  0.00    -0.264 OA
HETATM   13  H   UNL     1      42.557 -10.604   5.299  1.00  0.00     0.190 HD
BRANCH  11  14
HETATM   14  C   UNL     1      44.198 -11.644   7.051  1.00  0.00     0.102 A 
HETATM   15  N   UNL     1      43.671 -11.211   8.251  1.00  0.00    -0.361 N 
HETATM   16  H   UNL     1      42.712 -11.376   8.536  1.00  0.00     0.165 HD
HETATM   17  C   UNL     1      44.619 -10.540   8.973  1.00  0.00     0.088 A 
HETATM   18  C   UNL     1      45.782 -10.535   8.240  1.00  0.00     0.019 A 
HETATM   19  C   UNL     1      45.520 -11.228   7.030  1.00  0.00     0.036 A 
ENDBRANCH  11  14
ENDBRANCH   7  10
ENDBRANCH   5   6
BRANCH   1  20
HETATM   20  C   UNL     1      42.108 -15.593   2.798  1.00  0.00     0.029 A 
HETATM   21  C   UNL     1      41.742 -15.809   4.138  1.00  0.00     0.080 A 
HETATM   22  C   UNL     1      42.360 -16.812   4.893  1.00  0.00     0.037 A 
HETATM   23  C   UNL     1      43.376 -17.582   4.329  1.00  0.00     0.003 A 
HETATM   24  C   UNL     1      43.767 -17.359   3.011  1.00  0.00     0.001 A 
HETATM   25  C   UNL     1      43.138 -16.371   2.249  1.00  0.00     0.017 A 
BRANCH  21  26
HETATM   26  O   UNL     1      40.716 -15.099   4.709  1.00  0.00    -0.355 OA
HETATM   27  C   UNL     1      40.512 -15.529   6.056  1.00  0.00     0.210 C 
ENDBRANCH  21  26
ENDBRANCH   1  20
BRANCH   3  28
HETATM   28  C   UNL     1      39.414 -13.798  -0.754  1.00  0.00     0.058 A 
HETATM   29  C   UNL     1      39.420 -14.932  -1.582  1.00  0.00     0.031 A 
HETATM   30  C   UNL     1      38.631 -14.970  -2.733  1.00  0.00     0.002 A 
HETATM   31  C   UNL     1      37.829 -13.881  -3.065  1.00  0.00     0.000 A 
HETATM   32  C   UNL     1      37.814 -12.752  -2.248  1.00  0.00     0.002 A 
HETATM   33  C   UNL     1      38.602 -12.705  -1.095  1.00  0.00     0.031 A 
ENDBRANCH   3  28
TORSDOF 6
ENDMDL
MODEL 4
REMARK VINA RESULT:      -8.6      3.786      8.749
REMARK  6 active torsions:
REMARK  status: ('A' for Active; 'I' for Inactive)
REMARK    1  A    between atoms: O_2  and  C_3 
REMARK    2  A    between atoms: C_4  and  C_5 
REMARK    3  A    between atoms: N_7  and  C_8 
REMARK    4  A    between atoms: C_15  and  C_16 
REMARK       I    between atoms: C_16  and  N_17 
REMARK    5  A    between atoms: N_17  and  N_18 
REMARK       I    between atoms: N_18  and  C_19 
REMARK    6  A    between atoms: C_19  and  C_20 
ROOT
HETATM    1  C   UNL     1      42.543 -13.470   3.908  1.00  0.00     0.107 A 
HETATM    2  N   UNL     1      43.320 -13.081   4.929  1.00  0.00    -0.166 NA
HETATM    3  N   UNL     1      42.916 -11.835   5.246  1.00  0.00    -0.244 N 
HETATM    4  C   UNL     1      41.957 -11.385   4.368  1.00  0.00     0.138 A 
HETATM    5  C   UNL     1      41.675 -12.416   3.487  1.00  0.00     0.082 A 
ENDROOT
BRANCH   5   6
HETATM    6  C   UNL     1      40.703 -12.415   2.402  1.00  0.00     0.274 C 
HETATM    7  N   UNL     1      41.238 -12.485   1.129  1.00  0.00    -0.263 N 
HETATM    8  H   UNL     1      42.225 -12.621   0.932  1.00  0.00     0.190 HD
HETATM    9  O   UNL     1      39.487 -12.373   2.576  1.00  0.00    -0.266 OA
BRANCH   7  10
HETATM   10  N   UNL     1      40.369 -12.608   0.037  1.00  0.00    -0.262 N 
HETATM   11  C   UNL     1      40.090 -13.868  -0.448  1.00  0.00     0.286 C 
HETATM   12  O   UNL     1      40.634 -14.870   0.017  1.00  0.00    -0.264 OA
HETATM   13  H   UNL     1      39.895 -11.764  -0.272  1.00  0.00     0.190 HD
BRANCH  11  14
HETATM   14  C   UNL     1      39.126 -13.929  -1.523  1.00  0.00     0.102 A 
HETATM   15  N   UNL     1      37.943 -13.220  -1.465  1.00  0.00    -0.361 N 
HETATM   16  H   UNL     1      37.681 -12.627  -0.686  1.00  0.00     0.165 HD
HETATM   17  C   UNL     1      37.200 -13.441  -2.592  1.00  0.00     0.088 A 
HETATM   18  C   UNL     1      37.904 -14.303  -3.399  1.00  0.00     0.019 A 
HETATM   19  C   UNL     1      39.115 -14.612  -2.729  1.00  0.00     0.036 A 
ENDBRANCH  11  14
ENDBRANCH   7  10
ENDBRANCH   5   6
BRANCH   1  20
HETATM   20  C   UNL     1      42.683 -14.821   3.364  1.00  0.00     0.029 A 
HETATM   21  C   UNL     1      42.177 -15.942   4.043  1.00  0.00     0.080 A 
HETATM   22  C   UNL     1      42.304 -17.224   3.497  1.00  0.00     0.037 A 
HETATM   23  C   UNL     1      42.972 -17.402   2.286  1.00  0.00     0.003 A 
HETATM   24  C   UNL     1      43.502 -16.302   1.617  1.00  0.00     0.001 A 
HETATM   25  C   UNL     1      43.360 -15.018   2.151  1.00  0.00     0.017 A 
BRANCH  21  26
HETATM   26  O   UNL     1      41.476 -15.796   5.214  1.00  0.00    -0.355 OA
HETATM   27  C   UNL     1      42.172 -16.437   6.285  1.00  0.00     0.210 C 
ENDBRANCH  21  26
ENDBRANCH   1  20
BRANCH   3  28
HETATM   28  C   UNL     1      43.471 -11.151   6.366  1.00  0.00     0.058 A 
HETATM   29  C   UNL     1      42.767 -10.076   6.933  1.00  0.00     0.031 A 
HETATM   30  C   UNL     1      43.299  -9.380   8.019  1.00  0.00     0.002 A 
HETATM   31  C   UNL     1      44.532  -9.750   8.550  1.00  0.00     0.000 A 
HETATM   32  C   UNL     1      45.236 -10.817   7.996  1.00  0.00     0.002 A 
HETATM   33  C   UNL     1      44.712 -11.519   6.906  1.00  0.00     0.031 A 
ENDBRANCH   3  28
TORSDOF 6
ENDMDL
MODEL 5
REMARK VINA RESULT:      -8.5      3.740      7.024
REMARK  6 active torsions:
REMARK  status: ('A' for Active; 'I' for Inactive)
REMARK    1  A    between atoms: O_2  and  C_3 
REMARK    2  A    between atoms: C_4  and  C_5 
REMARK    3  A    between atoms: N_7  and  C_8 
REMARK    4  A    between atoms: C_15  and  C_16 
REMARK       I    between atoms: C_16  and  N_17 
REMARK    5  A    between atoms: N_17  and  N_18 
REMARK       I    between atoms: N_18  and  C_19 
REMARK    6  A    between atoms: C_19  and  C_20 
ROOT
HETATM    1  C   UNL     1      42.461 -15.022   3.454  1.00  0.00     0.107 A 
HETATM    2  N   UNL     1      43.120 -16.116   3.862  1.00  0.00    -0.166 NA
HETATM    3  N   UNL     1      42.614 -17.140   3.148  1.00  0.00    -0.244 N 
HETATM    4  C   UNL     1      41.565 -16.725   2.360  1.00  0.00     0.138 A 
HETATM    5  C   UNL     1      41.435 -15.355   2.518  1.00  0.00     0.082 A 
ENDROOT
BRANCH   5   6
HETATM    6  C   UNL     1      40.480 -14.473   1.860  1.00  0.00     0.274 C 
HETATM    7  N   UNL     1      40.422 -14.586   0.483  1.00  0.00    -0.263 N 
HETATM    8  H   UNL     1      40.928 -15.286  -0.053  1.00  0.00     0.190 HD
HETATM    9  O   UNL     1      39.750 -13.688   2.461  1.00  0.00    -0.266 OA
BRANCH   7  10
HETATM   10  N   UNL     1      39.448 -13.860  -0.214  1.00  0.00    -0.262 N 
HETATM   11  C   UNL     1      39.838 -12.746  -0.926  1.00  0.00     0.286 C 
HETATM   12  O   UNL     1      41.004 -12.348  -0.910  1.00  0.00    -0.264 OA
HETATM   13  H   UNL     1      38.514 -14.259  -0.252  1.00  0.00     0.190 HD
BRANCH  11  14
HETATM   14  C   UNL     1      38.799 -12.090  -1.686  1.00  0.00     0.102 A 
HETATM   15  N   UNL     1      39.068 -10.976  -2.456  1.00  0.00    -0.361 N 
HETATM   16  H   UNL     1      39.988 -10.557  -2.536  1.00  0.00     0.165 HD
HETATM   17  C   UNL     1      37.929 -10.538  -3.074  1.00  0.00     0.088 A 
HETATM   18  C   UNL     1      36.902 -11.375  -2.707  1.00  0.00     0.019 A 
HETATM   19  C   UNL     1      37.445 -12.351  -1.834  1.00  0.00     0.036 A 
ENDBRANCH  11  14
ENDBRANCH   7  10
ENDBRANCH   5   6
BRANCH   1  20
HETATM   20  C   UNL     1      42.824 -13.712   3.995  1.00  0.00     0.029 A 
HETATM   21  C   UNL     1      42.544 -13.365   5.327  1.00  0.00     0.080 A 
HETATM   22  C   UNL     1      42.916 -12.114   5.832  1.00  0.00     0.037 A 
HETATM   23  C   UNL     1      43.536 -11.184   5.000  1.00  0.00     0.003 A 
HETATM   24  C   UNL     1      43.795 -11.506   3.670  1.00  0.00     0.001 A 
HETATM   25  C   UNL     1      43.441 -12.762   3.169  1.00  0.00     0.017 A 
BRANCH  21  26
HETATM   26  O   UNL     1      41.974 -14.274   6.185  1.00  0.00    -0.355 OA
HETATM   27  C   UNL     1      42.932 -14.698   7.157  1.00  0.00     0.210 C 
ENDBRANCH  21  26
ENDBRANCH   1  20
BRANCH   3  28
HETATM   28  C   UNL     1      43.162 -18.450   3.261  1.00  0.00     0.058 A 
HETATM   29  C   UNL     1      43.740 -18.851   4.477  1.00  0.00     0.031 A 
HETATM   30  C   UNL     1      44.299 -20.123   4.606  1.00  0.00     0.002 A 
HETATM   31  C   UNL     1      44.285 -21.005   3.528  1.00  0.00     0.000 A 
HETATM   32  C   UNL     1      43.712 -20.617   2.319  1.00  0.00     0.002 A 
HETATM   33  C   UNL     1      43.151 -19.344   2.180  1.00  0.00     0.031 A 
ENDBRANCH   3  28
TORSDOF 6
ENDMDL
MODEL 6
REMARK VINA RESULT:      -8.4      1.626      2.204
REMARK  6 active torsions:
REMARK  status: ('A' for Active; 'I' for Inactive)
REMARK    1  A    between atoms: O_2  and  C_3 
REMARK    2  A    between atoms: C_4  and  C_5 
REMARK    3  A    between atoms: N_7  and  C_8 
REMARK    4  A    between atoms: C_15  and  C_16 
REMARK       I    between atoms: C_16  and  N_17 
REMARK    5  A    between atoms: N_17  and  N_18 
REMARK       I    between atoms: N_18  and  C_19 
REMARK    6  A    between atoms: C_19  and  C_20 
ROOT
HETATM    1  C   UNL     1      42.294 -14.190   3.509  1.00  0.00     0.107 A 
HETATM    2  N   UNL     1      42.682 -15.335   2.929  1.00  0.00    -0.166 NA
HETATM    3  N   UNL     1      42.936 -16.193   3.937  1.00  0.00    -0.244 N 
HETATM    4  C   UNL     1      42.812 -15.573   5.159  1.00  0.00     0.138 A 
HETATM    5  C   UNL     1      42.388 -14.274   4.932  1.00  0.00     0.082 A 
ENDROOT
BRANCH   5   6
HETATM    6  C   UNL     1      42.092 -13.251   5.926  1.00  0.00     0.274 C 
HETATM    7  N   UNL     1      43.195 -12.630   6.482  1.00  0.00    -0.263 N 
HETATM    8  H   UNL     1      44.151 -12.788   6.177  1.00  0.00     0.190 HD
HETATM    9  O   UNL     1      40.952 -12.928   6.254  1.00  0.00    -0.266 OA
BRANCH   7  10
HETATM   10  N   UNL     1      42.996 -11.556   7.358  1.00  0.00    -0.262 N 
HETATM   11  C   UNL     1      44.088 -11.020   8.008  1.00  0.00     0.286 C 
HETATM   12  O   UNL     1      45.213 -11.505   7.880  1.00  0.00    -0.264 OA
HETATM   13  H   UNL     1      42.065 -11.148   7.384  1.00  0.00     0.190 HD
BRANCH  11  14
HETATM   14  C   UNL     1      43.824  -9.864   8.834  1.00  0.00     0.102 A 
HETATM   15  N   UNL     1      44.008  -8.583   8.354  1.00  0.00    -0.361 N 
HETATM   16  H   UNL     1      44.332  -8.376   7.416  1.00  0.00     0.165 HD
HETATM   17  C   UNL     1      43.697  -7.664   9.317  1.00  0.00     0.088 A 
HETATM   18  C   UNL     1      43.301  -8.350  10.441  1.00  0.00     0.019 A 
HETATM   19  C   UNL     1      43.381  -9.733  10.141  1.00  0.00     0.036 A 
ENDBRANCH  11  14
ENDBRANCH   7  10
ENDBRANCH   5   6
BRANCH   1  20
HETATM   20  C   UNL     1      41.876 -13.061   2.678  1.00  0.00     0.029 A 
HETATM   21  C   UNL     1      40.826 -13.180   1.752  1.00  0.00     0.080 A 
HETATM   22  C   UNL     1      40.429 -12.083   0.980  1.00  0.00     0.037 A 
HETATM   23  C   UNL     1      41.102 -10.868   1.097  1.00  0.00     0.003 A 
HETATM   24  C   UNL     1      42.163 -10.746   1.991  1.00  0.00     0.001 A 
HETATM   25  C   UNL     1      42.549 -11.835   2.777  1.00  0.00     0.017 A 
BRANCH  21  26
HETATM   26  O   UNL     1      40.114 -14.349   1.644  1.00  0.00    -0.355 OA
HETATM   27  C   UNL     1      40.096 -14.788   0.284  1.00  0.00     0.210 C 
ENDBRANCH  21  26
ENDBRANCH   1  20
BRANCH   3  28
HETATM   28  C   UNL     1      43.281 -17.549   3.672  1.00  0.00     0.058 A 
HETATM   29  C   UNL     1      42.919 -18.123   2.442  1.00  0.00     0.031 A 
HETATM   30  C   UNL     1      43.230 -19.455   2.166  1.00  0.00     0.002 A 
HETATM   31  C   UNL     1      43.905 -20.224   3.111  1.00  0.00     0.000 A 
HETATM   32  C   UNL     1      44.271 -19.663   4.333  1.00  0.00     0.002 A 
HETATM   33  C   UNL     1      43.962 -18.330   4.618  1.00  0.00     0.031 A 
ENDBRANCH   3  28
TORSDOF 6
ENDMDL
MODEL 7
REMARK VINA RESULT:      -8.3      3.760      7.092
REMARK  6 active torsions:
REMARK  status: ('A' for Active; 'I' for Inactive)
REMARK    1  A    between atoms: O_2  and  C_3 
REMARK    2  A    between atoms: C_4  and  C_5 
REMARK    3  A    between atoms: N_7  and  C_8 
REMARK    4  A    between atoms: C_15  and  C_16 
REMARK       I    between atoms: C_16  and  N_17 
REMARK    5  A    between atoms: N_17  and  N_18 
REMARK       I    between atoms: N_18  and  C_19 
REMARK    6  A    between atoms: C_19  and  C_20 
ROOT
HETATM    1  C   UNL     1      42.629 -14.602   3.867  1.00  0.00     0.107 A 
HETATM    2  N   UNL     1      42.879 -15.841   4.314  1.00  0.00    -0.166 NA
HETATM    3  N   UNL     1      42.960 -16.619   3.216  1.00  0.00    -0.244 N 
HETATM    4  C   UNL     1      42.663 -15.906   2.079  1.00  0.00     0.138 A 
HETATM    5  C   UNL     1      42.450 -14.589   2.451  1.00  0.00     0.082 A 
ENDROOT
BRANCH   5   6
HETATM    6  C   UNL     1      42.136 -13.461   1.582  1.00  0.00     0.274 C 
HETATM    7  N   UNL     1      41.536 -13.790   0.380  1.00  0.00    -0.263 N 
HETATM    8  H   UNL     1      41.240 -14.729   0.129  1.00  0.00     0.190 HD
HETATM    9  O   UNL     1      42.359 -12.290   1.878  1.00  0.00    -0.266 OA
BRANCH   7  10
HETATM   10  N   UNL     1      41.096 -12.759  -0.459  1.00  0.00    -0.262 N 
HETATM   11  C   UNL     1      40.249 -13.071  -1.502  1.00  0.00     0.286 C 
HETATM   12  O   UNL     1      39.927 -14.236  -1.742  1.00  0.00    -0.264 OA
HETATM   13  H   UNL     1      41.334 -11.809  -0.187  1.00  0.00     0.190 HD
BRANCH  11  14
HETATM   14  C   UNL     1      39.770 -11.952  -2.280  1.00  0.00     0.102 A 
HETATM   15  N   UNL     1      38.422 -11.664  -2.368  1.00  0.00    -0.361 N 
HETATM   16  H   UNL     1      37.701 -12.206  -1.905  1.00  0.00     0.165 HD
HETATM   17  C   UNL     1      38.220 -10.567  -3.158  1.00  0.00     0.088 A 
HETATM   18  C   UNL     1      39.448 -10.127  -3.591  1.00  0.00     0.019 A 
HETATM   19  C   UNL     1      40.425 -10.996  -3.041  1.00  0.00     0.036 A 
ENDBRANCH  11  14
ENDBRANCH   7  10
ENDBRANCH   5   6
BRANCH   1  20
HETATM   20  C   UNL     1      42.546 -13.492   4.817  1.00  0.00     0.029 A 
HETATM   21  C   UNL     1      41.312 -12.930   5.185  1.00  0.00     0.080 A 
HETATM   22  C   UNL     1      41.253 -11.882   6.109  1.00  0.00     0.037 A 
HETATM   23  C   UNL     1      42.428 -11.358   6.645  1.00  0.00     0.003 A 
HETATM   24  C   UNL     1      43.660 -11.887   6.266  1.00  0.00     0.001 A 
HETATM   25  C   UNL     1      43.720 -12.947   5.357  1.00  0.00     0.017 A 
BRANCH  21  26
HETATM   26  O   UNL     1      40.134 -13.452   4.710  1.00  0.00    -0.355 OA
HETATM   27  C   UNL     1      39.435 -12.468   3.946  1.00  0.00     0.210 C 
ENDBRANCH  21  26
ENDBRANCH   1  20
BRANCH   3  28
HETATM   28  C   UNL     1      43.318 -17.994   3.322  1.00  0.00     0.058 A 
HETATM   29  C   UNL     1      43.082 -18.852   2.236  1.00  0.00     0.031 A 
HETATM   30  C   UNL     1      43.407 -20.206   2.322  1.00  0.00     0.002 A 
HETATM   31  C   UNL     1      43.971 -20.716   3.489  1.00  0.00     0.000 A 
HETATM   32  C   UNL     1      44.211 -19.872   4.572  1.00  0.00     0.002 A 
HETATM   33  C   UNL     1      43.887 -18.514   4.494  1.00  0.00     0.031 A 
ENDBRANCH   3  28
TORSDOF 6
ENDMDL
MODEL 8
REMARK VINA RESULT:      -8.3      3.147      8.403
REMARK  6 active torsions:
REMARK  status: ('A' for Active; 'I' for Inactive)
REMARK    1  A    between atoms: O_2  and  C_3 
REMARK    2  A    between atoms: C_4  and  C_5 
REMARK    3  A    between atoms: N_7  and  C_8 
REMARK    4  A    between atoms: C_15  and  C_16 
REMARK       I    between atoms: C_16  and  N_17 
REMARK    5  A    between atoms: N_17  and  N_18 
REMARK       I    between atoms: N_18  and  C_19 
REMARK    6  A    between atoms: C_19  and  C_20 
ROOT
HETATM    1  C   UNL     1      43.285 -14.373   5.607  1.00  0.00     0.107 A 
HETATM    2  N   UNL     1      44.141 -13.735   6.419  1.00  0.00    -0.166 NA
HETATM    3  N   UNL     1      43.771 -12.439   6.401  1.00  0.00    -0.244 N 
HETATM    4  C   UNL     1      42.750 -12.227   5.504  1.00  0.00     0.138 A 
HETATM    5  C   UNL     1      42.395 -13.455   4.970  1.00  0.00     0.082 A 
ENDROOT
BRANCH   5   6
HETATM    6  C   UNL     1      41.342 -13.730   4.001  1.00  0.00     0.274 C 
HETATM    7  N   UNL     1      41.558 -13.221   2.734  1.00  0.00    -0.263 N 
HETATM    8  H   UNL     1      42.417 -12.764   2.442  1.00  0.00     0.190 HD
HETATM    9  O   UNL     1      40.332 -14.380   4.258  1.00  0.00    -0.266 OA
BRANCH   7  10
HETATM   10  N   UNL     1      40.653 -13.541   1.715  1.00  0.00    -0.262 N 
HETATM   11  C   UNL     1      40.616 -12.746   0.588  1.00  0.00     0.286 C 
HETATM   12  O   UNL     1      41.315 -11.737   0.492  1.00  0.00    -0.264 OA
HETATM   13  H   UNL     1      40.143 -14.415   1.808  1.00  0.00     0.190 HD
BRANCH  11  14
HETATM   14  C   UNL     1      39.717 -13.177  -0.457  1.00  0.00     0.102 A 
HETATM   15  N   UNL     1      38.500 -12.558  -0.657  1.00  0.00    -0.361 N 
HETATM   16  H   UNL     1      38.166 -11.781  -0.097  1.00  0.00     0.165 HD
HETATM   17  C   UNL     1      37.832 -13.143  -1.697  1.00  0.00     0.088 A 
HETATM   18  C   UNL     1      38.621 -14.157  -2.187  1.00  0.00     0.019 A 
HETATM   19  C   UNL     1      39.806 -14.181  -1.409  1.00  0.00     0.036 A 
ENDBRANCH  11  14
ENDBRANCH   7  10
ENDBRANCH   5   6
BRANCH   1  20
HETATM   20  C   UNL     1      43.374 -15.825   5.456  1.00  0.00     0.029 A 
HETATM   21  C   UNL     1      43.497 -16.426   4.192  1.00  0.00     0.080 A 
HETATM   22  C   UNL     1      43.599 -17.816   4.069  1.00  0.00     0.037 A 
HETATM   23  C   UNL     1      43.540 -18.621   5.206  1.00  0.00     0.003 A 
HETATM   24  C   UNL     1      43.391 -18.040   6.462  1.00  0.00     0.001 A 
HETATM   25  C   UNL     1      43.307 -16.650   6.588  1.00  0.00     0.017 A 
BRANCH  21  26
HETATM   26  O   UNL     1      43.602 -15.659   3.057  1.00  0.00    -0.355 OA
HETATM   27  C   UNL     1      43.203 -16.419   1.914  1.00  0.00     0.210 C 
ENDBRANCH  21  26
ENDBRANCH   1  20
BRANCH   3  28
HETATM   28  C   UNL     1      44.415 -11.486   7.241  1.00  0.00     0.058 A 
HETATM   29  C   UNL     1      43.712 -10.940   8.327  1.00  0.00     0.031 A 
HETATM   30  C   UNL     1      44.315  -9.991   9.154  1.00  0.00     0.002 A 
HETATM   31  C   UNL     1      45.622  -9.580   8.906  1.00  0.00     0.000 A 
HETATM   32  C   UNL     1      46.329 -10.118   7.832  1.00  0.00     0.002 A 
HETATM   33  C   UNL     1      45.732 -11.068   6.998  1.00  0.00     0.031 A 
ENDBRANCH   3  28
TORSDOF 6
ENDMDL
MODEL 9
REMARK VINA RESULT:      -8.1      1.809      7.769
REMARK  6 active torsions:
REMARK  status: ('A' for Active; 'I' for Inactive)
REMARK    1  A    between atoms: O_2  and  C_3 
REMARK    2  A    between atoms: C_4  and  C_5 
REMARK    3  A    between atoms: N_7  and  C_8 
REMARK    4  A    between atoms: C_15  and  C_16 
REMARK       I    between atoms: C_16  and  N_17 
REMARK    5  A    between atoms: N_17  and  N_18 
REMARK       I    between atoms: N_18  and  C_19 
REMARK    6  A    between atoms: C_19  and  C_20 
ROOT
HETATM    1  C   UNL     1      42.169 -11.996   5.336  1.00  0.00     0.107 A 
HETATM    2  N   UNL     1      42.587 -11.036   6.175  1.00  0.00    -0.166 NA
HETATM    3  N   UNL     1      43.442 -11.637   7.026  1.00  0.00    -0.244 N 
HETATM    4  C   UNL     1      43.495 -12.994   6.802  1.00  0.00     0.138 A 
HETATM    5  C   UNL     1      42.692 -13.272   5.708  1.00  0.00     0.082 A 
ENDROOT
BRANCH   5   6
HETATM    6  C   UNL     1      42.461 -14.569   5.084  1.00  0.00     0.274 C 
HETATM    7  N   UNL     1      43.471 -15.011   4.250  1.00  0.00    -0.263 N 
HETATM    8  H   UNL     1      44.360 -14.535   4.130  1.00  0.00     0.190 HD
HETATM    9  O   UNL     1      41.459 -15.252   5.281  1.00  0.00    -0.266 OA
BRANCH   7  10
HETATM   10  N   UNL     1      43.381 -16.298   3.705  1.00  0.00    -0.262 N 
HETATM   11  C   UNL     1      44.064 -17.326   4.320  1.00  0.00     0.286 C 
HETATM   12  O   UNL     1      44.791 -17.122   5.293  1.00  0.00    -0.264 OA
HETATM   13  H   UNL     1      42.722 -16.432   2.943  1.00  0.00     0.190 HD
BRANCH  11  14
HETATM   14  C   UNL     1      43.865 -18.641   3.755  1.00  0.00     0.102 A 
HETATM   15  N   UNL     1      44.102 -19.783   4.493  1.00  0.00    -0.361 N 
HETATM   16  H   UNL     1      44.424 -19.773   5.455  1.00  0.00     0.165 HD
HETATM   17  C   UNL     1      43.846 -20.897   3.743  1.00  0.00     0.088 A 
HETATM   18  C   UNL     1      43.433 -20.482   2.499  1.00  0.00     0.019 A 
HETATM   19  C   UNL     1      43.445 -19.064   2.503  1.00  0.00     0.036 A 
ENDBRANCH  11  14
ENDBRANCH   7  10
ENDBRANCH   5   6
BRANCH   1  20
HETATM   20  C   UNL     1      41.270 -11.654   4.234  1.00  0.00     0.029 A 
HETATM   21  C   UNL     1      39.875 -11.770   4.361  1.00  0.00     0.080 A 
HETATM   22  C   UNL     1      39.031 -11.421   3.302  1.00  0.00     0.037 A 
HETATM   23  C   UNL     1      39.573 -10.989   2.092  1.00  0.00     0.003 A 
HETATM   24  C   UNL     1      40.955 -10.897   1.944  1.00  0.00     0.001 A 
HETATM   25  C   UNL     1      41.799 -11.228   3.007  1.00  0.00     0.017 A 
BRANCH  21  26
HETATM   26  O   UNL     1      39.308 -12.149   5.552  1.00  0.00    -0.355 OA
HETATM   27  C   UNL     1      38.770 -11.008   6.224  1.00  0.00     0.210 C 
ENDBRANCH  21  26
ENDBRANCH   1  20
BRANCH   3  28
HETATM   28  C   UNL     1      44.155 -10.880   7.999  1.00  0.00     0.058 A 
HETATM   29  C   UNL     1      45.331 -10.211   7.624  1.00  0.00     0.031 A 
HETATM   30  C   UNL     1      46.056  -9.477   8.563  1.00  0.00     0.002 A 
HETATM   31  C   UNL     1      45.615  -9.403   9.882  1.00  0.00     0.000 A 
HETATM   32  C   UNL     1      44.447 -10.061  10.264  1.00  0.00     0.002 A 
HETATM   33  C   UNL     1      43.716 -10.799   9.329  1.00  0.00     0.031 A 
ENDBRANCH   3  28
TORSDOF 6
ENDMDL
MODEL 10
REMARK VINA RESULT:      -8.1      3.428      6.313
REMARK  6 active torsions:
REMARK  status: ('A' for Active; 'I' for Inactive)
REMARK    1  A    between atoms: O_2  and  C_3 
REMARK    2  A    between atoms: C_4  and  C_5 
REMARK    3  A    between atoms: N_7  and  C_8 
REMARK    4  A    between atoms: C_15  and  C_16 
REMARK       I    between atoms: C_16  and  N_17 
REMARK    5  A    between atoms: N_17  and  N_18 
REMARK       I    between atoms: N_18  and  C_19 
REMARK    6  A    between atoms: C_19  and  C_20 
ROOT
HETATM    1  C   UNL     1      42.263 -14.634   3.209  1.00  0.00     0.107 A 
HETATM    2  N   UNL     1      42.865 -15.705   3.747  1.00  0.00    -0.166 NA
HETATM    3  N   UNL     1      42.541 -16.746   2.955  1.00  0.00    -0.244 N 
HETATM    4  C   UNL     1      41.654 -16.367   1.975  1.00  0.00     0.138 A 
HETATM    5  C   UNL     1      41.451 -15.002   2.094  1.00  0.00     0.082 A 
ENDROOT
BRANCH   5   6
HETATM    6  C   UNL     1      40.614 -14.153   1.255  1.00  0.00     0.274 C 
HETATM    7  N   UNL     1      39.449 -13.701   1.847  1.00  0.00    -0.263 N 
HETATM    8  H   UNL     1      39.209 -13.856   2.822  1.00  0.00     0.190 HD
HETATM    9  O   UNL     1      40.907 -13.830   0.107  1.00  0.00    -0.266 OA
BRANCH   7  10
HETATM   10  N   UNL     1      38.650 -12.786   1.152  1.00  0.00    -0.262 N 
HETATM   11  C   UNL     1      38.594 -11.483   1.599  1.00  0.00     0.286 C 
HETATM   12  O   UNL     1      39.180 -11.130   2.623  1.00  0.00    -0.264 OA
HETATM   13  H   UNL     1      38.236 -13.104   0.279  1.00  0.00     0.190 HD
BRANCH  11  14
HETATM   14  C   UNL     1      37.815 -10.573   0.790  1.00  0.00     0.102 A 
HETATM   15  N   UNL     1      38.411  -9.764  -0.156  1.00  0.00    -0.361 N 
HETATM   16  H   UNL     1      39.408  -9.756  -0.340  1.00  0.00     0.165 HD
HETATM   17  C   UNL     1      37.472  -8.996  -0.786  1.00  0.00     0.088 A 
HETATM   18  C   UNL     1      36.245  -9.306  -0.249  1.00  0.00     0.019 A 
HETATM   19  C   UNL     1      36.457 -10.297   0.742  1.00  0.00     0.036 A 
ENDBRANCH  11  14
ENDBRANCH   7  10
ENDBRANCH   5   6
BRANCH   1  20
HETATM   20  C   UNL     1      42.471 -13.312   3.801  1.00  0.00     0.029 A 
HETATM   21  C   UNL     1      41.502 -12.716   4.626  1.00  0.00     0.080 A 
HETATM   22  C   UNL     1      41.727 -11.459   5.198  1.00  0.00     0.037 A 
HETATM   23  C   UNL     1      42.905 -10.768   4.920  1.00  0.00     0.003 A 
HETATM   24  C   UNL     1      43.862 -11.336   4.081  1.00  0.00     0.001 A 
HETATM   25  C   UNL     1      43.646 -12.600   3.524  1.00  0.00     0.017 A 
BRANCH  21  26
HETATM   26  O   UNL     1      40.351 -13.388   4.956  1.00  0.00    -0.355 OA
HETATM   27  C   UNL     1      39.539 -12.580   5.810  1.00  0.00     0.210 C 
ENDBRANCH  21  26
ENDBRANCH   1  20
BRANCH   3  28
HETATM   28  C   UNL     1      43.099 -18.037   3.184  1.00  0.00     0.058 A 
HETATM   29  C   UNL     1      42.997 -19.017   2.183  1.00  0.00     0.031 A 
HETATM   30  C   UNL     1      43.520 -20.294   2.391  1.00  0.00     0.002 A 
HETATM   31  C   UNL     1      44.150 -20.604   3.594  1.00  0.00     0.000 A 
HETATM   32  C   UNL     1      44.258 -19.637   4.592  1.00  0.00     0.002 A 
HETATM   33  C   UNL     1      43.735 -18.356   4.393  1.00  0.00     0.031 A 
ENDBRANCH   3  28
TORSDOF 6
ENDMDL
