MODEL 1
REMARK VINA RESULT:      -8.6      0.000      0.000
REMARK  8 active torsions:
REMARK  status: ('A' for Active; 'I' for Inactive)
REMARK    1  A    between atoms: C_2  and  C_3 
REMARK    2  A    between atoms: C_6  and  C_7 
REMARK    3  A    between atoms: C_8  and  C_9 
REMARK       I    between atoms: C_9  and  N_10 
REMARK    4  A    between atoms: N_10  and  C_11 
REMARK    5  A    between atoms: C_11  and  N_12 
REMARK    6  A    between atoms: N_12  and  C_13 
REMARK    7  A    between atoms: C_16  and  N_17 
REMARK       I    between atoms: N_20  and  C_21 
REMARK    8  A    between atoms: C_21  and  C_22 
ROOT
HETATM    1  C   UNL     1      39.305 -11.581   0.813  1.00  0.00     0.034 A 
HETATM    2  C   UNL     1      40.679 -11.415   0.935  1.00  0.00     0.032 A 
HETATM    3  C   UNL     1      41.313 -11.665   2.162  1.00  0.00     0.031 A 
HETATM    4  C   UNL     1      40.611 -12.089   3.303  1.00  0.00     0.030 A 
HETATM    5  C   UNL     1      39.217 -12.157   3.170  1.00  0.00     0.031 A 
HETATM    6  C   UNL     1      38.571 -11.906   1.951  1.00  0.00     0.032 A 
ENDROOT
BRANCH   1   7
HETATM    7  N   UNL     1      38.589 -11.393  -0.386  1.00  0.00    -0.333 N 
HETATM    8  H   UNL     1      37.988 -10.574  -0.387  1.00  0.00     0.168 HD
BRANCH   7   9
HETATM    9  C   UNL     1      38.807 -11.898  -1.620  1.00  0.00     0.179 C 
HETATM   10  S   UNL     1      39.376 -10.872  -2.813  1.00  0.00    -0.040 SA
BRANCH   9  11
HETATM   11  N   UNL     1      38.537 -13.198  -1.956  1.00  0.00    -0.300 N 
HETATM   12  C   UNL     1      39.130 -14.438  -1.789  1.00  0.00     0.247 C 
HETATM   13  O   UNL     1      38.744 -15.390  -2.465  1.00  0.00    -0.268 OA
HETATM   14  H   UNL     1      37.659 -13.297  -2.451  1.00  0.00     0.171 HD
BRANCH  12  15
HETATM   15  C   UNL     1      40.192 -14.584  -0.764  1.00  0.00     0.075 C 
HETATM   16  C   UNL     1      39.863 -15.093   0.434  1.00  0.00     0.017 C 
BRANCH  16  17
HETATM   17  C   UNL     1      40.785 -15.334   1.554  1.00  0.00    -0.036 A 
HETATM   18  C   UNL     1      40.249 -15.757   2.777  1.00  0.00     0.012 A 
HETATM   19  C   UNL     1      41.078 -16.061   3.863  1.00  0.00     0.008 A 
HETATM   20  C   UNL     1      42.468 -15.944   3.757  1.00  0.00    -0.055 A 
HETATM   21  C   UNL     1      43.006 -15.538   2.528  1.00  0.00     0.008 A 
HETATM   22  C   UNL     1      42.176 -15.239   1.439  1.00  0.00     0.012 A 
BRANCH  20  23
HETATM   23  C   UNL     1      43.399 -16.290   4.907  1.00  0.00     0.010 C 
HETATM   24  C   UNL     1      44.038 -17.662   4.683  1.00  0.00     0.015 C 
HETATM   25  C   UNL     1      42.721 -16.232   6.280  1.00  0.00     0.015 C 
ENDBRANCH  20  23
ENDBRANCH  16  17
ENDBRANCH  12  15
ENDBRANCH   9  11
ENDBRANCH   7   9
ENDBRANCH   1   7
BRANCH   4  26
HETATM   26  N   UNL     1      41.284 -12.358   4.500  1.00  0.00    -0.378 N 
HETATM   27  C   UNL     1      42.716 -11.986   4.653  1.00  0.00     0.143 C 
HETATM   28  C   UNL     1      42.848 -10.526   5.126  1.00  0.00     0.146 C 
HETATM   29  N   UNL     1      42.110 -10.338   6.384  1.00  0.00    -0.343 N 
HETATM   30  C   UNL     1      42.635  -9.972   7.623  1.00  0.00     0.277 C 
HETATM   31  C   UNL     1      40.689 -10.690   6.276  1.00  0.00     0.146 C 
HETATM   32  O   UNL     1      41.878  -9.721   8.564  1.00  0.00    -0.265 OA
HETATM   33  C   UNL     1      40.526 -12.142   5.769  1.00  0.00     0.143 C 
BRANCH  30  34
HETATM   34  C   UNL     1      44.074  -9.869   7.798  1.00  0.00     0.142 A 
HETATM   35  O   UNL     1      44.892 -10.956   7.626  1.00  0.00    -0.317 OA
HETATM   36  C   UNL     1      46.161 -10.559   7.904  1.00  0.00     0.143 A 
HETATM   37  C   UNL     1      46.181  -9.239   8.285  1.00  0.00     0.027 A 
HETATM   38  C   UNL     1      44.836  -8.800   8.239  1.00  0.00     0.045 A 
ENDBRANCH  30  34
ENDBRANCH   4  26
TORSDOF 8
ENDMDL
MODEL 2
REMARK VINA RESULT:      -8.4      0.770      1.300
REMARK  8 active torsions:
REMARK  status: ('A' for Active; 'I' for Inactive)
REMARK    1  A    between atoms: C_2  and  C_3 
REMARK    2  A    between atoms: C_6  and  C_7 
REMARK    3  A    between atoms: C_8  and  C_9 
REMARK       I    between atoms: C_9  and  N_10 
REMARK    4  A    between atoms: N_10  and  C_11 
REMARK    5  A    between atoms: C_11  and  N_12 
REMARK    6  A    between atoms: N_12  and  C_13 
REMARK    7  A    between atoms: C_16  and  N_17 
REMARK       I    between atoms: N_20  and  C_21 
REMARK    8  A    between atoms: C_21  and  C_22 
ROOT
HETATM    1  C   UNL     1      39.592 -11.505   0.960  1.00  0.00     0.034 A 
HETATM    2  C   UNL     1      38.733 -11.847   1.997  1.00  0.00     0.032 A 
HETATM    3  C   UNL     1      39.240 -12.090   3.283  1.00  0.00     0.031 A 
HETATM    4  C   UNL     1      40.610 -11.999   3.584  1.00  0.00     0.030 A 
HETATM    5  C   UNL     1      41.457 -11.743   2.495  1.00  0.00     0.031 A 
HETATM    6  C   UNL     1      40.962 -11.503   1.205  1.00  0.00     0.032 A 
ENDROOT
BRANCH   1   7
HETATM    7  N   UNL     1      39.170 -11.206  -0.351  1.00  0.00    -0.333 N 
HETATM    8  H   UNL     1      38.858 -10.248  -0.479  1.00  0.00     0.168 HD
BRANCH   7   9
HETATM    9  C   UNL     1      39.419 -11.847  -1.515  1.00  0.00     0.179 C 
HETATM   10  S   UNL     1      40.278 -11.040  -2.703  1.00  0.00    -0.040 SA
BRANCH   9  11
HETATM   11  N   UNL     1      38.960 -13.107  -1.789  1.00  0.00    -0.300 N 
HETATM   12  C   UNL     1      39.352 -14.412  -1.539  1.00  0.00     0.247 C 
HETATM   13  O   UNL     1      38.837 -15.331  -2.174  1.00  0.00    -0.268 OA
HETATM   14  H   UNL     1      38.087 -13.100  -2.301  1.00  0.00     0.171 HD
BRANCH  12  15
HETATM   15  C   UNL     1      40.358 -14.660  -0.479  1.00  0.00     0.075 C 
HETATM   16  C   UNL     1      39.941 -15.135   0.706  1.00  0.00     0.017 C 
BRANCH  16  17
HETATM   17  C   UNL     1      40.797 -15.464   1.856  1.00  0.00    -0.036 A 
HETATM   18  C   UNL     1      40.183 -15.728   3.086  1.00  0.00     0.012 A 
HETATM   19  C   UNL     1      40.937 -16.106   4.203  1.00  0.00     0.008 A 
HETATM   20  C   UNL     1      42.329 -16.222   4.122  1.00  0.00    -0.055 A 
HETATM   21  C   UNL     1      42.942 -15.974   2.886  1.00  0.00     0.008 A 
HETATM   22  C   UNL     1      42.186 -15.602   1.766  1.00  0.00     0.012 A 
BRANCH  20  23
HETATM   23  C   UNL     1      43.175 -16.654   5.308  1.00  0.00     0.010 C 
HETATM   24  C   UNL     1      43.757 -15.432   6.021  1.00  0.00     0.015 C 
HETATM   25  C   UNL     1      44.288 -17.639   4.937  1.00  0.00     0.015 C 
ENDBRANCH  20  23
ENDBRANCH  16  17
ENDBRANCH  12  15
ENDBRANCH   9  11
ENDBRANCH   7   9
ENDBRANCH   1   7
BRANCH   4  26
HETATM   26  N   UNL     1      41.074 -12.217   4.885  1.00  0.00    -0.378 N 
HETATM   27  C   UNL     1      42.480 -11.889   5.243  1.00  0.00     0.143 C 
HETATM   28  C   UNL     1      42.603 -10.408   5.648  1.00  0.00     0.146 C 
HETATM   29  N   UNL     1      41.688 -10.114   6.760  1.00  0.00    -0.343 N 
HETATM   30  C   UNL     1      42.028  -9.690   8.044  1.00  0.00     0.277 C 
HETATM   31  C   UNL     1      40.286 -10.419   6.447  1.00  0.00     0.146 C 
HETATM   32  O   UNL     1      41.146  -9.353   8.837  1.00  0.00    -0.265 OA
HETATM   33  C   UNL     1      40.137 -11.893   6.003  1.00  0.00     0.143 C 
BRANCH  30  34
HETATM   34  C   UNL     1      43.426  -9.629   8.439  1.00  0.00     0.142 A 
HETATM   35  O   UNL     1      44.200  -8.534   8.153  1.00  0.00    -0.317 OA
HETATM   36  C   UNL     1      45.455  -8.794   8.601  1.00  0.00     0.143 A 
HETATM   37  C   UNL     1      45.521 -10.053   9.147  1.00  0.00     0.027 A 
HETATM   38  C   UNL     1      44.222 -10.601   9.023  1.00  0.00     0.045 A 
ENDBRANCH  30  34
ENDBRANCH   4  26
TORSDOF 8
ENDMDL
MODEL 3
REMARK VINA RESULT:      -7.8      5.992      8.658
REMARK  8 active torsions:
REMARK  status: ('A' for Active; 'I' for Inactive)
REMARK    1  A    between atoms: C_2  and  C_3 
REMARK    2  A    between atoms: C_6  and  C_7 
REMARK    3  A    between atoms: C_8  and  C_9 
REMARK       I    between atoms: C_9  and  N_10 
REMARK    4  A    between atoms: N_10  and  C_11 
REMARK    5  A    between atoms: C_11  and  N_12 
REMARK    6  A    between atoms: N_12  and  C_13 
REMARK    7  A    between atoms: C_16  and  N_17 
REMARK       I    between atoms: N_20  and  C_21 
REMARK    8  A    between atoms: C_21  and  C_22 
ROOT
HETATM    1  C   UNL     1      43.751 -10.118   9.688  1.00  0.00     0.034 A 
HETATM    2  C   UNL     1      43.618 -10.696  10.944  1.00  0.00     0.032 A 
HETATM    3  C   UNL     1      42.736 -10.142  11.885  1.00  0.00     0.031 A 
HETATM    4  C   UNL     1      41.958  -9.003  11.613  1.00  0.00     0.030 A 
HETATM    5  C   UNL     1      42.186  -8.393  10.371  1.00  0.00     0.031 A 
HETATM    6  C   UNL     1      43.067  -8.934   9.424  1.00  0.00     0.032 A 
ENDROOT
BRANCH   1   7
HETATM    7  N   UNL     1      44.579 -10.626   8.666  1.00  0.00    -0.333 N 
HETATM    8  H   UNL     1      45.489 -10.942   8.988  1.00  0.00     0.168 HD
BRANCH   7   9
HETATM    9  C   UNL     1      44.265 -11.071   7.429  1.00  0.00     0.179 C 
HETATM   10  S   UNL     1      45.506 -11.341   6.340  1.00  0.00    -0.040 SA
BRANCH   9  11
HETATM   11  N   UNL     1      42.977 -11.264   7.007  1.00  0.00    -0.300 N 
HETATM   12  C   UNL     1      42.302 -12.116   6.149  1.00  0.00     0.247 C 
HETATM   13  O   UNL     1      41.160 -11.835   5.791  1.00  0.00    -0.268 OA
HETATM   14  H   UNL     1      42.325 -10.625   7.445  1.00  0.00     0.171 HD
BRANCH  12  15
HETATM   15  C   UNL     1      42.972 -13.367   5.720  1.00  0.00     0.075 C 
HETATM   16  C   UNL     1      42.243 -14.306   5.096  1.00  0.00     0.017 C 
BRANCH  16  17
HETATM   17  C   UNL     1      42.744 -15.589   4.579  1.00  0.00    -0.036 A 
HETATM   18  C   UNL     1      43.383 -16.459   5.470  1.00  0.00     0.012 A 
HETATM   19  C   UNL     1      43.829 -17.719   5.054  1.00  0.00     0.008 A 
HETATM   20  C   UNL     1      43.652 -18.141   3.732  1.00  0.00    -0.055 A 
HETATM   21  C   UNL     1      42.996 -17.277   2.844  1.00  0.00     0.008 A 
HETATM   22  C   UNL     1      42.545 -16.018   3.263  1.00  0.00     0.012 A 
BRANCH  20  23
HETATM   23  C   UNL     1      44.101 -19.512   3.254  1.00  0.00     0.010 C 
HETATM   24  C   UNL     1      43.270 -19.954   2.048  1.00  0.00     0.015 C 
HETATM   25  C   UNL     1      44.069 -20.582   4.350  1.00  0.00     0.015 C 
ENDBRANCH  20  23
ENDBRANCH  16  17
ENDBRANCH  12  15
ENDBRANCH   9  11
ENDBRANCH   7   9
ENDBRANCH   1   7
BRANCH   4  26
HETATM   26  N   UNL     1      41.068  -8.499  12.566  1.00  0.00    -0.378 N 
HETATM   27  C   UNL     1      40.968  -9.136  13.907  1.00  0.00     0.143 C 
HETATM   28  C   UNL     1      42.027  -8.553  14.863  1.00  0.00     0.146 C 
HETATM   29  N   UNL     1      41.872  -7.094  14.952  1.00  0.00    -0.343 N 
HETATM   30  C   UNL     1      41.560  -6.346  16.087  1.00  0.00     0.277 C 
HETATM   31  C   UNL     1      41.969  -6.424  13.649  1.00  0.00     0.146 C 
HETATM   32  O   UNL     1      41.594  -5.114  16.044  1.00  0.00    -0.265 OA
HETATM   33  C   UNL     1      40.939  -7.014  12.658  1.00  0.00     0.143 C 
BRANCH  30  34
HETATM   34  C   UNL     1      41.214  -7.023  17.327  1.00  0.00     0.142 A 
HETATM   35  O   UNL     1      39.980  -7.595  17.504  1.00  0.00    -0.317 OA
HETATM   36  C   UNL     1      39.943  -8.099  18.765  1.00  0.00     0.143 A 
HETATM   37  C   UNL     1      41.120  -7.837  19.424  1.00  0.00     0.027 A 
HETATM   38  C   UNL     1      41.930  -7.125  18.508  1.00  0.00     0.045 A 
ENDBRANCH  30  34
ENDBRANCH   4  26
TORSDOF 8
ENDMDL
MODEL 4
REMARK VINA RESULT:      -7.7      1.635      2.094
REMARK  8 active torsions:
REMARK  status: ('A' for Active; 'I' for Inactive)
REMARK    1  A    between atoms: C_2  and  C_3 
REMARK    2  A    between atoms: C_6  and  C_7 
REMARK    3  A    between atoms: C_8  and  C_9 
REMARK       I    between atoms: C_9  and  N_10 
REMARK    4  A    between atoms: N_10  and  C_11 
REMARK    5  A    between atoms: C_11  and  N_12 
REMARK    6  A    between atoms: N_12  and  C_13 
REMARK    7  A    between atoms: C_16  and  N_17 
REMARK       I    between atoms: N_20  and  C_21 
REMARK    8  A    between atoms: C_21  and  C_22 
ROOT
HETATM    1  C   UNL     1      39.839 -11.790   1.093  1.00  0.00     0.034 A 
HETATM    2  C   UNL     1      38.861 -12.040   2.047  1.00  0.00     0.032 A 
HETATM    3  C   UNL     1      39.205 -12.113   3.406  1.00  0.00     0.031 A 
HETATM    4  C   UNL     1      40.523 -11.939   3.863  1.00  0.00     0.030 A 
HETATM    5  C   UNL     1      41.497 -11.781   2.865  1.00  0.00     0.031 A 
HETATM    6  C   UNL     1      41.166 -11.710   1.505  1.00  0.00     0.032 A 
ENDROOT
BRANCH   1   7
HETATM    7  N   UNL     1      39.583 -11.660  -0.288  1.00  0.00    -0.333 N 
HETATM    8  H   UNL     1      40.408 -11.468  -0.848  1.00  0.00     0.168 HD
BRANCH   7   9
HETATM    9  C   UNL     1      38.523 -12.070  -1.020  1.00  0.00     0.179 C 
HETATM   10  S   UNL     1      37.287 -10.981  -1.313  1.00  0.00    -0.040 SA
BRANCH   9  11
HETATM   11  N   UNL     1      38.387 -13.348  -1.491  1.00  0.00    -0.300 N 
HETATM   12  C   UNL     1      39.120 -14.524  -1.476  1.00  0.00     0.247 C 
HETATM   13  O   UNL     1      38.817 -15.435  -2.244  1.00  0.00    -0.268 OA
HETATM   14  H   UNL     1      37.509 -13.493  -1.973  1.00  0.00     0.171 HD
BRANCH  12  15
HETATM   15  C   UNL     1      40.226 -14.657  -0.498  1.00  0.00     0.075 C 
HETATM   16  C   UNL     1      39.995 -15.315   0.649  1.00  0.00     0.017 C 
BRANCH  16  17
HETATM   17  C   UNL     1      40.977 -15.567   1.715  1.00  0.00    -0.036 A 
HETATM   18  C   UNL     1      40.502 -15.832   3.006  1.00  0.00     0.012 A 
HETATM   19  C   UNL     1      41.382 -16.138   4.050  1.00  0.00     0.008 A 
HETATM   20  C   UNL     1      42.763 -16.182   3.833  1.00  0.00    -0.055 A 
HETATM   21  C   UNL     1      43.238 -15.935   2.537  1.00  0.00     0.008 A 
HETATM   22  C   UNL     1      42.355 -15.634   1.491  1.00  0.00     0.012 A 
BRANCH  20  23
HETATM   23  C   UNL     1      43.745 -16.536   4.938  1.00  0.00     0.010 C 
HETATM   24  C   UNL     1      44.033 -18.039   4.934  1.00  0.00     0.015 C 
HETATM   25  C   UNL     1      43.291 -16.080   6.328  1.00  0.00     0.015 C 
ENDBRANCH  20  23
ENDBRANCH  16  17
ENDBRANCH  12  15
ENDBRANCH   9  11
ENDBRANCH   7   9
ENDBRANCH   1   7
BRANCH   4  26
HETATM   26  N   UNL     1      40.820 -11.988   5.228  1.00  0.00    -0.378 N 
HETATM   27  C   UNL     1      41.787 -11.023   5.818  1.00  0.00     0.143 C 
HETATM   28  C   UNL     1      41.073  -9.715   6.212  1.00  0.00     0.146 C 
HETATM   29  N   UNL     1      39.973 -10.005   7.143  1.00  0.00    -0.343 N 
HETATM   30  C   UNL     1      39.842  -9.562   8.458  1.00  0.00     0.277 C 
HETATM   31  C   UNL     1      38.992 -10.951   6.598  1.00  0.00     0.146 C 
HETATM   32  O   UNL     1      38.799  -9.774   9.081  1.00  0.00    -0.265 OA
HETATM   33  C   UNL     1      39.687 -12.263   6.162  1.00  0.00     0.143 C 
BRANCH  30  34
HETATM   34  C   UNL     1      40.932  -8.834   9.089  1.00  0.00     0.142 A 
HETATM   35  O   UNL     1      42.046  -9.483   9.556  1.00  0.00    -0.317 OA
HETATM   36  C   UNL     1      42.850  -8.550  10.128  1.00  0.00     0.143 A 
HETATM   37  C   UNL     1      42.266  -7.309  10.070  1.00  0.00     0.027 A 
HETATM   38  C   UNL     1      41.021  -7.493   9.422  1.00  0.00     0.045 A 
ENDBRANCH  30  34
ENDBRANCH   4  26
TORSDOF 8
ENDMDL
MODEL 5
REMARK VINA RESULT:      -7.4      1.614      2.081
REMARK  8 active torsions:
REMARK  status: ('A' for Active; 'I' for Inactive)
REMARK    1  A    between atoms: C_2  and  C_3 
REMARK    2  A    between atoms: C_6  and  C_7 
REMARK    3  A    between atoms: C_8  and  C_9 
REMARK       I    between atoms: C_9  and  N_10 
REMARK    4  A    between atoms: N_10  and  C_11 
REMARK    5  A    between atoms: C_11  and  N_12 
REMARK    6  A    between atoms: N_12  and  C_13 
REMARK    7  A    between atoms: C_16  and  N_17 
REMARK       I    between atoms: N_20  and  C_21 
REMARK    8  A    between atoms: C_21  and  C_22 
ROOT
HETATM    1  C   UNL     1      39.786 -11.248   1.607  1.00  0.00     0.034 A 
HETATM    2  C   UNL     1      39.480 -12.140   2.627  1.00  0.00     0.032 A 
HETATM    3  C   UNL     1      39.612 -11.750   3.968  1.00  0.00     0.031 A 
HETATM    4  C   UNL     1      40.047 -10.467   4.343  1.00  0.00     0.030 A 
HETATM    5  C   UNL     1      40.435  -9.625   3.290  1.00  0.00     0.031 A 
HETATM    6  C   UNL     1      40.311 -10.004   1.946  1.00  0.00     0.032 A 
ENDROOT
BRANCH   1   7
HETATM    7  N   UNL     1      39.646 -11.537   0.234  1.00  0.00    -0.333 N 
HETATM    8  H   UNL     1      40.521 -11.746  -0.238  1.00  0.00     0.168 HD
BRANCH   7   9
HETATM    9  C   UNL     1      38.555 -11.908  -0.472  1.00  0.00     0.179 C 
HETATM   10  S   UNL     1      37.224 -10.893  -0.477  1.00  0.00    -0.040 SA
BRANCH   9  11
HETATM   11  N   UNL     1      38.466 -13.098  -1.144  1.00  0.00    -0.300 N 
HETATM   12  C   UNL     1      39.211 -14.260  -1.262  1.00  0.00     0.247 C 
HETATM   13  O   UNL     1      38.971 -15.042  -2.180  1.00  0.00    -0.268 OA
HETATM   14  H   UNL     1      37.623 -13.168  -1.700  1.00  0.00     0.171 HD
BRANCH  12  15
HETATM   15  C   UNL     1      40.252 -14.541  -0.245  1.00  0.00     0.075 C 
HETATM   16  C   UNL     1      39.946 -15.351   0.782  1.00  0.00     0.017 C 
BRANCH  16  17
HETATM   17  C   UNL     1      40.857 -15.760   1.862  1.00  0.00    -0.036 A 
HETATM   18  C   UNL     1      42.211 -15.945   1.554  1.00  0.00     0.012 A 
HETATM   19  C   UNL     1      43.139 -16.276   2.548  1.00  0.00     0.008 A 
HETATM   20  C   UNL     1      42.737 -16.438   3.878  1.00  0.00    -0.055 A 
HETATM   21  C   UNL     1      41.385 -16.237   4.189  1.00  0.00     0.008 A 
HETATM   22  C   UNL     1      40.457 -15.899   3.194  1.00  0.00     0.012 A 
BRANCH  20  23
HETATM   23  C   UNL     1      43.722 -16.773   4.986  1.00  0.00     0.010 C 
HETATM   24  C   UNL     1      44.393 -18.120   4.714  1.00  0.00     0.015 C 
HETATM   25  C   UNL     1      43.096 -16.758   6.384  1.00  0.00     0.015 C 
ENDBRANCH  20  23
ENDBRANCH  16  17
ENDBRANCH  12  15
ENDBRANCH   9  11
ENDBRANCH   7   9
ENDBRANCH   1   7
BRANCH   4  26
HETATM   26  N   UNL     1      40.136 -10.105   5.691  1.00  0.00    -0.378 N 
HETATM   27  C   UNL     1      41.134 -10.761   6.577  1.00  0.00     0.143 C 
HETATM   28  C   UNL     1      42.493 -10.040   6.488  1.00  0.00     0.146 C 
HETATM   29  N   UNL     1      42.329  -8.620   6.829  1.00  0.00    -0.343 N 
HETATM   30  C   UNL     1      42.912  -7.935   7.895  1.00  0.00     0.277 C 
HETATM   31  C   UNL     1      41.355  -7.931   5.973  1.00  0.00     0.146 C 
HETATM   32  O   UNL     1      42.792  -6.711   7.982  1.00  0.00    -0.265 OA
HETATM   33  C   UNL     1      39.988  -8.655   6.016  1.00  0.00     0.143 C 
BRANCH  30  34
HETATM   34  C   UNL     1      43.676  -8.665   8.893  1.00  0.00     0.142 A 
HETATM   35  O   UNL     1      45.036  -8.801   8.788  1.00  0.00    -0.317 OA
HETATM   36  C   UNL     1      45.450  -9.566   9.832  1.00  0.00     0.143 A 
HETATM   37  C   UNL     1      44.379  -9.958  10.597  1.00  0.00     0.027 A 
HETATM   38  C   UNL     1      43.234  -9.398   9.982  1.00  0.00     0.045 A 
ENDBRANCH  30  34
ENDBRANCH   4  26
TORSDOF 8
ENDMDL
MODEL 6
REMARK VINA RESULT:      -7.3      2.366      3.480
REMARK  8 active torsions:
REMARK  status: ('A' for Active; 'I' for Inactive)
REMARK    1  A    between atoms: C_2  and  C_3 
REMARK    2  A    between atoms: C_6  and  C_7 
REMARK    3  A    between atoms: C_8  and  C_9 
REMARK       I    between atoms: C_9  and  N_10 
REMARK    4  A    between atoms: N_10  and  C_11 
REMARK    5  A    between atoms: C_11  and  N_12 
REMARK    6  A    between atoms: N_12  and  C_13 
REMARK    7  A    between atoms: C_16  and  N_17 
REMARK       I    between atoms: N_20  and  C_21 
REMARK    8  A    between atoms: C_21  and  C_22 
ROOT
HETATM    1  C   UNL     1      39.918 -11.638   3.975  1.00  0.00     0.034 A 
HETATM    2  C   UNL     1      39.476 -11.259   5.237  1.00  0.00     0.032 A 
HETATM    3  C   UNL     1      40.337 -10.575   6.109  1.00  0.00     0.031 A 
HETATM    4  C   UNL     1      41.658 -10.243   5.762  1.00  0.00     0.030 A 
HETATM    5  C   UNL     1      42.099 -10.721   4.519  1.00  0.00     0.031 A 
HETATM    6  C   UNL     1      41.250 -11.409   3.640  1.00  0.00     0.032 A 
ENDROOT
BRANCH   1   7
HETATM    7  N   UNL     1      39.115 -12.291   3.018  1.00  0.00    -0.333 N 
HETATM    8  H   UNL     1      38.528 -13.026   3.401  1.00  0.00     0.168 HD
BRANCH   7   9
HETATM    9  C   UNL     1      38.744 -11.901   1.779  1.00  0.00     0.179 C 
HETATM   10  S   UNL     1      38.006 -10.409   1.599  1.00  0.00    -0.040 SA
BRANCH   9  11
HETATM   11  N   UNL     1      38.897 -12.687   0.669  1.00  0.00    -0.300 N 
HETATM   12  C   UNL     1      39.835 -13.577   0.171  1.00  0.00     0.247 C 
HETATM   13  O   UNL     1      39.782 -13.913  -1.011  1.00  0.00    -0.268 OA
HETATM   14  H   UNL     1      38.110 -12.623   0.036  1.00  0.00     0.171 HD
BRANCH  12  15
HETATM   15  C   UNL     1      40.852 -14.127   1.098  1.00  0.00     0.075 C 
HETATM   16  C   UNL     1      40.635 -15.331   1.651  1.00  0.00     0.017 C 
BRANCH  16  17
HETATM   17  C   UNL     1      41.543 -16.040   2.565  1.00  0.00    -0.036 A 
HETATM   18  C   UNL     1      41.371 -15.860   3.943  1.00  0.00     0.012 A 
HETATM   19  C   UNL     1      42.163 -16.552   4.866  1.00  0.00     0.008 A 
HETATM   20  C   UNL     1      43.155 -17.440   4.436  1.00  0.00    -0.055 A 
HETATM   21  C   UNL     1      43.315 -17.634   3.056  1.00  0.00     0.008 A 
HETATM   22  C   UNL     1      42.517 -16.945   2.133  1.00  0.00     0.012 A 
BRANCH  20  23
HETATM   23  C   UNL     1      44.015 -18.227   5.410  1.00  0.00     0.010 C 
HETATM   24  C   UNL     1      44.163 -19.675   4.942  1.00  0.00     0.015 C 
HETATM   25  C   UNL     1      43.503 -18.179   6.854  1.00  0.00     0.015 C 
ENDBRANCH  20  23
ENDBRANCH  16  17
ENDBRANCH  12  15
ENDBRANCH   9  11
ENDBRANCH   7   9
ENDBRANCH   1   7
BRANCH   4  26
HETATM   26  N   UNL     1      42.475  -9.532   6.647  1.00  0.00    -0.378 N 
HETATM   27  C   UNL     1      41.901  -8.945   7.887  1.00  0.00     0.143 C 
HETATM   28  C   UNL     1      41.892  -9.985   9.024  1.00  0.00     0.146 C 
HETATM   29  N   UNL     1      43.254 -10.488   9.254  1.00  0.00    -0.343 N 
HETATM   30  C   UNL     1      44.014 -10.367  10.416  1.00  0.00     0.277 C 
HETATM   31  C   UNL     1      43.858 -11.082   8.054  1.00  0.00     0.146 C 
HETATM   32  O   UNL     1      45.094 -10.956  10.513  1.00  0.00    -0.265 OA
HETATM   33  C   UNL     1      43.848 -10.070   6.884  1.00  0.00     0.143 C 
BRANCH  30  34
HETATM   34  C   UNL     1      43.522  -9.561  11.522  1.00  0.00     0.142 A 
HETATM   35  O   UNL     1      42.696 -10.093  12.479  1.00  0.00    -0.317 OA
HETATM   36  C   UNL     1      42.373  -9.093  13.339  1.00  0.00     0.143 A 
HETATM   37  C   UNL     1      42.948  -7.911  12.942  1.00  0.00     0.027 A 
HETATM   38  C   UNL     1      43.669  -8.205  11.760  1.00  0.00     0.045 A 
ENDBRANCH  30  34
ENDBRANCH   4  26
TORSDOF 8
ENDMDL
MODEL 7
REMARK VINA RESULT:      -7.2      6.063      9.151
REMARK  8 active torsions:
REMARK  status: ('A' for Active; 'I' for Inactive)
REMARK    1  A    between atoms: C_2  and  C_3 
REMARK    2  A    between atoms: C_6  and  C_7 
REMARK    3  A    between atoms: C_8  and  C_9 
REMARK       I    between atoms: C_9  and  N_10 
REMARK    4  A    between atoms: N_10  and  C_11 
REMARK    5  A    between atoms: C_11  and  N_12 
REMARK    6  A    between atoms: N_12  and  C_13 
REMARK    7  A    between atoms: C_16  and  N_17 
REMARK       I    between atoms: N_20  and  C_21 
REMARK    8  A    between atoms: C_21  and  C_22 
ROOT
HETATM    1  C   UNL     1      44.375 -10.002  10.697  1.00  0.00     0.034 A 
HETATM    2  C   UNL     1      43.866 -11.004  11.513  1.00  0.00     0.032 A 
HETATM    3  C   UNL     1      43.003 -10.680  12.571  1.00  0.00     0.031 A 
HETATM    4  C   UNL     1      42.615  -9.359  12.853  1.00  0.00     0.030 A 
HETATM    5  C   UNL     1      43.220  -8.366  12.068  1.00  0.00     0.031 A 
HETATM    6  C   UNL     1      44.087  -8.677  11.011  1.00  0.00     0.032 A 
ENDROOT
BRANCH   1   7
HETATM    7  N   UNL     1      45.215 -10.235   9.588  1.00  0.00    -0.333 N 
HETATM    8  H   UNL     1      46.134 -10.592   9.831  1.00  0.00     0.168 HD
BRANCH   7   9
HETATM    9  C   UNL     1      44.910 -10.386   8.280  1.00  0.00     0.179 C 
HETATM   10  S   UNL     1      46.151 -10.705   7.204  1.00  0.00    -0.040 SA
BRANCH   9  11
HETATM   11  N   UNL     1      43.642 -10.240   7.785  1.00  0.00    -0.300 N 
HETATM   12  C   UNL     1      42.843 -10.852   6.833  1.00  0.00     0.247 C 
HETATM   13  O   UNL     1      41.822 -10.286   6.445  1.00  0.00    -0.268 OA
HETATM   14  H   UNL     1      43.131  -9.494   8.239  1.00  0.00     0.171 HD
BRANCH  12  15
HETATM   15  C   UNL     1      43.228 -12.197   6.343  1.00  0.00     0.075 C 
HETATM   16  C   UNL     1      42.258 -13.048   5.971  1.00  0.00     0.017 C 
BRANCH  16  17
HETATM   17  C   UNL     1      42.455 -14.404   5.436  1.00  0.00    -0.036 A 
HETATM   18  C   UNL     1      42.842 -14.541   4.097  1.00  0.00     0.012 A 
HETATM   19  C   UNL     1      43.104 -15.800   3.545  1.00  0.00     0.008 A 
HETATM   20  C   UNL     1      42.979 -16.960   4.317  1.00  0.00    -0.055 A 
HETATM   21  C   UNL     1      42.608 -16.822   5.662  1.00  0.00     0.008 A 
HETATM   22  C   UNL     1      42.352 -15.561   6.215  1.00  0.00     0.012 A 
BRANCH  20  23
HETATM   23  C   UNL     1      43.279 -18.340   3.757  1.00  0.00     0.010 C 
HETATM   24  C   UNL     1      44.666 -18.806   4.203  1.00  0.00     0.015 C 
HETATM   25  C   UNL     1      43.149 -18.423   2.233  1.00  0.00     0.015 C 
ENDBRANCH  20  23
ENDBRANCH  16  17
ENDBRANCH  12  15
ENDBRANCH   9  11
ENDBRANCH   7   9
ENDBRANCH   1   7
BRANCH   4  26
HETATM   26  N   UNL     1      41.728  -9.080  13.898  1.00  0.00    -0.378 N 
HETATM   27  C   UNL     1      41.955  -7.902  14.778  1.00  0.00     0.143 C 
HETATM   28  C   UNL     1      41.331  -6.636  14.159  1.00  0.00     0.146 C 
HETATM   29  N   UNL     1      39.897  -6.852  13.917  1.00  0.00    -0.343 N 
HETATM   30  C   UNL     1      38.831  -6.158  14.488  1.00  0.00     0.277 C 
HETATM   31  C   UNL     1      39.627  -8.004  13.047  1.00  0.00     0.146 C 
HETATM   32  O   UNL     1      37.680  -6.357  14.090  1.00  0.00    -0.265 OA
HETATM   33  C   UNL     1      40.273  -9.284  13.627  1.00  0.00     0.143 C 
BRANCH  30  34
HETATM   34  C   UNL     1      39.080  -5.187  15.540  1.00  0.00     0.142 A 
HETATM   35  O   UNL     1      39.308  -3.866  15.251  1.00  0.00    -0.317 OA
HETATM   36  C   UNL     1      39.553  -3.228  16.424  1.00  0.00     0.143 A 
HETATM   37  C   UNL     1      39.521  -4.116  17.472  1.00  0.00     0.027 A 
HETATM   38  C   UNL     1      39.239  -5.381  16.902  1.00  0.00     0.045 A 
ENDBRANCH  30  34
ENDBRANCH   4  26
TORSDOF 8
ENDMDL
MODEL 8
REMARK VINA RESULT:      -7.1      3.022      7.993
REMARK  8 active torsions:
REMARK  status: ('A' for Active; 'I' for Inactive)
REMARK    1  A    between atoms: C_2  and  C_3 
REMARK    2  A    between atoms: C_6  and  C_7 
REMARK    3  A    between atoms: C_8  and  C_9 
REMARK       I    between atoms: C_9  and  N_10 
REMARK    4  A    between atoms: N_10  and  C_11 
REMARK    5  A    between atoms: C_11  and  N_12 
REMARK    6  A    between atoms: N_12  and  C_13 
REMARK    7  A    between atoms: C_16  and  N_17 
REMARK       I    between atoms: N_20  and  C_21 
REMARK    8  A    between atoms: C_21  and  C_22 
ROOT
HETATM    1  C   UNL     1      41.260  -9.600   6.805  1.00  0.00     0.034 A 
HETATM    2  C   UNL     1      41.681  -8.512   6.051  1.00  0.00     0.032 A 
HETATM    3  C   UNL     1      41.438  -8.474   4.670  1.00  0.00     0.031 A 
HETATM    4  C   UNL     1      40.769  -9.508   3.991  1.00  0.00     0.030 A 
HETATM    5  C   UNL     1      40.440 -10.631   4.766  1.00  0.00     0.031 A 
HETATM    6  C   UNL     1      40.682 -10.682   6.146  1.00  0.00     0.032 A 
ENDROOT
BRANCH   1   7
HETATM    7  N   UNL     1      41.424  -9.708   8.201  1.00  0.00    -0.333 N 
HETATM    8  H   UNL     1      40.648 -10.157   8.677  1.00  0.00     0.168 HD
BRANCH   7   9
HETATM    9  C   UNL     1      42.543  -9.630   8.955  1.00  0.00     0.179 C 
HETATM   10  S   UNL     1      42.383  -9.617  10.621  1.00  0.00    -0.040 SA
BRANCH   9  11
HETATM   11  N   UNL     1      43.799  -9.512   8.422  1.00  0.00    -0.300 N 
HETATM   12  C   UNL     1      44.680 -10.302   7.703  1.00  0.00     0.247 C 
HETATM   13  O   UNL     1      45.860  -9.966   7.615  1.00  0.00    -0.268 OA
HETATM   14  H   UNL     1      44.201  -8.595   8.576  1.00  0.00     0.171 HD
BRANCH  12  15
HETATM   15  C   UNL     1      44.157 -11.512   7.026  1.00  0.00     0.075 C 
HETATM   16  C   UNL     1      44.062 -11.510   5.686  1.00  0.00     0.017 C 
BRANCH  16  17
HETATM   17  C   UNL     1      43.595 -12.626   4.850  1.00  0.00    -0.036 A 
HETATM   18  C   UNL     1      43.631 -12.474   3.459  1.00  0.00     0.012 A 
HETATM   19  C   UNL     1      43.257 -13.520   2.608  1.00  0.00     0.008 A 
HETATM   20  C   UNL     1      42.830 -14.747   3.126  1.00  0.00    -0.055 A 
HETATM   21  C   UNL     1      42.810 -14.906   4.519  1.00  0.00     0.008 A 
HETATM   22  C   UNL     1      43.190 -13.860   5.370  1.00  0.00     0.012 A 
BRANCH  20  23
HETATM   23  C   UNL     1      42.440 -15.912   2.231  1.00  0.00     0.010 C 
HETATM   24  C   UNL     1      40.921 -15.964   2.055  1.00  0.00     0.015 C 
HETATM   25  C   UNL     1      42.970 -17.263   2.723  1.00  0.00     0.015 C 
ENDBRANCH  20  23
ENDBRANCH  16  17
ENDBRANCH  12  15
ENDBRANCH   9  11
ENDBRANCH   7   9
ENDBRANCH   1   7
BRANCH   4  26
HETATM   26  N   UNL     1      40.517  -9.419   2.619  1.00  0.00    -0.378 N 
HETATM   27  C   UNL     1      41.200 -10.340   1.671  1.00  0.00     0.143 C 
HETATM   28  C   UNL     1      40.415 -11.660   1.540  1.00  0.00     0.146 C 
HETATM   29  N   UNL     1      39.036 -11.382   1.113  1.00  0.00    -0.343 N 
HETATM   30  C   UNL     1      38.418 -11.799  -0.065  1.00  0.00     0.277 C 
HETATM   31  C   UNL     1      38.322 -10.479   2.024  1.00  0.00     0.146 C 
HETATM   32  O   UNL     1      37.211 -11.605  -0.232  1.00  0.00    -0.265 OA
HETATM   33  C   UNL     1      39.106  -9.158   2.202  1.00  0.00     0.143 C 
BRANCH  30  34
HETATM   34  C   UNL     1      39.194 -12.479  -1.089  1.00  0.00     0.142 A 
HETATM   35  O   UNL     1      39.945 -11.777  -1.997  1.00  0.00    -0.317 OA
HETATM   36  C   UNL     1      40.508 -12.678  -2.843  1.00  0.00     0.143 A 
HETATM   37  C   UNL     1      40.111 -13.954  -2.523  1.00  0.00     0.027 A 
HETATM   38  C   UNL     1      39.248 -13.826  -1.409  1.00  0.00     0.045 A 
ENDBRANCH  30  34
ENDBRANCH   4  26
TORSDOF 8
ENDMDL
MODEL 9
REMARK VINA RESULT:      -7.0      5.655      7.915
REMARK  8 active torsions:
REMARK  status: ('A' for Active; 'I' for Inactive)
REMARK    1  A    between atoms: C_2  and  C_3 
REMARK    2  A    between atoms: C_6  and  C_7 
REMARK    3  A    between atoms: C_8  and  C_9 
REMARK       I    between atoms: C_9  and  N_10 
REMARK    4  A    between atoms: N_10  and  C_11 
REMARK    5  A    between atoms: C_11  and  N_12 
REMARK    6  A    between atoms: N_12  and  C_13 
REMARK    7  A    between atoms: C_16  and  N_17 
REMARK       I    between atoms: N_20  and  C_21 
REMARK    8  A    between atoms: C_21  and  C_22 
ROOT
HETATM    1  C   UNL     1      42.467  -9.573   8.566  1.00  0.00     0.034 A 
HETATM    2  C   UNL     1      41.118  -9.341   8.804  1.00  0.00     0.032 A 
HETATM    3  C   UNL     1      40.633  -9.290  10.120  1.00  0.00     0.031 A 
HETATM    4  C   UNL     1      41.465  -9.464  11.239  1.00  0.00     0.030 A 
HETATM    5  C   UNL     1      42.801  -9.788  10.960  1.00  0.00     0.031 A 
HETATM    6  C   UNL     1      43.297  -9.845   9.650  1.00  0.00     0.032 A 
ENDROOT
BRANCH   1   7
HETATM    7  N   UNL     1      43.051  -9.602   7.282  1.00  0.00    -0.333 N 
HETATM    8  H   UNL     1      43.650  -8.807   7.081  1.00  0.00     0.168 HD
BRANCH   7   9
HETATM    9  C   UNL     1      43.222 -10.633   6.426  1.00  0.00     0.179 C 
HETATM   10  S   UNL     1      44.065 -11.978   6.956  1.00  0.00    -0.040 SA
BRANCH   9  11
HETATM   11  N   UNL     1      42.784 -10.610   5.129  1.00  0.00    -0.300 N 
HETATM   12  C   UNL     1      42.845 -11.435   4.018  1.00  0.00     0.247 C 
HETATM   13  O   UNL     1      42.568 -10.979   2.910  1.00  0.00    -0.268 OA
HETATM   14  H   UNL     1      42.256  -9.774   4.912  1.00  0.00     0.171 HD
BRANCH  12  15
HETATM   15  C   UNL     1      43.205 -12.860   4.211  1.00  0.00     0.075 C 
HETATM   16  C   UNL     1      42.760 -13.763   3.322  1.00  0.00     0.017 C 
BRANCH  16  17
HETATM   17  C   UNL     1      43.040 -15.206   3.340  1.00  0.00    -0.036 A 
HETATM   18  C   UNL     1      42.916 -15.922   2.143  1.00  0.00     0.012 A 
HETATM   19  C   UNL     1      43.227 -17.285   2.081  1.00  0.00     0.008 A 
HETATM   20  C   UNL     1      43.665 -17.973   3.218  1.00  0.00    -0.055 A 
HETATM   21  C   UNL     1      43.805 -17.252   4.413  1.00  0.00     0.008 A 
HETATM   22  C   UNL     1      43.500 -15.886   4.473  1.00  0.00     0.012 A 
BRANCH  20  23
HETATM   23  C   UNL     1      44.034 -19.446   3.181  1.00  0.00     0.010 C 
HETATM   24  C   UNL     1      43.269 -20.160   2.065  1.00  0.00     0.015 C 
HETATM   25  C   UNL     1      43.824 -20.163   4.519  1.00  0.00     0.015 C 
ENDBRANCH  20  23
ENDBRANCH  16  17
ENDBRANCH  12  15
ENDBRANCH   9  11
ENDBRANCH   7   9
ENDBRANCH   1   7
BRANCH   4  26
HETATM   26  N   UNL     1      40.950  -9.375  12.536  1.00  0.00    -0.378 N 
HETATM   27  C   UNL     1      41.686  -8.617  13.584  1.00  0.00     0.143 C 
HETATM   28  C   UNL     1      41.313  -7.123  13.534  1.00  0.00     0.146 C 
HETATM   29  N   UNL     1      39.859  -6.965  13.684  1.00  0.00    -0.343 N 
HETATM   30  C   UNL     1      39.184  -6.303  14.709  1.00  0.00     0.277 C 
HETATM   31  C   UNL     1      39.092  -7.694  12.666  1.00  0.00     0.146 C 
HETATM   32  O   UNL     1      37.964  -6.134  14.636  1.00  0.00    -0.265 OA
HETATM   33  C   UNL     1      39.473  -9.193  12.670  1.00  0.00     0.143 C 
BRANCH  30  34
HETATM   34  C   UNL     1      39.923  -5.797  15.854  1.00  0.00     0.142 A 
HETATM   35  O   UNL     1      40.520  -4.563  15.827  1.00  0.00    -0.317 OA
HETATM   36  C   UNL     1      41.166  -4.397  17.010  1.00  0.00     0.143 A 
HETATM   37  C   UNL     1      41.027  -5.515  17.795  1.00  0.00     0.027 A 
HETATM   38  C   UNL     1      40.247  -6.426  17.044  1.00  0.00     0.045 A 
ENDBRANCH  30  34
ENDBRANCH   4  26
TORSDOF 8
ENDMDL
MODEL 10
REMARK VINA RESULT:      -7.0      2.206      2.773
REMARK  8 active torsions:
REMARK  status: ('A' for Active; 'I' for Inactive)
REMARK    1  A    between atoms: C_2  and  C_3 
REMARK    2  A    between atoms: C_6  and  C_7 
REMARK    3  A    between atoms: C_8  and  C_9 
REMARK       I    between atoms: C_9  and  N_10 
REMARK    4  A    between atoms: N_10  and  C_11 
REMARK    5  A    between atoms: C_11  and  N_12 
REMARK    6  A    between atoms: N_12  and  C_13 
REMARK    7  A    between atoms: C_16  and  N_17 
REMARK       I    between atoms: N_20  and  C_21 
REMARK    8  A    between atoms: C_21  and  C_22 
ROOT
HETATM    1  C   UNL     1      38.527 -11.579   2.366  1.00  0.00     0.034 A 
HETATM    2  C   UNL     1      38.282 -10.275   2.778  1.00  0.00     0.032 A 
HETATM    3  C   UNL     1      38.654  -9.861   4.066  1.00  0.00     0.031 A 
HETATM    4  C   UNL     1      39.280 -10.721   4.985  1.00  0.00     0.030 A 
HETATM    5  C   UNL     1      39.427 -12.052   4.570  1.00  0.00     0.031 A 
HETATM    6  C   UNL     1      39.056 -12.479   3.287  1.00  0.00     0.032 A 
ENDROOT
BRANCH   1   7
HETATM    7  N   UNL     1      38.225 -12.073   1.080  1.00  0.00    -0.333 N 
HETATM    8  H   UNL     1      37.260 -12.367   0.964  1.00  0.00     0.168 HD
BRANCH   7   9
HETATM    9  C   UNL     1      38.882 -11.913  -0.090  1.00  0.00     0.179 C 
HETATM   10  S   UNL     1      38.363 -12.786  -1.421  1.00  0.00    -0.040 SA
BRANCH   9  11
HETATM   11  N   UNL     1      39.981 -11.110  -0.229  1.00  0.00    -0.300 N 
HETATM   12  C   UNL     1      41.235 -10.989   0.347  1.00  0.00     0.247 C 
HETATM   13  O   UNL     1      41.890  -9.964   0.164  1.00  0.00    -0.268 OA
HETATM   14  H   UNL     1      39.867 -10.418  -0.960  1.00  0.00     0.171 HD
BRANCH  12  15
HETATM   15  C   UNL     1      41.766 -12.127   1.136  1.00  0.00     0.075 C 
HETATM   16  C   UNL     1      41.422 -13.375   0.777  1.00  0.00     0.017 C 
BRANCH  16  17
HETATM   17  C   UNL     1      41.874 -14.616   1.423  1.00  0.00    -0.036 A 
HETATM   18  C   UNL     1      40.931 -15.624   1.658  1.00  0.00     0.012 A 
HETATM   19  C   UNL     1      41.308 -16.851   2.215  1.00  0.00     0.008 A 
HETATM   20  C   UNL     1      42.641 -17.102   2.558  1.00  0.00    -0.055 A 
HETATM   21  C   UNL     1      43.589 -16.100   2.306  1.00  0.00     0.008 A 
HETATM   22  C   UNL     1      43.211 -14.874   1.743  1.00  0.00     0.012 A 
BRANCH  20  23
HETATM   23  C   UNL     1      43.090 -18.432   3.140  1.00  0.00     0.010 C 
HETATM   24  C   UNL     1      44.405 -18.263   3.904  1.00  0.00     0.015 C 
HETATM   25  C   UNL     1      43.216 -19.546   2.095  1.00  0.00     0.015 C 
ENDBRANCH  20  23
ENDBRANCH  16  17
ENDBRANCH  12  15
ENDBRANCH   9  11
ENDBRANCH   7   9
ENDBRANCH   1   7
BRANCH   4  26
HETATM   26  N   UNL     1      39.664 -10.262   6.250  1.00  0.00    -0.378 N 
HETATM   27  C   UNL     1      40.890 -10.797   6.899  1.00  0.00     0.143 C 
HETATM   28  C   UNL     1      42.132 -10.007   6.442  1.00  0.00     0.146 C 
HETATM   29  N   UNL     1      41.953  -8.578   6.736  1.00  0.00    -0.343 N 
HETATM   30  C   UNL     1      42.723  -7.788   7.589  1.00  0.00     0.277 C 
HETATM   31  C   UNL     1      40.754  -8.007   6.109  1.00  0.00     0.146 C 
HETATM   32  O   UNL     1      42.539  -6.570   7.637  1.00  0.00    -0.265 OA
HETATM   33  C   UNL     1      39.494  -8.803   6.523  1.00  0.00     0.143 C 
BRANCH  30  34
HETATM   34  C   UNL     1      43.756  -8.402   8.407  1.00  0.00     0.142 A 
HETATM   35  O   UNL     1      45.086  -8.234   8.120  1.00  0.00    -0.317 OA
HETATM   36  C   UNL     1      45.793  -8.961   9.024  1.00  0.00     0.143 A 
HETATM   37  C   UNL     1      44.946  -9.626   9.876  1.00  0.00     0.027 A 
HETATM   38  C   UNL     1      43.634  -9.286   9.467  1.00  0.00     0.045 A 
ENDBRANCH  30  34
ENDBRANCH   4  26
TORSDOF 8
ENDMDL
