MODEL 1
REMARK VINA RESULT:      -8.7      0.000      0.000
REMARK  10 active torsions:
REMARK  status: ('A' for Active; 'I' for Inactive)
REMARK    1  A    between atoms: C_2  and  N_3 
REMARK    2  A    between atoms: N_3  and  C_5 
REMARK    3  A    between atoms: N_3  and  C_35 
REMARK    4  A    between atoms: C_5  and  C_6 
REMARK    5  A    between atoms: C_6  and  C_7 
REMARK    6  A    between atoms: C_7  and  N_8 
REMARK       I    between atoms: N_8  and  C_9 
REMARK    7  A    between atoms: N_8  and  C_19 
REMARK       I    between atoms: C_9  and  N_10 
REMARK    8  A    between atoms: N_10  and  C_11 
REMARK    9  A    between atoms: C_19  and  C_20 
REMARK   10  A    between atoms: C_21  and  O_22 
ROOT
HETATM    1  N   UNL     1      41.829 -15.085   2.176  1.00  0.00    -0.330 N 
HETATM    2  C   UNL     1      40.667 -15.101   1.371  1.00  0.00     0.323 C 
HETATM    3  N   UNL     1      40.793 -14.371   0.209  1.00  0.00    -0.309 N 
HETATM    4  O   UNL     1      39.694 -15.804   1.639  1.00  0.00    -0.247 OA
HETATM    5  H   UNL     1      41.733 -14.243  -0.145  1.00  0.00     0.170 HD
ENDROOT
BRANCH   1   6
HETATM    6  C   UNL     1      41.931 -15.852   3.438  1.00  0.00     0.129 C 
BRANCH   6   7
HETATM    7  C   UNL     1      43.196 -16.658   3.741  1.00  0.00     0.048 C 
BRANCH   7   8
HETATM    8  C   UNL     1      43.451 -17.798   2.757  1.00  0.00     0.236 C 
BRANCH   8   9
HETATM    9  N   UNL     1      44.176 -18.946   3.438  1.00  0.00    -0.072 N 
HETATM   10  H   UNL     1      45.174 -18.769   3.216  1.00  0.00     0.279 HD
BRANCH   9  11
HETATM   11  C   UNL     1      43.872 -20.326   2.887  1.00  0.00     0.230 C 
HETATM   12  C   UNL     1      42.888 -20.287   1.730  1.00  0.00     0.034 C 
ENDBRANCH   9  11
BRANCH   9  13
HETATM   13  C   UNL     1      44.071 -18.897   4.951  1.00  0.00     0.230 C 
HETATM   14  C   UNL     1      43.973 -20.294   5.537  1.00  0.00     0.034 C 
ENDBRANCH   9  13
ENDBRANCH   8   9
ENDBRANCH   7   8
ENDBRANCH   6   7
ENDBRANCH   1   6
BRANCH   1  15
HETATM   15  C   UNL     1      42.786 -13.957   2.090  1.00  0.00     0.170 C 
BRANCH  15  16
HETATM   16  C   UNL     1      42.677 -12.902   3.162  1.00  0.00     0.013 A 
HETATM   17  C   UNL     1      41.625 -12.011   3.317  1.00  0.00     0.170 A 
HETATM   18  N   UNL     1      41.450 -11.196   4.370  1.00  0.00    -0.224 NA
HETATM   19  C   UNL     1      42.360 -11.218   5.354  1.00  0.00     0.072 A 
HETATM   20  C   UNL     1      43.496 -12.049   5.297  1.00  0.00    -0.004 A 
HETATM   21  C   UNL     1      42.179 -10.415   6.472  1.00  0.00     0.072 A 
HETATM   22  C   UNL     1      43.635 -12.895   4.187  1.00  0.00     0.027 A 
HETATM   23  C   UNL     1      44.440 -12.034   6.339  1.00  0.00     0.053 A 
HETATM   24  C   UNL     1      44.245 -11.208   7.442  1.00  0.00     0.103 A 
HETATM   25  C   UNL     1      43.097 -10.421   7.521  1.00  0.00     0.104 A 
HETATM   26  O   UNL     1      45.210 -11.235   8.412  1.00  0.00    -0.346 OA
HETATM   27  O   UNL     1      42.808  -9.626   8.600  1.00  0.00    -0.346 OA
HETATM   28  C   UNL     1      43.607  -9.979   9.737  1.00  0.00     0.202 C 
HETATM   29  C   UNL     1      45.062 -10.144   9.331  1.00  0.00     0.202 C 
BRANCH  17  30
HETATM   30  O   UNL     1      40.639 -11.895   2.385  1.00  0.00    -0.344 OA
HETATM   31  H   UNL     1      41.068 -12.062   1.535  1.00  0.00     0.219 HD
ENDBRANCH  17  30
ENDBRANCH  15  16
ENDBRANCH   1  15
BRANCH   3  32
HETATM   32  C   UNL     1      39.782 -14.035  -0.714  1.00  0.00     0.036 A 
HETATM   33  C   UNL     1      39.402 -14.856  -1.780  1.00  0.00     0.032 A 
HETATM   34  C   UNL     1      38.363 -14.464  -2.630  1.00  0.00     0.044 A 
HETATM   35  C   UNL     1      37.706 -13.260  -2.409  1.00  0.00     0.116 A 
HETATM   36  F   UNL     1      36.710 -12.891  -3.225  1.00  0.00    -0.206 F 
HETATM   37  C   UNL     1      38.063 -12.438  -1.351  1.00  0.00     0.044 A 
HETATM   38  C   UNL     1      39.100 -12.827  -0.500  1.00  0.00     0.032 A 
ENDBRANCH   3  32
TORSDOF 10
ENDMDL
MODEL 2
REMARK VINA RESULT:      -8.6      3.337      8.224
REMARK  10 active torsions:
REMARK  status: ('A' for Active; 'I' for Inactive)
REMARK    1  A    between atoms: C_2  and  N_3 
REMARK    2  A    between atoms: N_3  and  C_5 
REMARK    3  A    between atoms: N_3  and  C_35 
REMARK    4  A    between atoms: C_5  and  C_6 
REMARK    5  A    between atoms: C_6  and  C_7 
REMARK    6  A    between atoms: C_7  and  N_8 
REMARK       I    between atoms: N_8  and  C_9 
REMARK    7  A    between atoms: N_8  and  C_19 
REMARK       I    between atoms: C_9  and  N_10 
REMARK    8  A    between atoms: N_10  and  C_11 
REMARK    9  A    between atoms: C_19  and  C_20 
REMARK   10  A    between atoms: C_21  and  O_22 
ROOT
HETATM    1  N   UNL     1      42.758 -14.549   5.207  1.00  0.00    -0.330 N 
HETATM    2  C   UNL     1      43.246 -13.867   6.345  1.00  0.00     0.323 C 
HETATM    3  N   UNL     1      43.474 -12.525   6.126  1.00  0.00    -0.309 N 
HETATM    4  O   UNL     1      43.333 -14.408   7.445  1.00  0.00    -0.247 OA
HETATM    5  H   UNL     1      42.940 -12.091   5.383  1.00  0.00     0.170 HD
ENDROOT
BRANCH   1   6
HETATM    6  C   UNL     1      42.390 -15.982   5.237  1.00  0.00     0.129 C 
BRANCH   6   7
HETATM    7  C   UNL     1      42.974 -16.942   4.198  1.00  0.00     0.048 C 
BRANCH   7   8
HETATM    8  C   UNL     1      44.069 -17.854   4.748  1.00  0.00     0.236 C 
BRANCH   8   9
HETATM    9  N   UNL     1      44.283 -19.050   3.836  1.00  0.00    -0.072 N 
HETATM   10  H   UNL     1      45.275 -18.957   3.544  1.00  0.00     0.279 HD
BRANCH   9  11
HETATM   11  C   UNL     1      43.476 -19.043   2.552  1.00  0.00     0.230 C 
HETATM   12  C   UNL     1      43.497 -20.387   1.844  1.00  0.00     0.034 C 
ENDBRANCH   9  11
BRANCH   9  13
HETATM   13  C   UNL     1      44.187 -20.377   4.566  1.00  0.00     0.230 C 
HETATM   14  C   UNL     1      43.662 -20.185   5.978  1.00  0.00     0.034 C 
ENDBRANCH   9  13
ENDBRANCH   8   9
ENDBRANCH   7   8
ENDBRANCH   6   7
ENDBRANCH   1   6
BRANCH   1  15
HETATM   15  C   UNL     1      43.051 -14.042   3.845  1.00  0.00     0.170 C 
BRANCH  15  16
HETATM   16  C   UNL     1      41.866 -13.583   3.031  1.00  0.00     0.013 A 
HETATM   17  C   UNL     1      41.102 -12.452   3.281  1.00  0.00     0.170 A 
HETATM   18  N   UNL     1      40.164 -11.956   2.459  1.00  0.00    -0.224 NA
HETATM   19  C   UNL     1      39.920 -12.596   1.306  1.00  0.00     0.072 A 
HETATM   20  C   UNL     1      40.601 -13.778   0.953  1.00  0.00    -0.004 A 
HETATM   21  C   UNL     1      38.985 -12.078   0.420  1.00  0.00     0.072 A 
HETATM   22  C   UNL     1      41.582 -14.256   1.834  1.00  0.00     0.027 A 
HETATM   23  C   UNL     1      40.308 -14.433  -0.255  1.00  0.00     0.053 A 
HETATM   24  C   UNL     1      39.355 -13.903  -1.120  1.00  0.00     0.103 A 
HETATM   25  C   UNL     1      38.715 -12.708  -0.794  1.00  0.00     0.104 A 
HETATM   26  O   UNL     1      39.111 -14.600  -2.272  1.00  0.00    -0.346 OA
HETATM   27  O   UNL     1      37.807 -12.097  -1.620  1.00  0.00    -0.346 OA
HETATM   28  C   UNL     1      37.879 -12.619  -2.953  1.00  0.00     0.202 C 
HETATM   29  C   UNL     1      37.919 -14.139  -2.924  1.00  0.00     0.202 C 
BRANCH  17  30
HETATM   30  O   UNL     1      41.255 -11.719   4.418  1.00  0.00    -0.344 OA
HETATM   31  H   UNL     1      41.476 -10.826   4.120  1.00  0.00     0.219 HD
ENDBRANCH  17  30
ENDBRANCH  15  16
ENDBRANCH   1  15
BRANCH   3  32
HETATM   32  C   UNL     1      44.119 -11.608   6.981  1.00  0.00     0.036 A 
HETATM   33  C   UNL     1      43.466 -10.902   7.994  1.00  0.00     0.032 A 
HETATM   34  C   UNL     1      44.187 -10.036   8.822  1.00  0.00     0.044 A 
HETATM   35  C   UNL     1      45.557  -9.886   8.639  1.00  0.00     0.116 A 
HETATM   36  F   UNL     1      46.244  -9.058   9.437  1.00  0.00    -0.206 F 
HETATM   37  C   UNL     1      46.223 -10.587   7.644  1.00  0.00     0.044 A 
HETATM   38  C   UNL     1      45.504 -11.451   6.817  1.00  0.00     0.032 A 
ENDBRANCH   3  32
TORSDOF 10
ENDMDL
MODEL 3
REMARK VINA RESULT:      -8.6      3.224      8.064
REMARK  10 active torsions:
REMARK  status: ('A' for Active; 'I' for Inactive)
REMARK    1  A    between atoms: C_2  and  N_3 
REMARK    2  A    between atoms: N_3  and  C_5 
REMARK    3  A    between atoms: N_3  and  C_35 
REMARK    4  A    between atoms: C_5  and  C_6 
REMARK    5  A    between atoms: C_6  and  C_7 
REMARK    6  A    between atoms: C_7  and  N_8 
REMARK       I    between atoms: N_8  and  C_9 
REMARK    7  A    between atoms: N_8  and  C_19 
REMARK       I    between atoms: C_9  and  N_10 
REMARK    8  A    between atoms: N_10  and  C_11 
REMARK    9  A    between atoms: C_19  and  C_20 
REMARK   10  A    between atoms: C_21  and  O_22 
ROOT
HETATM    1  N   UNL     1      42.968 -14.835   6.494  1.00  0.00    -0.330 N 
HETATM    2  C   UNL     1      43.724 -15.932   6.022  1.00  0.00     0.323 C 
HETATM    3  N   UNL     1      43.012 -16.777   5.198  1.00  0.00    -0.309 N 
HETATM    4  O   UNL     1      44.931 -16.037   6.235  1.00  0.00    -0.247 OA
HETATM    5  H   UNL     1      42.222 -16.373   4.710  1.00  0.00     0.170 HD
ENDROOT
BRANCH   1   6
HETATM    6  C   UNL     1      43.554 -13.774   7.343  1.00  0.00     0.129 C 
BRANCH   6   7
HETATM    7  C   UNL     1      44.081 -12.487   6.702  1.00  0.00     0.048 C 
BRANCH   7   8
HETATM    8  C   UNL     1      43.005 -11.429   6.469  1.00  0.00     0.236 C 
BRANCH   8   9
HETATM    9  N   UNL     1      43.120 -10.841   5.073  1.00  0.00    -0.072 N 
HETATM   10  H   UNL     1      43.976 -10.256   5.126  1.00  0.00     0.279 HD
BRANCH   9  11
HETATM   11  C   UNL     1      42.003  -9.898   4.669  1.00  0.00     0.230 C 
HETATM   12  C   UNL     1      41.238  -9.357   5.865  1.00  0.00     0.034 C 
ENDBRANCH   9  11
BRANCH   9  13
HETATM   13  C   UNL     1      43.398 -11.889   4.011  1.00  0.00     0.230 C 
HETATM   14  C   UNL     1      42.750 -11.513   2.691  1.00  0.00     0.034 C 
ENDBRANCH   9  13
ENDBRANCH   8   9
ENDBRANCH   7   8
ENDBRANCH   6   7
ENDBRANCH   1   6
BRANCH   1  15
HETATM   15  C   UNL     1      41.493 -14.930   6.600  1.00  0.00     0.170 C 
BRANCH  15  16
HETATM   16  C   UNL     1      40.698 -14.241   5.519  1.00  0.00     0.013 A 
HETATM   17  C   UNL     1      39.938 -13.091   5.680  1.00  0.00     0.170 A 
HETATM   18  N   UNL     1      39.378 -12.388   4.683  1.00  0.00    -0.224 NA
HETATM   19  C   UNL     1      39.540 -12.822   3.425  1.00  0.00     0.072 A 
HETATM   20  C   UNL     1      40.256 -13.999   3.131  1.00  0.00    -0.004 A 
HETATM   21  C   UNL     1      39.006 -12.089   2.374  1.00  0.00     0.072 A 
HETATM   22  C   UNL     1      40.837 -14.698   4.200  1.00  0.00     0.027 A 
HETATM   23  C   UNL     1      40.391 -14.435   1.801  1.00  0.00     0.053 A 
HETATM   24  C   UNL     1      39.833 -13.692   0.766  1.00  0.00     0.103 A 
HETATM   25  C   UNL     1      39.166 -12.501   1.051  1.00  0.00     0.104 A 
HETATM   26  O   UNL     1      39.992 -14.182  -0.502  1.00  0.00    -0.346 OA
HETATM   27  O   UNL     1      38.638 -11.688   0.082  1.00  0.00    -0.346 OA
HETATM   28  C   UNL     1      39.164 -12.010  -1.212  1.00  0.00     0.202 C 
HETATM   29  C   UNL     1      39.133 -13.513  -1.436  1.00  0.00     0.202 C 
BRANCH  17  30
HETATM   30  O   UNL     1      39.702 -12.554   6.908  1.00  0.00    -0.344 OA
HETATM   31  H   UNL     1      39.652 -13.307   7.513  1.00  0.00     0.219 HD
ENDBRANCH  17  30
ENDBRANCH  15  16
ENDBRANCH   1  15
BRANCH   3  32
HETATM   32  C   UNL     1      43.404 -18.040   4.710  1.00  0.00     0.036 A 
HETATM   33  C   UNL     1      43.708 -19.129   5.532  1.00  0.00     0.032 A 
HETATM   34  C   UNL     1      44.055 -20.359   4.965  1.00  0.00     0.044 A 
HETATM   35  C   UNL     1      44.089 -20.498   3.583  1.00  0.00     0.116 A 
HETATM   36  F   UNL     1      44.419 -21.679   3.046  1.00  0.00    -0.206 F 
HETATM   37  C   UNL     1      43.780 -19.431   2.752  1.00  0.00     0.044 A 
HETATM   38  C   UNL     1      43.434 -18.202   3.316  1.00  0.00     0.032 A 
ENDBRANCH   3  32
TORSDOF 10
ENDMDL
MODEL 4
REMARK VINA RESULT:      -8.6      3.145      6.177
REMARK  10 active torsions:
REMARK  status: ('A' for Active; 'I' for Inactive)
REMARK    1  A    between atoms: C_2  and  N_3 
REMARK    2  A    between atoms: N_3  and  C_5 
REMARK    3  A    between atoms: N_3  and  C_35 
REMARK    4  A    between atoms: C_5  and  C_6 
REMARK    5  A    between atoms: C_6  and  C_7 
REMARK    6  A    between atoms: C_7  and  N_8 
REMARK       I    between atoms: N_8  and  C_9 
REMARK    7  A    between atoms: N_8  and  C_19 
REMARK       I    between atoms: C_9  and  N_10 
REMARK    8  A    between atoms: N_10  and  C_11 
REMARK    9  A    between atoms: C_19  and  C_20 
REMARK   10  A    between atoms: C_21  and  O_22 
ROOT
HETATM    1  N   UNL     1      42.048 -14.248   2.400  1.00  0.00    -0.330 N 
HETATM    2  C   UNL     1      42.029 -15.591   2.840  1.00  0.00     0.323 C 
HETATM    3  N   UNL     1      42.958 -15.862   3.823  1.00  0.00    -0.309 N 
HETATM    4  O   UNL     1      41.177 -16.393   2.462  1.00  0.00    -0.247 OA
HETATM    5  H   UNL     1      43.260 -15.077   4.388  1.00  0.00     0.170 HD
ENDROOT
BRANCH   1   6
HETATM    6  C   UNL     1      41.094 -13.729   1.395  1.00  0.00     0.129 C 
BRANCH   6   7
HETATM    7  C   UNL     1      39.869 -12.931   1.846  1.00  0.00     0.048 C 
BRANCH   7   8
HETATM    8  C   UNL     1      39.430 -13.231   3.278  1.00  0.00     0.236 C 
BRANCH   8   9
HETATM    9  N   UNL     1      39.791 -12.084   4.205  1.00  0.00    -0.072 N 
HETATM   10  H   UNL     1      40.782 -11.884   3.969  1.00  0.00     0.279 HD
BRANCH   9  11
HETATM   11  C   UNL     1      39.781 -12.413   5.685  1.00  0.00     0.230 C 
HETATM   12  C   UNL     1      40.299 -13.812   5.973  1.00  0.00     0.034 C 
ENDBRANCH   9  11
BRANCH   9  13
HETATM   13  C   UNL     1      39.026 -10.810   3.896  1.00  0.00     0.230 C 
HETATM   14  C   UNL     1      38.962  -9.903   5.111  1.00  0.00     0.034 C 
ENDBRANCH   9  13
ENDBRANCH   8   9
ENDBRANCH   7   8
ENDBRANCH   6   7
ENDBRANCH   1   6
BRANCH   1  15
HETATM   15  C   UNL     1      43.283 -13.437   2.519  1.00  0.00     0.170 C 
BRANCH  15  16
HETATM   16  C   UNL     1      43.266 -12.336   3.550  1.00  0.00     0.013 A 
HETATM   17  C   UNL     1      42.761 -11.058   3.361  1.00  0.00     0.170 A 
HETATM   18  N   UNL     1      42.589 -10.144   4.329  1.00  0.00    -0.224 NA
HETATM   19  C   UNL     1      42.941 -10.465   5.582  1.00  0.00     0.072 A 
HETATM   20  C   UNL     1      43.503 -11.717   5.899  1.00  0.00    -0.004 A 
HETATM   21  C   UNL     1      42.734  -9.552   6.607  1.00  0.00     0.072 A 
HETATM   22  C   UNL     1      43.654 -12.649   4.861  1.00  0.00     0.027 A 
HETATM   23  C   UNL     1      43.876 -12.014   7.220  1.00  0.00     0.053 A 
HETATM   24  C   UNL     1      43.674 -11.076   8.228  1.00  0.00     0.103 A 
HETATM   25  C   UNL     1      43.074  -9.855   7.924  1.00  0.00     0.104 A 
HETATM   26  O   UNL     1      44.074 -11.427   9.489  1.00  0.00    -0.346 OA
HETATM   27  O   UNL     1      42.792  -8.904   8.871  1.00  0.00    -0.346 OA
HETATM   28  C   UNL     1      42.845  -9.453  10.194  1.00  0.00     0.202 C 
HETATM   29  C   UNL     1      44.099 -10.294  10.368  1.00  0.00     0.202 C 
BRANCH  17  30
HETATM   30  O   UNL     1      42.371 -10.615   2.134  1.00  0.00    -0.344 OA
HETATM   31  H   UNL     1      43.149 -10.180   1.759  1.00  0.00     0.219 HD
ENDBRANCH  17  30
ENDBRANCH  15  16
ENDBRANCH   1  15
BRANCH   3  32
HETATM   32  C   UNL     1      43.321 -17.119   4.345  1.00  0.00     0.036 A 
HETATM   33  C   UNL     1      43.162 -17.476   5.688  1.00  0.00     0.032 A 
HETATM   34  C   UNL     1      43.516 -18.758   6.118  1.00  0.00     0.044 A 
HETATM   35  C   UNL     1      44.019 -19.679   5.208  1.00  0.00     0.116 A 
HETATM   36  F   UNL     1      44.353 -20.907   5.625  1.00  0.00    -0.206 F 
HETATM   37  C   UNL     1      44.174 -19.345   3.870  1.00  0.00     0.044 A 
HETATM   38  C   UNL     1      43.822 -18.065   3.438  1.00  0.00     0.032 A 
ENDBRANCH   3  32
TORSDOF 10
ENDMDL
MODEL 5
REMARK VINA RESULT:      -8.4      3.577      8.839
REMARK  10 active torsions:
REMARK  status: ('A' for Active; 'I' for Inactive)
REMARK    1  A    between atoms: C_2  and  N_3 
REMARK    2  A    between atoms: N_3  and  C_5 
REMARK    3  A    between atoms: N_3  and  C_35 
REMARK    4  A    between atoms: C_5  and  C_6 
REMARK    5  A    between atoms: C_6  and  C_7 
REMARK    6  A    between atoms: C_7  and  N_8 
REMARK       I    between atoms: N_8  and  C_9 
REMARK    7  A    between atoms: N_8  and  C_19 
REMARK       I    between atoms: C_9  and  N_10 
REMARK    8  A    between atoms: N_10  and  C_11 
REMARK    9  A    between atoms: C_19  and  C_20 
REMARK   10  A    between atoms: C_21  and  O_22 
ROOT
HETATM    1  N   UNL     1      41.327 -12.030   4.555  1.00  0.00    -0.330 N 
HETATM    2  C   UNL     1      42.207 -11.047   5.061  1.00  0.00     0.323 C 
HETATM    3  N   UNL     1      43.046 -11.515   6.050  1.00  0.00    -0.309 N 
HETATM    4  O   UNL     1      42.288  -9.923   4.567  1.00  0.00    -0.247 OA
HETATM    5  H   UNL     1      43.239 -12.509   6.045  1.00  0.00     0.170 HD
ENDROOT
BRANCH   1   6
HETATM    6  C   UNL     1      40.383 -11.757   3.449  1.00  0.00     0.129 C 
BRANCH   6   7
HETATM    7  C   UNL     1      40.660 -12.322   2.053  1.00  0.00     0.048 C 
BRANCH   7   8
HETATM    8  C   UNL     1      39.437 -12.331   1.138  1.00  0.00     0.236 C 
BRANCH   8   9
HETATM    9  N   UNL     1      39.429 -13.572   0.261  1.00  0.00    -0.072 N 
HETATM   10  H   UNL     1      38.506 -14.002   0.460  1.00  0.00     0.279 HD
BRANCH   9  11
HETATM   11  C   UNL     1      40.458 -14.628   0.616  1.00  0.00     0.230 C 
HETATM   12  C   UNL     1      39.823 -15.909   1.129  1.00  0.00     0.034 C 
ENDBRANCH   9  11
BRANCH   9  13
HETATM   13  C   UNL     1      39.427 -13.249  -1.221  1.00  0.00     0.230 C 
HETATM   14  C   UNL     1      38.017 -12.996  -1.724  1.00  0.00     0.034 C 
ENDBRANCH   9  13
ENDBRANCH   8   9
ENDBRANCH   7   8
ENDBRANCH   6   7
ENDBRANCH   1   6
BRANCH   1  15
HETATM   15  C   UNL     1      40.938 -13.191   5.392  1.00  0.00     0.170 C 
BRANCH  15  16
HETATM   16  C   UNL     1      41.851 -14.391   5.338  1.00  0.00     0.013 A 
HETATM   17  C   UNL     1      42.664 -14.837   6.369  1.00  0.00     0.170 A 
HETATM   18  N   UNL     1      43.337 -15.999   6.376  1.00  0.00    -0.224 NA
HETATM   19  C   UNL     1      43.241 -16.800   5.305  1.00  0.00     0.072 A 
HETATM   20  C   UNL     1      42.479 -16.443   4.175  1.00  0.00    -0.004 A 
HETATM   21  C   UNL     1      43.894 -18.025   5.306  1.00  0.00     0.072 A 
HETATM   22  C   UNL     1      41.781 -15.227   4.213  1.00  0.00     0.027 A 
HETATM   23  C   UNL     1      42.414 -17.299   3.063  1.00  0.00     0.053 A 
HETATM   24  C   UNL     1      43.091 -18.515   3.080  1.00  0.00     0.103 A 
HETATM   25  C   UNL     1      43.807 -18.891   4.217  1.00  0.00     0.104 A 
HETATM   26  O   UNL     1      42.995 -19.293   1.958  1.00  0.00    -0.346 OA
HETATM   27  O   UNL     1      44.451 -20.095   4.330  1.00  0.00    -0.346 OA
HETATM   28  C   UNL     1      44.003 -21.024   3.334  1.00  0.00     0.202 C 
HETATM   29  C   UNL     1      43.959 -20.355   1.970  1.00  0.00     0.202 C 
BRANCH  17  30
HETATM   30  O   UNL     1      42.843 -14.112   7.507  1.00  0.00    -0.344 OA
HETATM   31  H   UNL     1      42.459 -13.244   7.322  1.00  0.00     0.219 HD
ENDBRANCH  17  30
ENDBRANCH  15  16
ENDBRANCH   1  15
BRANCH   3  32
HETATM   32  C   UNL     1      43.907 -10.767   6.878  1.00  0.00     0.036 A 
HETATM   33  C   UNL     1      43.464  -9.790   7.775  1.00  0.00     0.032 A 
HETATM   34  C   UNL     1      44.382  -9.117   8.587  1.00  0.00     0.044 A 
HETATM   35  C   UNL     1      45.734  -9.426   8.505  1.00  0.00     0.116 A 
HETATM   36  F   UNL     1      46.608  -8.781   9.287  1.00  0.00    -0.206 F 
HETATM   37  C   UNL     1      46.190 -10.399   7.627  1.00  0.00     0.044 A 
HETATM   38  C   UNL     1      45.275 -11.072   6.816  1.00  0.00     0.032 A 
ENDBRANCH   3  32
TORSDOF 10
ENDMDL
MODEL 6
REMARK VINA RESULT:      -8.3      3.833      9.225
REMARK  10 active torsions:
REMARK  status: ('A' for Active; 'I' for Inactive)
REMARK    1  A    between atoms: C_2  and  N_3 
REMARK    2  A    between atoms: N_3  and  C_5 
REMARK    3  A    between atoms: N_3  and  C_35 
REMARK    4  A    between atoms: C_5  and  C_6 
REMARK    5  A    between atoms: C_6  and  C_7 
REMARK    6  A    between atoms: C_7  and  N_8 
REMARK       I    between atoms: N_8  and  C_9 
REMARK    7  A    between atoms: N_8  and  C_19 
REMARK       I    between atoms: C_9  and  N_10 
REMARK    8  A    between atoms: N_10  and  C_11 
REMARK    9  A    between atoms: C_19  and  C_20 
REMARK   10  A    between atoms: C_21  and  O_22 
ROOT
HETATM    1  N   UNL     1      41.769 -11.199   5.533  1.00  0.00    -0.330 N 
HETATM    2  C   UNL     1      42.210 -10.225   6.458  1.00  0.00     0.323 C 
HETATM    3  N   UNL     1      42.617 -10.755   7.664  1.00  0.00    -0.309 N 
HETATM    4  O   UNL     1      42.329  -9.039   6.154  1.00  0.00    -0.247 OA
HETATM    5  H   UNL     1      42.932 -11.717   7.651  1.00  0.00     0.170 HD
ENDROOT
BRANCH   1   6
HETATM    6  C   UNL     1      41.345 -10.854   4.158  1.00  0.00     0.129 C 
BRANCH   6   7
HETATM    7  C   UNL     1      42.201 -11.285   2.965  1.00  0.00     0.048 C 
BRANCH   7   8
HETATM    8  C   UNL     1      41.658 -10.817   1.616  1.00  0.00     0.236 C 
BRANCH   8   9
HETATM    9  N   UNL     1      41.572 -11.976   0.638  1.00  0.00    -0.072 N 
HETATM   10  H   UNL     1      42.464 -11.917   0.113  1.00  0.00     0.279 HD
BRANCH   9  11
HETATM   11  C   UNL     1      40.475 -11.870  -0.404  1.00  0.00     0.230 C 
HETATM   12  C   UNL     1      41.002 -12.019  -1.821  1.00  0.00     0.034 C 
ENDBRANCH   9  11
BRANCH   9  13
HETATM   13  C   UNL     1      41.582 -13.331   1.324  1.00  0.00     0.230 C 
HETATM   14  C   UNL     1      40.203 -13.964   1.302  1.00  0.00     0.034 C 
ENDBRANCH   9  13
ENDBRANCH   8   9
ENDBRANCH   7   8
ENDBRANCH   6   7
ENDBRANCH   1   6
BRANCH   1  15
HETATM   15  C   UNL     1      41.235 -12.498   6.009  1.00  0.00     0.170 C 
BRANCH  15  16
HETATM   16  C   UNL     1      42.120 -13.702   5.803  1.00  0.00     0.013 A 
HETATM   17  C   UNL     1      43.083 -14.161   6.690  1.00  0.00     0.170 A 
HETATM   18  N   UNL     1      43.742 -15.326   6.582  1.00  0.00    -0.224 NA
HETATM   19  C   UNL     1      43.474 -16.117   5.533  1.00  0.00     0.072 A 
HETATM   20  C   UNL     1      42.547 -15.747   4.540  1.00  0.00    -0.004 A 
HETATM   21  C   UNL     1      44.112 -17.345   5.422  1.00  0.00     0.072 A 
HETATM   22  C   UNL     1      41.870 -14.528   4.697  1.00  0.00     0.027 A 
HETATM   23  C   UNL     1      42.303 -16.593   3.445  1.00  0.00     0.053 A 
HETATM   24  C   UNL     1      42.967 -17.812   3.346  1.00  0.00     0.103 A 
HETATM   25  C   UNL     1      43.850 -18.201   4.353  1.00  0.00     0.104 A 
HETATM   26  O   UNL     1      42.692 -18.579   2.247  1.00  0.00    -0.346 OA
HETATM   27  O   UNL     1      44.497 -19.409   4.355  1.00  0.00    -0.346 OA
HETATM   28  C   UNL     1      43.893 -20.327   3.434  1.00  0.00     0.202 C 
HETATM   29  C   UNL     1      43.639 -19.646   2.099  1.00  0.00     0.202 C 
BRANCH  17  30
HETATM   30  O   UNL     1      43.442 -13.446   7.792  1.00  0.00    -0.344 OA
HETATM   31  H   UNL     1      42.614 -13.118   8.167  1.00  0.00     0.219 HD
ENDBRANCH  17  30
ENDBRANCH  15  16
ENDBRANCH   1  15
BRANCH   3  32
HETATM   32  C   UNL     1      42.938 -10.061   8.848  1.00  0.00     0.036 A 
HETATM   33  C   UNL     1      42.042  -9.231   9.527  1.00  0.00     0.032 A 
HETATM   34  C   UNL     1      42.430  -8.606  10.716  1.00  0.00     0.044 A 
HETATM   35  C   UNL     1      43.706  -8.818  11.224  1.00  0.00     0.116 A 
HETATM   36  F   UNL     1      44.071  -8.219  12.365  1.00  0.00    -0.206 F 
HETATM   37  C   UNL     1      44.605  -9.646  10.568  1.00  0.00     0.044 A 
HETATM   38  C   UNL     1      44.219 -10.271   9.381  1.00  0.00     0.032 A 
ENDBRANCH   3  32
TORSDOF 10
ENDMDL
MODEL 7
REMARK VINA RESULT:      -8.3      2.337      7.392
REMARK  10 active torsions:
REMARK  status: ('A' for Active; 'I' for Inactive)
REMARK    1  A    between atoms: C_2  and  N_3 
REMARK    2  A    between atoms: N_3  and  C_5 
REMARK    3  A    between atoms: N_3  and  C_35 
REMARK    4  A    between atoms: C_5  and  C_6 
REMARK    5  A    between atoms: C_6  and  C_7 
REMARK    6  A    between atoms: C_7  and  N_8 
REMARK       I    between atoms: N_8  and  C_9 
REMARK    7  A    between atoms: N_8  and  C_19 
REMARK       I    between atoms: C_9  and  N_10 
REMARK    8  A    between atoms: N_10  and  C_11 
REMARK    9  A    between atoms: C_19  and  C_20 
REMARK   10  A    between atoms: C_21  and  O_22 
ROOT
HETATM    1  N   UNL     1      41.989 -11.760   4.395  1.00  0.00    -0.330 N 
HETATM    2  C   UNL     1      41.747 -11.789   3.002  1.00  0.00     0.323 C 
HETATM    3  N   UNL     1      40.619 -12.501   2.654  1.00  0.00    -0.309 N 
HETATM    4  O   UNL     1      42.418 -11.132   2.207  1.00  0.00    -0.247 OA
HETATM    5  H   UNL     1      39.900 -12.583   3.362  1.00  0.00     0.170 HD
ENDROOT
BRANCH   1   6
HETATM    6  C   UNL     1      43.112 -11.002   4.990  1.00  0.00     0.129 C 
BRANCH   6   7
HETATM    7  C   UNL     1      43.010 -10.490   6.429  1.00  0.00     0.048 C 
BRANCH   7   8
HETATM    8  C   UNL     1      44.290 -10.674   7.241  1.00  0.00     0.236 C 
BRANCH   8   9
HETATM    9  N   UNL     1      44.149 -10.050   8.619  1.00  0.00    -0.072 N 
HETATM   10  H   UNL     1      43.990 -10.865   9.239  1.00  0.00     0.279 HD
BRANCH   9  11
HETATM   11  C   UNL     1      42.943  -9.150   8.806  1.00  0.00     0.230 C 
HETATM   12  C   UNL     1      42.243  -9.385  10.134  1.00  0.00     0.034 C 
ENDBRANCH   9  11
BRANCH   9  13
HETATM   13  C   UNL     1      45.431  -9.399   9.107  1.00  0.00     0.230 C 
HETATM   14  C   UNL     1      46.446  -9.282   7.984  1.00  0.00     0.034 C 
ENDBRANCH   9  13
ENDBRANCH   8   9
ENDBRANCH   7   8
ENDBRANCH   6   7
ENDBRANCH   1   6
BRANCH   1  15
HETATM   15  C   UNL     1      41.477 -12.843   5.268  1.00  0.00     0.170 C 
BRANCH  15  16
HETATM   16  C   UNL     1      42.275 -14.124   5.284  1.00  0.00     0.013 A 
HETATM   17  C   UNL     1      42.987 -14.620   6.366  1.00  0.00     0.170 A 
HETATM   18  N   UNL     1      43.547 -15.839   6.430  1.00  0.00    -0.224 NA
HETATM   19  C   UNL     1      43.434 -16.651   5.369  1.00  0.00     0.072 A 
HETATM   20  C   UNL     1      42.770 -16.250   4.193  1.00  0.00    -0.004 A 
HETATM   21  C   UNL     1      43.968 -17.931   5.427  1.00  0.00     0.072 A 
HETATM   22  C   UNL     1      42.187 -14.974   4.172  1.00  0.00     0.027 A 
HETATM   23  C   UNL     1      42.685 -17.121   3.093  1.00  0.00     0.053 A 
HETATM   24  C   UNL     1      43.243 -18.393   3.169  1.00  0.00     0.103 A 
HETATM   25  C   UNL     1      43.859 -18.809   4.349  1.00  0.00     0.104 A 
HETATM   26  O   UNL     1      43.135 -19.183   2.056  1.00  0.00    -0.346 OA
HETATM   27  O   UNL     1      44.381 -20.064   4.518  1.00  0.00    -0.346 OA
HETATM   28  C   UNL     1      43.902 -20.969   3.514  1.00  0.00     0.202 C 
HETATM   29  C   UNL     1      43.994 -20.329   2.139  1.00  0.00     0.202 C 
BRANCH  17  30
HETATM   30  O   UNL     1      43.171 -13.890   7.500  1.00  0.00    -0.344 OA
HETATM   31  H   UNL     1      43.094 -12.966   7.225  1.00  0.00     0.219 HD
ENDBRANCH  17  30
ENDBRANCH  15  16
ENDBRANCH   1  15
BRANCH   3  32
HETATM   32  C   UNL     1      40.198 -12.873   1.361  1.00  0.00     0.036 A 
HETATM   33  C   UNL     1      40.483 -14.111   0.780  1.00  0.00     0.032 A 
HETATM   34  C   UNL     1      39.996 -14.415  -0.496  1.00  0.00     0.044 A 
HETATM   35  C   UNL     1      39.223 -13.485  -1.180  1.00  0.00     0.116 A 
HETATM   36  F   UNL     1      38.757 -13.782  -2.400  1.00  0.00    -0.206 F 
HETATM   37  C   UNL     1      38.922 -12.255  -0.613  1.00  0.00     0.044 A 
HETATM   38  C   UNL     1      39.407 -11.950   0.660  1.00  0.00     0.032 A 
ENDBRANCH   3  32
TORSDOF 10
ENDMDL
MODEL 8
REMARK VINA RESULT:      -8.2      2.655      6.146
REMARK  10 active torsions:
REMARK  status: ('A' for Active; 'I' for Inactive)
REMARK    1  A    between atoms: C_2  and  N_3 
REMARK    2  A    between atoms: N_3  and  C_5 
REMARK    3  A    between atoms: N_3  and  C_35 
REMARK    4  A    between atoms: C_5  and  C_6 
REMARK    5  A    between atoms: C_6  and  C_7 
REMARK    6  A    between atoms: C_7  and  N_8 
REMARK       I    between atoms: N_8  and  C_9 
REMARK    7  A    between atoms: N_8  and  C_19 
REMARK       I    between atoms: C_9  and  N_10 
REMARK    8  A    between atoms: N_10  and  C_11 
REMARK    9  A    between atoms: C_19  and  C_20 
REMARK   10  A    between atoms: C_21  and  O_22 
ROOT
HETATM    1  N   UNL     1      41.043 -14.061   2.734  1.00  0.00    -0.330 N 
HETATM    2  C   UNL     1      41.262 -15.412   3.085  1.00  0.00     0.323 C 
HETATM    3  N   UNL     1      42.439 -15.618   3.773  1.00  0.00    -0.309 N 
HETATM    4  O   UNL     1      40.416 -16.284   2.896  1.00  0.00    -0.247 OA
HETATM    5  H   UNL     1      42.808 -14.826   4.285  1.00  0.00     0.170 HD
ENDROOT
BRANCH   1   6
HETATM    6  C   UNL     1      39.814 -13.609   2.045  1.00  0.00     0.129 C 
BRANCH   6   7
HETATM    7  C   UNL     1      39.853 -13.285   0.550  1.00  0.00     0.048 C 
BRANCH   7   8
HETATM    8  C   UNL     1      40.066 -14.507  -0.341  1.00  0.00     0.236 C 
BRANCH   8   9
HETATM    9  N   UNL     1      39.984 -14.126  -1.809  1.00  0.00    -0.072 N 
HETATM   10  H   UNL     1      40.854 -14.522  -2.211  1.00  0.00     0.279 HD
BRANCH   9  11
HETATM   11  C   UNL     1      40.037 -12.638  -2.100  1.00  0.00     0.230 C 
HETATM   12  C   UNL     1      41.209 -12.261  -2.990  1.00  0.00     0.034 C 
ENDBRANCH   9  11
BRANCH   9  13
HETATM   13  C   UNL     1      38.841 -14.812  -2.535  1.00  0.00     0.230 C 
HETATM   14  C   UNL     1      37.747 -13.821  -2.890  1.00  0.00     0.034 C 
ENDBRANCH   9  13
ENDBRANCH   8   9
ENDBRANCH   7   8
ENDBRANCH   6   7
ENDBRANCH   1   6
BRANCH   1  15
HETATM   15  C   UNL     1      42.187 -13.132   2.574  1.00  0.00     0.170 C 
BRANCH  15  16
HETATM   16  C   UNL     1      42.349 -12.078   3.641  1.00  0.00     0.013 A 
HETATM   17  C   UNL     1      41.577 -10.932   3.772  1.00  0.00     0.170 A 
HETATM   18  N   UNL     1      41.611 -10.092   4.818  1.00  0.00    -0.224 NA
HETATM   19  C   UNL     1      42.462 -10.353   5.821  1.00  0.00     0.072 A 
HETATM   20  C   UNL     1      43.328 -11.463   5.790  1.00  0.00    -0.004 A 
HETATM   21  C   UNL     1      42.485  -9.522   6.932  1.00  0.00     0.072 A 
HETATM   22  C   UNL     1      43.253 -12.323   4.685  1.00  0.00     0.027 A 
HETATM   23  C   UNL     1      44.220 -11.696   6.851  1.00  0.00     0.053 A 
HETATM   24  C   UNL     1      44.237 -10.840   7.948  1.00  0.00     0.103 A 
HETATM   25  C   UNL     1      43.346  -9.769   8.001  1.00  0.00     0.104 A 
HETATM   26  O   UNL     1      45.140 -11.120   8.938  1.00  0.00    -0.346 OA
HETATM   27  O   UNL     1      43.264  -8.916   9.071  1.00  0.00    -0.346 OA
HETATM   28  C   UNL     1      43.914  -9.463  10.226  1.00  0.00     0.202 C 
HETATM   29  C   UNL     1      45.277 -10.022   9.851  1.00  0.00     0.202 C 
BRANCH  17  30
HETATM   30  O   UNL     1      40.678 -10.560   2.819  1.00  0.00    -0.344 OA
HETATM   31  H   UNL     1      41.196 -10.105   2.141  1.00  0.00     0.219 HD
ENDBRANCH  17  30
ENDBRANCH  15  16
ENDBRANCH   1  15
BRANCH   3  32
HETATM   32  C   UNL     1      43.039 -16.849   4.109  1.00  0.00     0.036 A 
HETATM   33  C   UNL     1      43.171 -17.315   5.420  1.00  0.00     0.032 A 
HETATM   34  C   UNL     1      43.748 -18.565   5.664  1.00  0.00     0.044 A 
HETATM   35  C   UNL     1      44.184 -19.345   4.600  1.00  0.00     0.116 A 
HETATM   36  F   UNL     1      44.733 -20.542   4.839  1.00  0.00    -0.206 F 
HETATM   37  C   UNL     1      44.052 -18.902   3.292  1.00  0.00     0.044 A 
HETATM   38  C   UNL     1      43.476 -17.654   3.046  1.00  0.00     0.032 A 
ENDBRANCH   3  32
TORSDOF 10
ENDMDL
MODEL 9
REMARK VINA RESULT:      -8.2      3.177      8.329
REMARK  10 active torsions:
REMARK  status: ('A' for Active; 'I' for Inactive)
REMARK    1  A    between atoms: C_2  and  N_3 
REMARK    2  A    between atoms: N_3  and  C_5 
REMARK    3  A    between atoms: N_3  and  C_35 
REMARK    4  A    between atoms: C_5  and  C_6 
REMARK    5  A    between atoms: C_6  and  C_7 
REMARK    6  A    between atoms: C_7  and  N_8 
REMARK       I    between atoms: N_8  and  C_9 
REMARK    7  A    between atoms: N_8  and  C_19 
REMARK       I    between atoms: C_9  and  N_10 
REMARK    8  A    between atoms: N_10  and  C_11 
REMARK    9  A    between atoms: C_19  and  C_20 
REMARK   10  A    between atoms: C_21  and  O_22 
ROOT
HETATM    1  N   UNL     1      42.440 -14.222   4.484  1.00  0.00    -0.330 N 
HETATM    2  C   UNL     1      42.370 -15.630   4.589  1.00  0.00     0.323 C 
HETATM    3  N   UNL     1      43.381 -16.283   3.916  1.00  0.00    -0.309 N 
HETATM    4  O   UNL     1      41.554 -16.193   5.317  1.00  0.00    -0.247 OA
HETATM    5  H   UNL     1      44.236 -15.761   3.767  1.00  0.00     0.170 HD
ENDROOT
BRANCH   1   6
HETATM    6  C   UNL     1      41.490 -13.326   5.180  1.00  0.00     0.129 C 
BRANCH   6   7
HETATM    7  C   UNL     1      42.016 -12.181   6.048  1.00  0.00     0.048 C 
BRANCH   7   8
HETATM    8  C   UNL     1      43.291 -12.525   6.816  1.00  0.00     0.236 C 
BRANCH   8   9
HETATM    9  N   UNL     1      43.707 -11.373   7.715  1.00  0.00    -0.072 N 
HETATM   10  H   UNL     1      43.425 -11.690   8.661  1.00  0.00     0.279 HD
BRANCH   9  11
HETATM   11  C   UNL     1      42.970 -10.068   7.484  1.00  0.00     0.230 C 
HETATM   12  C   UNL     1      43.586  -8.909   8.250  1.00  0.00     0.034 C 
ENDBRANCH   9  11
BRANCH   9  13
HETATM   13  C   UNL     1      45.211 -11.181   7.772  1.00  0.00     0.230 C 
HETATM   14  C   UNL     1      45.820 -11.226   6.382  1.00  0.00     0.034 C 
ENDBRANCH   9  13
ENDBRANCH   8   9
ENDBRANCH   7   8
ENDBRANCH   6   7
ENDBRANCH   1   6
BRANCH   1  15
HETATM   15  C   UNL     1      43.110 -13.589   3.323  1.00  0.00     0.170 C 
BRANCH  15  16
HETATM   16  C   UNL     1      42.266 -12.659   2.488  1.00  0.00     0.013 A 
HETATM   17  C   UNL     1      42.445 -11.288   2.369  1.00  0.00     0.170 A 
HETATM   18  N   UNL     1      41.805 -10.497   1.494  1.00  0.00    -0.224 NA
HETATM   19  C   UNL     1      40.905 -11.052   0.670  1.00  0.00     0.072 A 
HETATM   20  C   UNL     1      40.601 -12.427   0.718  1.00  0.00    -0.004 A 
HETATM   21  C   UNL     1      40.260 -10.262  -0.272  1.00  0.00     0.072 A 
HETATM   22  C   UNL     1      41.302 -13.221   1.638  1.00  0.00     0.027 A 
HETATM   23  C   UNL     1      39.639 -12.973  -0.149  1.00  0.00     0.053 A 
HETATM   24  C   UNL     1      38.994 -12.157  -1.074  1.00  0.00     0.103 A 
HETATM   25  C   UNL     1      39.329 -10.806  -1.155  1.00  0.00     0.104 A 
HETATM   26  O   UNL     1      38.059 -12.753  -1.878  1.00  0.00    -0.346 OA
HETATM   27  O   UNL     1      38.778  -9.953  -2.077  1.00  0.00    -0.346 OA
HETATM   28  C   UNL     1      38.131 -10.673  -3.134  1.00  0.00     0.202 C 
HETATM   29  C   UNL     1      37.259 -11.780  -2.563  1.00  0.00     0.202 C 
BRANCH  17  30
HETATM   30  O   UNL     1      43.330 -10.610   3.151  1.00  0.00    -0.344 OA
HETATM   31  H   UNL     1      44.069 -11.218   3.289  1.00  0.00     0.219 HD
ENDBRANCH  17  30
ENDBRANCH  15  16
ENDBRANCH   1  15
BRANCH   3  32
HETATM   32  C   UNL     1      43.502 -17.665   3.670  1.00  0.00     0.036 A 
HETATM   33  C   UNL     1      43.152 -18.271   2.460  1.00  0.00     0.032 A 
HETATM   34  C   UNL     1      43.336 -19.646   2.285  1.00  0.00     0.044 A 
HETATM   35  C   UNL     1      43.875 -20.407   3.315  1.00  0.00     0.116 A 
HETATM   36  F   UNL     1      44.053 -21.723   3.142  1.00  0.00    -0.206 F 
HETATM   37  C   UNL     1      44.237 -19.821   4.519  1.00  0.00     0.044 A 
HETATM   38  C   UNL     1      44.054 -18.448   4.696  1.00  0.00     0.032 A 
ENDBRANCH   3  32
TORSDOF 10
ENDMDL
MODEL 10
REMARK VINA RESULT:      -7.7      2.930      6.942
REMARK  10 active torsions:
REMARK  status: ('A' for Active; 'I' for Inactive)
REMARK    1  A    between atoms: C_2  and  N_3 
REMARK    2  A    between atoms: N_3  and  C_5 
REMARK    3  A    between atoms: N_3  and  C_35 
REMARK    4  A    between atoms: C_5  and  C_6 
REMARK    5  A    between atoms: C_6  and  C_7 
REMARK    6  A    between atoms: C_7  and  N_8 
REMARK       I    between atoms: N_8  and  C_9 
REMARK    7  A    between atoms: N_8  and  C_19 
REMARK       I    between atoms: C_9  and  N_10 
REMARK    8  A    between atoms: N_10  and  C_11 
REMARK    9  A    between atoms: C_19  and  C_20 
REMARK   10  A    between atoms: C_21  and  O_22 
ROOT
HETATM    1  N   UNL     1      41.542 -11.667   2.945  1.00  0.00    -0.330 N 
HETATM    2  C   UNL     1      41.078 -10.797   1.931  1.00  0.00     0.323 C 
HETATM    3  N   UNL     1      41.520 -11.136   0.670  1.00  0.00    -0.309 N 
HETATM    4  O   UNL     1      40.259  -9.907   2.156  1.00  0.00    -0.247 OA
HETATM    5  H   UNL     1      41.767 -12.107   0.524  1.00  0.00     0.170 HD
ENDROOT
BRANCH   1   6
HETATM    6  C   UNL     1      41.139 -11.521   4.361  1.00  0.00     0.129 C 
BRANCH   6   7
HETATM    7  C   UNL     1      41.811 -10.465   5.242  1.00  0.00     0.048 C 
BRANCH   7   8
HETATM    8  C   UNL     1      42.339 -11.012   6.567  1.00  0.00     0.236 C 
BRANCH   8   9
HETATM    9  N   UNL     1      43.850 -10.873   6.645  1.00  0.00    -0.072 N 
HETATM   10  H   UNL     1      44.101 -10.446   5.733  1.00  0.00     0.279 HD
BRANCH   9  11
HETATM   11  C   UNL     1      44.621 -12.177   6.713  1.00  0.00     0.230 C 
HETATM   12  C   UNL     1      43.711 -13.386   6.843  1.00  0.00     0.034 C 
ENDBRANCH   9  11
BRANCH   9  13
HETATM   13  C   UNL     1      44.299  -9.884   7.705  1.00  0.00     0.230 C 
HETATM   14  C   UNL     1      45.385 -10.480   8.582  1.00  0.00     0.034 C 
ENDBRANCH   9  13
ENDBRANCH   8   9
ENDBRANCH   7   8
ENDBRANCH   6   7
ENDBRANCH   1   6
BRANCH   1  15
HETATM   15  C   UNL     1      42.801 -12.427   2.763  1.00  0.00     0.170 C 
BRANCH  15  16
HETATM   16  C   UNL     1      42.669 -13.924   2.640  1.00  0.00     0.013 A 
HETATM   17  C   UNL     1      42.271 -14.612   1.503  1.00  0.00     0.170 A 
HETATM   18  N   UNL     1      42.323 -15.944   1.347  1.00  0.00    -0.224 NA
HETATM   19  C   UNL     1      42.778 -16.690   2.364  1.00  0.00     0.072 A 
HETATM   20  C   UNL     1      43.175 -16.116   3.587  1.00  0.00    -0.004 A 
HETATM   21  C   UNL     1      42.880 -18.066   2.212  1.00  0.00     0.072 A 
HETATM   22  C   UNL     1      43.118 -14.719   3.705  1.00  0.00     0.027 A 
HETATM   23  C   UNL     1      43.631 -16.929   4.639  1.00  0.00     0.053 A 
HETATM   24  C   UNL     1      43.709 -18.308   4.468  1.00  0.00     0.103 A 
HETATM   25  C   UNL     1      43.362 -18.873   3.242  1.00  0.00     0.104 A 
HETATM   26  O   UNL     1      44.149 -19.040   5.538  1.00  0.00    -0.346 OA
HETATM   27  O   UNL     1      43.465 -20.215   2.980  1.00  0.00    -0.346 OA
HETATM   28  C   UNL     1      44.289 -20.874   3.950  1.00  0.00     0.202 C 
HETATM   29  C   UNL     1      43.902 -20.441   5.355  1.00  0.00     0.202 C 
BRANCH  17  30
HETATM   30  O   UNL     1      41.790 -13.966   0.406  1.00  0.00    -0.344 OA
HETATM   31  H   UNL     1      41.490 -13.104   0.726  1.00  0.00     0.219 HD
ENDBRANCH  17  30
ENDBRANCH  15  16
ENDBRANCH   1  15
BRANCH   3  32
HETATM   32  C   UNL     1      41.394 -10.390  -0.519  1.00  0.00     0.036 A 
HETATM   33  C   UNL     1      41.994  -9.144  -0.719  1.00  0.00     0.032 A 
HETATM   34  C   UNL     1      41.848  -8.485  -1.943  1.00  0.00     0.044 A 
HETATM   35  C   UNL     1      41.110  -9.075  -2.962  1.00  0.00     0.116 A 
HETATM   36  F   UNL     1      40.975  -8.440  -4.134  1.00  0.00    -0.206 F 
HETATM   37  C   UNL     1      40.515 -10.315  -2.784  1.00  0.00     0.044 A 
HETATM   38  C   UNL     1      40.660 -10.975  -1.562  1.00  0.00     0.032 A 
ENDBRANCH   3  32
TORSDOF 10
ENDMDL
