MODEL 1
REMARK VINA RESULT:      -8.0      0.000      0.000
REMARK  4 active torsions:
REMARK  status: ('A' for Active; 'I' for Inactive)
REMARK    1  A    between atoms: C_2  and  C_3 
REMARK    2  A    between atoms: C_5  and  C_6 
REMARK       I    between atoms: C_6  and  N_7 
REMARK    3  A    between atoms: N_7  and  C_8 
REMARK    4  A    between atoms: C_10  and  C_11 
ROOT
HETATM    1  C   UNL     1      42.536 -15.719   2.630  1.00  0.00     0.035 A 
HETATM    2  C   UNL     1      42.838 -17.081   2.539  1.00  0.00     0.042 A 
HETATM    3  C   UNL     1      43.398 -17.775   3.626  1.00  0.00    -0.021 A 
HETATM    4  C   UNL     1      43.671 -17.074   4.807  1.00  0.00     0.012 A 
HETATM    5  C   UNL     1      43.379 -15.713   4.906  1.00  0.00     0.003 A 
HETATM    6  C   UNL     1      42.811 -15.041   3.824  1.00  0.00     0.029 A 
ENDROOT
BRANCH   1   7
HETATM    7  N   UNL     1      41.950 -14.970   1.592  1.00  0.00    -0.321 N 
HETATM    8  C   UNL     1      40.656 -15.035   1.106  1.00  0.00     0.279 C 
HETATM    9  O   UNL     1      39.789 -15.816   1.484  1.00  0.00    -0.265 OA
HETATM   10  H   UNL     1      42.538 -14.286   1.126  1.00  0.00     0.169 HD
BRANCH   8  11
HETATM   11  C   UNL     1      40.405 -14.057   0.060  1.00  0.00     0.143 A 
HETATM   12  O   UNL     1      39.517 -14.357  -0.943  1.00  0.00    -0.310 OA
HETATM   13  C   UNL     1      39.496 -13.292  -1.794  1.00  0.00     0.053 A 
HETATM   14  C   UNL     1      40.343 -12.304  -1.341  1.00  0.00     0.036 A 
HETATM   15  C   UNL     1      40.930 -12.797  -0.152  1.00  0.00     0.045 A 
BRANCH  13  16
HETATM   16  C   UNL     1      38.618 -13.413  -2.983  1.00  0.00     0.060 C 
HETATM   17  C   UNL     1      38.380 -14.870  -3.350  1.00  0.00     0.012 C 
ENDBRANCH  13  16
ENDBRANCH   8  11
ENDBRANCH   1   7
BRANCH   3  18
HETATM   18  C   UNL     1      43.689 -19.198   3.541  1.00  0.00     0.010 A 
HETATM   19  C   UNL     1      43.615 -20.099   2.452  1.00  0.00     0.152 A 
HETATM   20  N   UNL     1      43.994 -21.340   2.775  1.00  0.00    -0.187 NA
HETATM   21  N   UNL     1      44.311 -21.240   4.076  1.00  0.00    -0.289 N 
HETATM   22  H   UNL     1      44.634 -22.072   4.557  1.00  0.00     0.188 HD
HETATM   23  C   UNL     1      44.152 -19.982   4.579  1.00  0.00     0.123 A 
ENDBRANCH   3  18
TORSDOF 4
ENDMDL
MODEL 2
REMARK VINA RESULT:      -7.7      2.649      7.680
REMARK  4 active torsions:
REMARK  status: ('A' for Active; 'I' for Inactive)
REMARK    1  A    between atoms: C_2  and  C_3 
REMARK    2  A    between atoms: C_5  and  C_6 
REMARK       I    between atoms: C_6  and  N_7 
REMARK    3  A    between atoms: N_7  and  C_8 
REMARK    4  A    between atoms: C_10  and  C_11 
ROOT
HETATM    1  C   UNL     1      40.719 -14.498   1.443  1.00  0.00     0.035 A 
HETATM    2  C   UNL     1      40.141 -14.707   0.188  1.00  0.00     0.042 A 
HETATM    3  C   UNL     1      39.402 -13.693  -0.449  1.00  0.00    -0.021 A 
HETATM    4  C   UNL     1      39.234 -12.467   0.206  1.00  0.00     0.012 A 
HETATM    5  C   UNL     1      39.803 -12.251   1.461  1.00  0.00     0.003 A 
HETATM    6  C   UNL     1      40.545 -13.261   2.074  1.00  0.00     0.029 A 
ENDROOT
BRANCH   1   7
HETATM    7  N   UNL     1      41.493 -15.457   2.124  1.00  0.00    -0.321 N 
HETATM    8  C   UNL     1      42.871 -15.557   2.202  1.00  0.00     0.279 C 
HETATM    9  O   UNL     1      43.674 -14.825   1.631  1.00  0.00    -0.265 OA
HETATM   10  H   UNL     1      40.993 -16.179   2.631  1.00  0.00     0.169 HD
BRANCH   8  11
HETATM   11  C   UNL     1      43.302 -16.655   3.050  1.00  0.00     0.143 A 
HETATM   12  O   UNL     1      43.376 -17.922   2.526  1.00  0.00    -0.310 OA
HETATM   13  C   UNL     1      43.772 -18.752   3.533  1.00  0.00     0.053 A 
HETATM   14  C   UNL     1      43.973 -18.033   4.691  1.00  0.00     0.036 A 
HETATM   15  C   UNL     1      43.668 -16.686   4.382  1.00  0.00     0.045 A 
BRANCH  13  16
HETATM   16  C   UNL     1      43.887 -20.192   3.197  1.00  0.00     0.060 C 
HETATM   17  C   UNL     1      43.548 -20.448   1.736  1.00  0.00     0.012 C 
ENDBRANCH  13  16
ENDBRANCH   8  11
ENDBRANCH   1   7
BRANCH   3  18
HETATM   18  C   UNL     1      38.820 -13.901  -1.766  1.00  0.00     0.010 A 
HETATM   19  C   UNL     1      39.061 -14.896  -2.743  1.00  0.00     0.152 A 
HETATM   20  N   UNL     1      38.297 -14.755  -3.831  1.00  0.00    -0.187 NA
HETATM   21  N   UNL     1      37.563 -13.665  -3.557  1.00  0.00    -0.289 N 
HETATM   22  H   UNL     1      36.892 -13.350  -4.249  1.00  0.00     0.188 HD
HETATM   23  C   UNL     1      37.833 -13.121  -2.335  1.00  0.00     0.123 A 
ENDBRANCH   3  18
TORSDOF 4
ENDMDL
MODEL 3
REMARK VINA RESULT:      -7.7      2.204      3.140
REMARK  4 active torsions:
REMARK  status: ('A' for Active; 'I' for Inactive)
REMARK    1  A    between atoms: C_2  and  C_3 
REMARK    2  A    between atoms: C_5  and  C_6 
REMARK       I    between atoms: C_6  and  N_7 
REMARK    3  A    between atoms: N_7  and  C_8 
REMARK    4  A    between atoms: C_10  and  C_11 
ROOT
HETATM    1  C   UNL     1      42.488 -16.228   2.499  1.00  0.00     0.035 A 
HETATM    2  C   UNL     1      42.545 -15.910   3.859  1.00  0.00     0.042 A 
HETATM    3  C   UNL     1      43.161 -16.774   4.782  1.00  0.00    -0.021 A 
HETATM    4  C   UNL     1      43.705 -17.979   4.320  1.00  0.00     0.012 A 
HETATM    5  C   UNL     1      43.648 -18.308   2.966  1.00  0.00     0.003 A 
HETATM    6  C   UNL     1      43.046 -17.434   2.060  1.00  0.00     0.029 A 
ENDROOT
BRANCH   1   7
HETATM    7  N   UNL     1      41.911 -15.397   1.520  1.00  0.00    -0.321 N 
HETATM    8  C   UNL     1      40.573 -15.230   1.209  1.00  0.00     0.279 C 
HETATM    9  O   UNL     1      39.639 -15.836   1.724  1.00  0.00    -0.265 OA
HETATM   10  H   UNL     1      42.544 -14.837   0.957  1.00  0.00     0.169 HD
BRANCH   8  11
HETATM   11  C   UNL     1      40.363 -14.236   0.170  1.00  0.00     0.143 A 
HETATM   12  O   UNL     1      39.554 -14.537  -0.897  1.00  0.00    -0.310 OA
HETATM   13  C   UNL     1      39.558 -13.453  -1.724  1.00  0.00     0.053 A 
HETATM   14  C   UNL     1      40.341 -12.452  -1.193  1.00  0.00     0.036 A 
HETATM   15  C   UNL     1      40.862 -12.956   0.023  1.00  0.00     0.045 A 
BRANCH  13  16
HETATM   16  C   UNL     1      38.766 -13.571  -2.973  1.00  0.00     0.060 C 
HETATM   17  C   UNL     1      38.351 -15.011  -3.231  1.00  0.00     0.012 C 
ENDBRANCH  13  16
ENDBRANCH   8  11
ENDBRANCH   1   7
BRANCH   3  18
HETATM   18  C   UNL     1      43.244 -16.433   6.194  1.00  0.00     0.010 A 
HETATM   19  C   UNL     1      42.942 -15.232   6.880  1.00  0.00     0.152 A 
HETATM   20  N   UNL     1      43.129 -15.324   8.200  1.00  0.00    -0.187 NA
HETATM   21  N   UNL     1      43.555 -16.586   8.367  1.00  0.00    -0.289 N 
HETATM   22  H   UNL     1      43.769 -16.902   9.306  1.00  0.00     0.188 HD
HETATM   23  C   UNL     1      43.635 -17.291   7.202  1.00  0.00     0.123 A 
ENDBRANCH   3  18
TORSDOF 4
ENDMDL
MODEL 4
REMARK VINA RESULT:      -7.6      3.763      6.467
REMARK  4 active torsions:
REMARK  status: ('A' for Active; 'I' for Inactive)
REMARK    1  A    between atoms: C_2  and  C_3 
REMARK    2  A    between atoms: C_5  and  C_6 
REMARK       I    between atoms: C_6  and  N_7 
REMARK    3  A    between atoms: N_7  and  C_8 
REMARK    4  A    between atoms: C_10  and  C_11 
ROOT
HETATM    1  C   UNL     1      43.259 -15.304   3.797  1.00  0.00     0.035 A 
HETATM    2  C   UNL     1      43.535 -16.591   4.271  1.00  0.00     0.042 A 
HETATM    3  C   UNL     1      43.438 -17.711   3.426  1.00  0.00    -0.021 A 
HETATM    4  C   UNL     1      43.038 -17.523   2.098  1.00  0.00     0.012 A 
HETATM    5  C   UNL     1      42.755 -16.244   1.618  1.00  0.00     0.003 A 
HETATM    6  C   UNL     1      42.869 -15.141   2.463  1.00  0.00     0.029 A 
ENDROOT
BRANCH   1   7
HETATM    7  N   UNL     1      43.363 -14.138   4.579  1.00  0.00    -0.321 N 
HETATM    8  C   UNL     1      42.588 -13.751   5.658  1.00  0.00     0.279 C 
HETATM    9  O   UNL     1      41.617 -14.360   6.096  1.00  0.00    -0.265 OA
HETATM   10  H   UNL     1      44.100 -13.483   4.337  1.00  0.00     0.169 HD
BRANCH   8  11
HETATM   11  C   UNL     1      43.040 -12.502   6.248  1.00  0.00     0.143 A 
HETATM   12  O   UNL     1      44.331 -12.402   6.705  1.00  0.00    -0.310 OA
HETATM   13  C   UNL     1      44.476 -11.151   7.229  1.00  0.00     0.053 A 
HETATM   14  C   UNL     1      43.304 -10.440   7.096  1.00  0.00     0.036 A 
HETATM   15  C   UNL     1      42.379 -11.309   6.469  1.00  0.00     0.045 A 
BRANCH  13  16
HETATM   16  C   UNL     1      45.799 -10.831   7.818  1.00  0.00     0.060 C 
HETATM   17  C   UNL     1      45.922  -9.346   8.127  1.00  0.00     0.012 C 
ENDBRANCH  13  16
ENDBRANCH   8  11
ENDBRANCH   1   7
BRANCH   3  18
HETATM   18  C   UNL     1      43.749 -19.048   3.911  1.00  0.00     0.010 A 
HETATM   19  C   UNL     1      44.082 -19.514   5.205  1.00  0.00     0.152 A 
HETATM   20  N   UNL     1      44.277 -20.836   5.249  1.00  0.00    -0.187 NA
HETATM   21  N   UNL     1      44.072 -21.223   3.980  1.00  0.00    -0.289 N 
HETATM   22  H   UNL     1      44.164 -22.208   3.757  1.00  0.00     0.188 HD
HETATM   23  C   UNL     1      43.748 -20.195   3.143  1.00  0.00     0.123 A 
ENDBRANCH   3  18
TORSDOF 4
ENDMDL
MODEL 5
REMARK VINA RESULT:      -7.5      5.075      8.230
REMARK  4 active torsions:
REMARK  status: ('A' for Active; 'I' for Inactive)
REMARK    1  A    between atoms: C_2  and  C_3 
REMARK    2  A    between atoms: C_5  and  C_6 
REMARK       I    between atoms: C_6  and  N_7 
REMARK    3  A    between atoms: N_7  and  C_8 
REMARK    4  A    between atoms: C_10  and  C_11 
ROOT
HETATM    1  C   UNL     1      42.992 -14.072   5.974  1.00  0.00     0.035 A 
HETATM    2  C   UNL     1      43.996 -13.208   6.423  1.00  0.00     0.042 A 
HETATM    3  C   UNL     1      43.739 -11.840   6.627  1.00  0.00    -0.021 A 
HETATM    4  C   UNL     1      42.458 -11.345   6.353  1.00  0.00     0.012 A 
HETATM    5  C   UNL     1      41.452 -12.199   5.900  1.00  0.00     0.003 A 
HETATM    6  C   UNL     1      41.718 -13.556   5.715  1.00  0.00     0.029 A 
ENDROOT
BRANCH   1   7
HETATM    7  N   UNL     1      43.174 -15.454   5.775  1.00  0.00    -0.321 N 
HETATM    8  C   UNL     1      43.379 -16.135   4.588  1.00  0.00     0.279 C 
HETATM    9  O   UNL     1      43.391 -15.633   3.469  1.00  0.00    -0.265 OA
HETATM   10  H   UNL     1      43.156 -16.046   6.599  1.00  0.00     0.169 HD
BRANCH   8  11
HETATM   11  C   UNL     1      43.583 -17.559   4.793  1.00  0.00     0.143 A 
HETATM   12  O   UNL     1      43.680 -18.389   3.703  1.00  0.00    -0.310 OA
HETATM   13  C   UNL     1      43.836 -19.658   4.176  1.00  0.00     0.053 A 
HETATM   14  C   UNL     1      43.860 -19.653   5.554  1.00  0.00     0.036 A 
HETATM   15  C   UNL     1      43.694 -18.305   5.950  1.00  0.00     0.045 A 
BRANCH  13  16
HETATM   16  C   UNL     1      43.930 -20.736   3.161  1.00  0.00     0.060 C 
HETATM   17  C   UNL     1      43.372 -20.283   1.820  1.00  0.00     0.012 C 
ENDBRANCH  13  16
ENDBRANCH   8  11
ENDBRANCH   1   7
BRANCH   3  18
HETATM   18  C   UNL     1      44.775 -10.945   7.118  1.00  0.00     0.010 A 
HETATM   19  C   UNL     1      44.706  -9.834   7.993  1.00  0.00     0.152 A 
HETATM   20  N   UNL     1      45.899  -9.276   8.222  1.00  0.00    -0.187 NA
HETATM   21  N   UNL     1      46.740 -10.026   7.491  1.00  0.00    -0.289 N 
HETATM   22  H   UNL     1      47.726  -9.793   7.502  1.00  0.00     0.188 HD
HETATM   23  C   UNL     1      46.119 -11.038   6.818  1.00  0.00     0.123 A 
ENDBRANCH   3  18
TORSDOF 4
ENDMDL
MODEL 6
REMARK VINA RESULT:      -7.0      2.637      7.961
REMARK  4 active torsions:
REMARK  status: ('A' for Active; 'I' for Inactive)
REMARK    1  A    between atoms: C_2  and  C_3 
REMARK    2  A    between atoms: C_5  and  C_6 
REMARK       I    between atoms: C_6  and  N_7 
REMARK    3  A    between atoms: N_7  and  C_8 
REMARK    4  A    between atoms: C_10  and  C_11 
ROOT
HETATM    1  C   UNL     1      41.048 -13.965   0.981  1.00  0.00     0.035 A 
HETATM    2  C   UNL     1      40.287 -14.320  -0.137  1.00  0.00     0.042 A 
HETATM    3  C   UNL     1      39.647 -13.342  -0.919  1.00  0.00    -0.021 A 
HETATM    4  C   UNL     1      39.765 -11.997  -0.550  1.00  0.00     0.012 A 
HETATM    5  C   UNL     1      40.517 -11.634   0.568  1.00  0.00     0.003 A 
HETATM    6  C   UNL     1      41.158 -12.613   1.326  1.00  0.00     0.029 A 
ENDROOT
BRANCH   1   7
HETATM    7  N   UNL     1      41.736 -14.888   1.791  1.00  0.00    -0.321 N 
HETATM    8  C   UNL     1      41.216 -15.814   2.678  1.00  0.00     0.279 C 
HETATM    9  O   UNL     1      40.028 -15.955   2.948  1.00  0.00    -0.265 OA
HETATM   10  H   UNL     1      42.749 -14.892   1.729  1.00  0.00     0.169 HD
BRANCH   8  11
HETATM   11  C   UNL     1      42.245 -16.636   3.291  1.00  0.00     0.143 A 
HETATM   12  O   UNL     1      42.634 -16.376   4.582  1.00  0.00    -0.310 OA
HETATM   13  C   UNL     1      43.621 -17.265   4.892  1.00  0.00     0.053 A 
HETATM   14  C   UNL     1      43.857 -18.104   3.826  1.00  0.00     0.036 A 
HETATM   15  C   UNL     1      42.976 -17.698   2.796  1.00  0.00     0.045 A 
BRANCH  13  16
HETATM   16  C   UNL     1      44.219 -17.144   6.244  1.00  0.00     0.060 C 
HETATM   17  C   UNL     1      43.231 -16.548   7.235  1.00  0.00     0.012 C 
ENDBRANCH  13  16
ENDBRANCH   8  11
ENDBRANCH   1   7
BRANCH   3  18
HETATM   18  C   UNL     1      38.875 -13.708  -2.098  1.00  0.00     0.010 A 
HETATM   19  C   UNL     1      39.038 -14.765  -3.024  1.00  0.00     0.152 A 
HETATM   20  N   UNL     1      38.095 -14.778  -3.972  1.00  0.00    -0.187 NA
HETATM   21  N   UNL     1      37.324 -13.725  -3.658  1.00  0.00    -0.289 N 
HETATM   22  H   UNL     1      36.522 -13.523  -4.245  1.00  0.00     0.188 HD
HETATM   23  C   UNL     1      37.743 -13.057  -2.545  1.00  0.00     0.123 A 
ENDBRANCH   3  18
TORSDOF 4
ENDMDL
MODEL 7
REMARK VINA RESULT:      -6.9      4.707      8.469
REMARK  4 active torsions:
REMARK  status: ('A' for Active; 'I' for Inactive)
REMARK    1  A    between atoms: C_2  and  C_3 
REMARK    2  A    between atoms: C_5  and  C_6 
REMARK       I    between atoms: C_6  and  N_7 
REMARK    3  A    between atoms: N_7  and  C_8 
REMARK    4  A    between atoms: C_10  and  C_11 
ROOT
HETATM    1  C   UNL     1      42.850 -14.045   4.509  1.00  0.00     0.035 A 
HETATM    2  C   UNL     1      42.080 -13.673   3.403  1.00  0.00     0.042 A 
HETATM    3  C   UNL     1      41.381 -14.634   2.649  1.00  0.00    -0.021 A 
HETATM    4  C   UNL     1      41.484 -15.982   3.012  1.00  0.00     0.012 A 
HETATM    5  C   UNL     1      42.255 -16.363   4.111  1.00  0.00     0.003 A 
HETATM    6  C   UNL     1      42.930 -15.398   4.857  1.00  0.00     0.029 A 
ENDROOT
BRANCH   1   7
HETATM    7  N   UNL     1      43.551 -13.134   5.322  1.00  0.00    -0.321 N 
HETATM    8  C   UNL     1      43.713 -13.152   6.696  1.00  0.00     0.279 C 
HETATM    9  O   UNL     1      43.215 -13.968   7.464  1.00  0.00    -0.265 OA
HETATM   10  H   UNL     1      44.007 -12.355   4.858  1.00  0.00     0.169 HD
BRANCH   8  11
HETATM   11  C   UNL     1      44.557 -12.067   7.171  1.00  0.00     0.143 A 
HETATM   12  O   UNL     1      44.363 -11.567   8.434  1.00  0.00    -0.310 OA
HETATM   13  C   UNL     1      45.257 -10.552   8.607  1.00  0.00     0.053 A 
HETATM   14  C   UNL     1      46.036 -10.407   7.480  1.00  0.00     0.036 A 
HETATM   15  C   UNL     1      45.584 -11.379   6.556  1.00  0.00     0.045 A 
BRANCH  13  16
HETATM   16  C   UNL     1      45.203  -9.837   9.905  1.00  0.00     0.060 C 
HETATM   17  C   UNL     1      44.120 -10.408  10.807  1.00  0.00     0.012 C 
ENDBRANCH  13  16
ENDBRANCH   8  11
ENDBRANCH   1   7
BRANCH   3  18
HETATM   18  C   UNL     1      40.559 -14.247   1.513  1.00  0.00     0.010 A 
HETATM   19  C   UNL     1      40.299 -14.904   0.287  1.00  0.00     0.152 A 
HETATM   20  N   UNL     1      39.458 -14.225  -0.501  1.00  0.00    -0.187 NA
HETATM   21  N   UNL     1      39.179 -13.125   0.217  1.00  0.00    -0.289 N 
HETATM   22  H   UNL     1      38.547 -12.440  -0.180  1.00  0.00     0.188 HD
HETATM   23  C   UNL     1      39.806 -13.093   1.428  1.00  0.00     0.123 A 
ENDBRANCH   3  18
TORSDOF 4
ENDMDL
MODEL 8
REMARK VINA RESULT:      -6.9      8.668     11.706
REMARK  4 active torsions:
REMARK  status: ('A' for Active; 'I' for Inactive)
REMARK    1  A    between atoms: C_2  and  C_3 
REMARK    2  A    between atoms: C_5  and  C_6 
REMARK       I    between atoms: C_6  and  N_7 
REMARK    3  A    between atoms: N_7  and  C_8 
REMARK    4  A    between atoms: C_10  and  C_11 
ROOT
HETATM    1  C   UNL     1      44.254 -10.408   8.881  1.00  0.00     0.035 A 
HETATM    2  C   UNL     1      43.662 -11.229   7.917  1.00  0.00     0.042 A 
HETATM    3  C   UNL     1      44.379 -11.650   6.782  1.00  0.00    -0.021 A 
HETATM    4  C   UNL     1      45.700 -11.215   6.618  1.00  0.00     0.012 A 
HETATM    5  C   UNL     1      46.297 -10.391   7.572  1.00  0.00     0.003 A 
HETATM    6  C   UNL     1      45.579  -9.993   8.699  1.00  0.00     0.029 A 
ENDROOT
BRANCH   1   7
HETATM    7  N   UNL     1      43.604  -9.973  10.052  1.00  0.00    -0.321 N 
HETATM    8  C   UNL     1      43.558 -10.587  11.291  1.00  0.00     0.279 C 
HETATM    9  O   UNL     1      44.055 -11.673  11.570  1.00  0.00    -0.265 OA
HETATM   10  H   UNL     1      43.099  -9.095  10.001  1.00  0.00     0.169 HD
BRANCH   8  11
HETATM   11  C   UNL     1      42.832  -9.800  12.274  1.00  0.00     0.143 A 
HETATM   12  O   UNL     1      43.404  -8.658  12.777  1.00  0.00    -0.310 OA
HETATM   13  C   UNL     1      42.533  -8.140  13.690  1.00  0.00     0.053 A 
HETATM   14  C   UNL     1      41.402  -8.921  13.765  1.00  0.00     0.036 A 
HETATM   15  C   UNL     1      41.595  -9.991  12.858  1.00  0.00     0.045 A 
BRANCH  13  16
HETATM   16  C   UNL     1      42.966  -6.906  14.391  1.00  0.00     0.060 C 
HETATM   17  C   UNL     1      42.390  -6.839  15.798  1.00  0.00     0.012 C 
ENDBRANCH  13  16
ENDBRANCH   8  11
ENDBRANCH   1   7
BRANCH   3  18
HETATM   18  C   UNL     1      43.773 -12.525   5.790  1.00  0.00     0.010 A 
HETATM   19  C   UNL     1      43.455 -12.307   4.428  1.00  0.00     0.152 A 
HETATM   20  N   UNL     1      42.921 -13.381   3.839  1.00  0.00    -0.187 NA
HETATM   21  N   UNL     1      42.891 -14.294   4.824  1.00  0.00    -0.289 N 
HETATM   22  H   UNL     1      42.518 -15.213   4.616  1.00  0.00     0.188 HD
HETATM   23  C   UNL     1      43.394 -13.834   6.006  1.00  0.00     0.123 A 
ENDBRANCH   3  18
TORSDOF 4
ENDMDL
MODEL 9
REMARK VINA RESULT:      -6.9      6.717      9.441
REMARK  4 active torsions:
REMARK  status: ('A' for Active; 'I' for Inactive)
REMARK    1  A    between atoms: C_2  and  C_3 
REMARK    2  A    between atoms: C_5  and  C_6 
REMARK       I    between atoms: C_6  and  N_7 
REMARK    3  A    between atoms: N_7  and  C_8 
REMARK    4  A    between atoms: C_10  and  C_11 
ROOT
HETATM    1  C   UNL     1      44.727 -11.464   7.583  1.00  0.00     0.035 A 
HETATM    2  C   UNL     1      44.055 -10.925   8.685  1.00  0.00     0.042 A 
HETATM    3  C   UNL     1      44.517  -9.756   9.316  1.00  0.00    -0.021 A 
HETATM    4  C   UNL     1      45.681  -9.144   8.836  1.00  0.00     0.012 A 
HETATM    5  C   UNL     1      46.362  -9.678   7.742  1.00  0.00     0.003 A 
HETATM    6  C   UNL     1      45.884 -10.830   7.117  1.00  0.00     0.029 A 
ENDROOT
BRANCH   1   7
HETATM    7  N   UNL     1      44.305 -12.613   6.889  1.00  0.00    -0.321 N 
HETATM    8  C   UNL     1      43.298 -12.731   5.946  1.00  0.00     0.279 C 
HETATM    9  O   UNL     1      42.551 -11.829   5.584  1.00  0.00    -0.265 OA
HETATM   10  H   UNL     1      44.792 -13.481   7.090  1.00  0.00     0.169 HD
BRANCH   8  11
HETATM   11  C   UNL     1      43.197 -14.076   5.406  1.00  0.00     0.143 A 
HETATM   12  O   UNL     1      43.199 -14.256   4.045  1.00  0.00    -0.310 OA
HETATM   13  C   UNL     1      43.063 -15.594   3.816  1.00  0.00     0.053 A 
HETATM   14  C   UNL     1      42.995 -16.277   5.010  1.00  0.00     0.036 A 
HETATM   15  C   UNL     1      43.077 -15.301   6.032  1.00  0.00     0.045 A 
BRANCH  13  16
HETATM   16  C   UNL     1      43.007 -16.020   2.396  1.00  0.00     0.060 C 
HETATM   17  C   UNL     1      43.053 -17.535   2.271  1.00  0.00     0.012 C 
ENDBRANCH  13  16
ENDBRANCH   8  11
ENDBRANCH   1   7
BRANCH   3  18
HETATM   18  C   UNL     1      43.804  -9.180  10.446  1.00  0.00     0.010 A 
HETATM   19  C   UNL     1      43.198  -7.912  10.614  1.00  0.00     0.152 A 
HETATM   20  N   UNL     1      42.614  -7.767  11.808  1.00  0.00    -0.187 NA
HETATM   21  N   UNL     1      42.846  -8.944  12.413  1.00  0.00    -0.289 N 
HETATM   22  H   UNL     1      42.491  -9.080  13.353  1.00  0.00     0.188 HD
HETATM   23  C   UNL     1      43.547  -9.823  11.640  1.00  0.00     0.123 A 
ENDBRANCH   3  18
TORSDOF 4
ENDMDL
MODEL 10
REMARK VINA RESULT:      -6.8      3.480      4.428
REMARK  4 active torsions:
REMARK  status: ('A' for Active; 'I' for Inactive)
REMARK    1  A    between atoms: C_2  and  C_3 
REMARK    2  A    between atoms: C_5  and  C_6 
REMARK       I    between atoms: C_6  and  N_7 
REMARK    3  A    between atoms: N_7  and  C_8 
REMARK    4  A    between atoms: C_10  and  C_11 
ROOT
HETATM    1  C   UNL     1      42.499 -14.777   5.305  1.00  0.00     0.035 A 
HETATM    2  C   UNL     1      42.544 -15.870   4.435  1.00  0.00     0.042 A 
HETATM    3  C   UNL     1      43.480 -16.904   4.616  1.00  0.00    -0.021 A 
HETATM    4  C   UNL     1      44.389 -16.814   5.677  1.00  0.00     0.012 A 
HETATM    5  C   UNL     1      44.356 -15.724   6.547  1.00  0.00     0.003 A 
HETATM    6  C   UNL     1      43.412 -14.713   6.363  1.00  0.00     0.029 A 
ENDROOT
BRANCH   1   7
HETATM    7  N   UNL     1      41.571 -13.724   5.198  1.00  0.00    -0.321 N 
HETATM    8  C   UNL     1      40.350 -13.581   5.834  1.00  0.00     0.279 C 
HETATM    9  O   UNL     1      39.836 -14.403   6.586  1.00  0.00    -0.265 OA
HETATM   10  H   UNL     1      41.811 -12.956   4.579  1.00  0.00     0.169 HD
BRANCH   8  11
HETATM   11  C   UNL     1      39.699 -12.322   5.513  1.00  0.00     0.143 A 
HETATM   12  O   UNL     1      39.489 -11.989   4.198  1.00  0.00    -0.310 OA
HETATM   13  C   UNL     1      38.898 -10.760   4.183  1.00  0.00     0.053 A 
HETATM   14  C   UNL     1      38.707 -10.309   5.470  1.00  0.00     0.036 A 
HETATM   15  C   UNL     1      39.225 -11.310   6.325  1.00  0.00     0.045 A 
BRANCH  13  16
HETATM   16  C   UNL     1      38.606 -10.182   2.848  1.00  0.00     0.060 C 
HETATM   17  C   UNL     1      38.038 -11.230   1.904  1.00  0.00     0.012 C 
ENDBRANCH  13  16
ENDBRANCH   8  11
ENDBRANCH   1   7
BRANCH   3  18
HETATM   18  C   UNL     1      43.513 -18.055   3.726  1.00  0.00     0.010 A 
HETATM   19  C   UNL     1      44.069 -19.345   3.895  1.00  0.00     0.152 A 
HETATM   20  N   UNL     1      43.867 -20.142   2.840  1.00  0.00    -0.187 NA
HETATM   21  N   UNL     1      43.182 -19.364   1.988  1.00  0.00    -0.289 N 
HETATM   22  H   UNL     1      42.906 -19.755   1.095  1.00  0.00     0.188 HD
HETATM   23  C   UNL     1      42.939 -18.111   2.472  1.00  0.00     0.123 A 
ENDBRANCH   3  18
TORSDOF 4
ENDMDL
