MODEL 1
REMARK VINA RESULT:      -9.1      0.000      0.000
REMARK  3 active torsions:
REMARK  status: ('A' for Active; 'I' for Inactive)
REMARK    1  A    between atoms: C_7  and  C_8 
REMARK       I    between atoms: C_8  and  N_9 
REMARK    2  A    between atoms: N_9  and  C_10 
REMARK    3  A    between atoms: C_18  and  N_19 
ROOT
HETATM    1  C   UNL     1      42.409 -14.715   3.215  1.00  0.00     0.262 C 
HETATM    2  N   UNL     1      41.112 -14.752   2.757  1.00  0.00    -0.305 N 
HETATM    3  O   UNL     1      43.142 -13.733   3.279  1.00  0.00    -0.267 OA
HETATM    4  H   UNL     1      40.643 -15.653   2.719  1.00  0.00     0.170 HD
ENDROOT
BRANCH   2   5
HETATM    5  C   UNL     1      40.363 -13.660   2.369  1.00  0.00     0.163 A 
HETATM    6  N   UNL     1      39.919 -12.704   3.186  1.00  0.00    -0.155 NA
HETATM    7  N   UNL     1      39.226 -11.877   2.398  1.00  0.00    -0.275 N 
HETATM    8  H   UNL     1      38.788 -11.068   2.826  1.00  0.00     0.189 HD
HETATM    9  C   UNL     1      39.203 -12.245   1.079  1.00  0.00     0.064 A 
HETATM   10  C   UNL     1      39.947 -13.419   1.023  1.00  0.00     0.042 A 
HETATM   11  C   UNL     1      38.605 -11.652  -0.037  1.00  0.00     0.034 A 
HETATM   12  C   UNL     1      40.124 -14.055  -0.223  1.00  0.00     0.053 A 
HETATM   13  C   UNL     1      39.540 -13.467  -1.360  1.00  0.00     0.103 A 
HETATM   14  C   UNL     1      38.788 -12.285  -1.270  1.00  0.00     0.038 A 
BRANCH  13  15
HETATM   15  N   UNL     1      39.731 -14.099  -2.672  1.00  0.00    -0.116 N 
HETATM   16  O   UNL     1      38.937 -14.991  -3.003  1.00  0.00    -0.532 OA
HETATM   17  O   UNL     1      40.672 -13.702  -3.374  1.00  0.00    -0.532 OA
ENDBRANCH  13  15
ENDBRANCH   2   5
BRANCH   1  18
HETATM   18  C   UNL     1      42.924 -16.051   3.654  1.00  0.00     0.098 C 
HETATM   19  C   UNL     1      43.245 -16.229   4.947  1.00  0.00     0.109 C 
HETATM   20  N   UNL     1      43.712 -17.396   5.497  1.00  0.00    -0.364 N 
HETATM   21  C   UNL     1      43.760 -18.571   4.737  1.00  0.00     0.046 A 
HETATM   22  H   UNL     1      43.749 -17.465   6.509  1.00  0.00     0.165 HD
HETATM   23  C   UNL     1      43.478 -18.528   3.361  1.00  0.00     0.042 A 
HETATM   24  C   UNL     1      44.149 -19.784   5.310  1.00  0.00     0.030 A 
HETATM   25  C   UNL     1      43.549 -19.684   2.577  1.00  0.00     0.018 A 
HETATM   26  C   UNL     1      43.090 -17.228   2.753  1.00  0.00     0.201 C 
HETATM   27  C   UNL     1      43.917 -20.893   3.167  1.00  0.00     0.001 A 
HETATM   28  C   UNL     1      44.219 -20.942   4.529  1.00  0.00     0.002 A 
HETATM   29  O   UNL     1      42.903 -17.129   1.541  1.00  0.00    -0.286 OA
ENDBRANCH   1  18
TORSDOF 3
ENDMDL
MODEL 2
REMARK VINA RESULT:      -9.1      4.845      8.104
REMARK  3 active torsions:
REMARK  status: ('A' for Active; 'I' for Inactive)
REMARK    1  A    between atoms: C_7  and  C_8 
REMARK       I    between atoms: C_8  and  N_9 
REMARK    2  A    between atoms: N_9  and  C_10 
REMARK    3  A    between atoms: C_18  and  N_19 
ROOT
HETATM    1  C   UNL     1      43.725 -11.856   4.641  1.00  0.00     0.262 C 
HETATM    2  N   UNL     1      43.089 -13.076   4.597  1.00  0.00    -0.305 N 
HETATM    3  O   UNL     1      44.344 -11.313   3.730  1.00  0.00    -0.267 OA
HETATM    4  H   UNL     1      42.655 -13.420   5.450  1.00  0.00     0.170 HD
ENDROOT
BRANCH   2   5
HETATM    5  C   UNL     1      42.951 -13.874   3.481  1.00  0.00     0.163 A 
HETATM    6  N   UNL     1      42.642 -13.437   2.259  1.00  0.00    -0.155 NA
HETATM    7  N   UNL     1      42.588 -14.540   1.507  1.00  0.00    -0.275 N 
HETATM    8  H   UNL     1      42.357 -14.435   0.525  1.00  0.00     0.189 HD
HETATM    9  C   UNL     1      42.862 -15.697   2.185  1.00  0.00     0.064 A 
HETATM   10  C   UNL     1      43.110 -15.295   3.493  1.00  0.00     0.042 A 
HETATM   11  C   UNL     1      42.913 -17.029   1.761  1.00  0.00     0.034 A 
HETATM   12  C   UNL     1      43.440 -16.269   4.457  1.00  0.00     0.053 A 
HETATM   13  C   UNL     1      43.508 -17.614   4.047  1.00  0.00     0.103 A 
HETATM   14  C   UNL     1      43.245 -17.990   2.721  1.00  0.00     0.038 A 
BRANCH  13  15
HETATM   15  N   UNL     1      43.873 -18.644   5.028  1.00  0.00    -0.116 N 
HETATM   16  O   UNL     1      43.583 -18.438   6.216  1.00  0.00    -0.532 OA
HETATM   17  O   UNL     1      44.446 -19.661   4.613  1.00  0.00    -0.532 OA
ENDBRANCH  13  15
ENDBRANCH   2   5
BRANCH   1  18
HETATM   18  C   UNL     1      43.627 -11.180   5.974  1.00  0.00     0.098 C 
HETATM   19  C   UNL     1      42.420 -10.781   6.410  1.00  0.00     0.109 C 
HETATM   20  N   UNL     1      42.172 -10.164   7.610  1.00  0.00    -0.364 N 
HETATM   21  C   UNL     1      43.190 -10.027   8.563  1.00  0.00     0.046 A 
HETATM   22  H   UNL     1      41.207 -10.072   7.909  1.00  0.00     0.165 HD
HETATM   23  C   UNL     1      44.510 -10.378   8.233  1.00  0.00     0.042 A 
HETATM   24  C   UNL     1      42.930  -9.482   9.822  1.00  0.00     0.030 A 
HETATM   25  C   UNL     1      45.548 -10.220   9.157  1.00  0.00     0.018 A 
HETATM   26  C   UNL     1      44.785 -10.932   6.880  1.00  0.00     0.201 C 
HETATM   27  C   UNL     1      45.269  -9.697  10.420  1.00  0.00     0.001 A 
HETATM   28  C   UNL     1      43.964  -9.326  10.750  1.00  0.00     0.002 A 
HETATM   29  O   UNL     1      45.935 -11.186   6.524  1.00  0.00    -0.286 OA
ENDBRANCH   1  18
TORSDOF 3
ENDMDL
MODEL 3
REMARK VINA RESULT:      -9.0      2.284      8.032
REMARK  3 active torsions:
REMARK  status: ('A' for Active; 'I' for Inactive)
REMARK    1  A    between atoms: C_7  and  C_8 
REMARK       I    between atoms: C_8  and  N_9 
REMARK    2  A    between atoms: N_9  and  C_10 
REMARK    3  A    between atoms: C_18  and  N_19 
ROOT
HETATM    1  C   UNL     1      40.824 -15.013   1.984  1.00  0.00     0.262 C 
HETATM    2  N   UNL     1      42.155 -14.964   2.329  1.00  0.00    -0.305 N 
HETATM    3  O   UNL     1      39.923 -15.580   2.596  1.00  0.00    -0.267 OA
HETATM    4  H   UNL     1      42.797 -14.494   1.696  1.00  0.00     0.170 HD
ENDROOT
BRANCH   2   5
HETATM    5  C   UNL     1      42.707 -15.472   3.487  1.00  0.00     0.163 A 
HETATM    6  N   UNL     1      42.903 -14.781   4.610  1.00  0.00    -0.155 NA
HETATM    7  N   UNL     1      43.479 -15.648   5.448  1.00  0.00    -0.275 N 
HETATM    8  H   UNL     1      43.724 -15.321   6.377  1.00  0.00     0.189 HD
HETATM    9  C   UNL     1      43.663 -16.899   4.924  1.00  0.00     0.064 A 
HETATM   10  C   UNL     1      43.162 -16.820   3.628  1.00  0.00     0.042 A 
HETATM   11  C   UNL     1      44.212 -18.062   5.472  1.00  0.00     0.034 A 
HETATM   12  C   UNL     1      43.196 -17.969   2.811  1.00  0.00     0.053 A 
HETATM   13  C   UNL     1      43.734 -19.153   3.350  1.00  0.00     0.103 A 
HETATM   14  C   UNL     1      44.239 -19.199   4.658  1.00  0.00     0.038 A 
BRANCH  13  15
HETATM   15  N   UNL     1      43.759 -20.368   2.526  1.00  0.00    -0.116 N 
HETATM   16  O   UNL     1      43.533 -20.248   1.313  1.00  0.00    -0.532 OA
HETATM   17  O   UNL     1      44.006 -21.443   3.090  1.00  0.00    -0.532 OA
ENDBRANCH  13  15
ENDBRANCH   2   5
BRANCH   1  18
HETATM   18  C   UNL     1      40.511 -14.291   0.710  1.00  0.00     0.098 C 
HETATM   19  C   UNL     1      39.797 -14.925  -0.235  1.00  0.00     0.109 C 
HETATM   20  N   UNL     1      39.423 -14.389  -1.442  1.00  0.00    -0.364 N 
HETATM   21  C   UNL     1      39.654 -13.037  -1.722  1.00  0.00     0.046 A 
HETATM   22  H   UNL     1      38.738 -14.894  -1.996  1.00  0.00     0.165 HD
HETATM   23  C   UNL     1      40.414 -12.257  -0.833  1.00  0.00     0.042 A 
HETATM   24  C   UNL     1      39.198 -12.458  -2.909  1.00  0.00     0.030 A 
HETATM   25  C   UNL     1      40.684 -10.913  -1.108  1.00  0.00     0.018 A 
HETATM   26  C   UNL     1      40.919 -12.887   0.416  1.00  0.00     0.201 C 
HETATM   27  C   UNL     1      40.202 -10.342  -2.285  1.00  0.00     0.001 A 
HETATM   28  C   UNL     1      39.464 -11.114  -3.185  1.00  0.00     0.002 A 
HETATM   29  O   UNL     1      41.646 -12.263   1.187  1.00  0.00    -0.286 OA
ENDBRANCH   1  18
TORSDOF 3
ENDMDL
MODEL 4
REMARK VINA RESULT:      -8.1      4.768      8.234
REMARK  3 active torsions:
REMARK  status: ('A' for Active; 'I' for Inactive)
REMARK    1  A    between atoms: C_7  and  C_8 
REMARK       I    between atoms: C_8  and  N_9 
REMARK    2  A    between atoms: N_9  and  C_10 
REMARK    3  A    between atoms: C_18  and  N_19 
ROOT
HETATM    1  C   UNL     1      42.378 -13.032   5.248  1.00  0.00     0.262 C 
HETATM    2  N   UNL     1      43.191 -13.202   4.151  1.00  0.00    -0.305 N 
HETATM    3  O   UNL     1      41.331 -13.626   5.490  1.00  0.00    -0.267 OA
HETATM    4  H   UNL     1      44.007 -12.601   4.062  1.00  0.00     0.170 HD
ENDROOT
BRANCH   2   5
HETATM    5  C   UNL     1      43.022 -14.147   3.160  1.00  0.00     0.163 A 
HETATM    6  N   UNL     1      42.702 -13.882   1.893  1.00  0.00    -0.155 NA
HETATM    7  N   UNL     1      42.615 -15.079   1.306  1.00  0.00    -0.275 N 
HETATM    8  H   UNL     1      42.371 -15.109   0.322  1.00  0.00     0.189 HD
HETATM    9  C   UNL     1      42.879 -16.134   2.137  1.00  0.00     0.064 A 
HETATM   10  C   UNL     1      43.154 -15.555   3.372  1.00  0.00     0.042 A 
HETATM   11  C   UNL     1      42.899 -17.512   1.907  1.00  0.00     0.034 A 
HETATM   12  C   UNL     1      43.481 -16.390   4.460  1.00  0.00     0.053 A 
HETATM   13  C   UNL     1      43.519 -17.780   4.245  1.00  0.00     0.103 A 
HETATM   14  C   UNL     1      43.228 -18.335   2.989  1.00  0.00     0.038 A 
BRANCH  13  15
HETATM   15  N   UNL     1      43.880 -18.668   5.358  1.00  0.00    -0.116 N 
HETATM   16  O   UNL     1      43.632 -18.280   6.508  1.00  0.00    -0.532 OA
HETATM   17  O   UNL     1      44.407 -19.755   5.082  1.00  0.00    -0.532 OA
ENDBRANCH  13  15
ENDBRANCH   2   5
BRANCH   1  18
HETATM   18  C   UNL     1      42.872 -11.987   6.201  1.00  0.00     0.098 C 
HETATM   19  C   UNL     1      44.011 -12.215   6.877  1.00  0.00     0.109 C 
HETATM   20  N   UNL     1      44.592 -11.349   7.769  1.00  0.00    -0.364 N 
HETATM   21  C   UNL     1      44.086 -10.054   7.936  1.00  0.00     0.046 A 
HETATM   22  H   UNL     1      45.537 -11.549   8.081  1.00  0.00     0.165 HD
HETATM   23  C   UNL     1      42.883  -9.686   7.310  1.00  0.00     0.042 A 
HETATM   24  C   UNL     1      44.721  -9.134   8.773  1.00  0.00     0.030 A 
HETATM   25  C   UNL     1      42.342  -8.409   7.488  1.00  0.00     0.018 A 
HETATM   26  C   UNL     1      42.197 -10.680   6.442  1.00  0.00     0.201 C 
HETATM   27  C   UNL     1      43.000  -7.493   8.308  1.00  0.00     0.001 A 
HETATM   28  C   UNL     1      44.184  -7.855   8.951  1.00  0.00     0.002 A 
HETATM   29  O   UNL     1      41.107 -10.426   5.931  1.00  0.00    -0.286 OA
ENDBRANCH   1  18
TORSDOF 3
ENDMDL
MODEL 5
REMARK VINA RESULT:      -8.1      2.504      3.476
REMARK  3 active torsions:
REMARK  status: ('A' for Active; 'I' for Inactive)
REMARK    1  A    between atoms: C_7  and  C_8 
REMARK       I    between atoms: C_8  and  N_9 
REMARK    2  A    between atoms: N_9  and  C_10 
REMARK    3  A    between atoms: C_18  and  N_19 
ROOT
HETATM    1  C   UNL     1      40.358 -14.318   1.707  1.00  0.00     0.262 C 
HETATM    2  N   UNL     1      40.668 -14.632   0.404  1.00  0.00    -0.305 N 
HETATM    3  O   UNL     1      39.549 -13.479   2.092  1.00  0.00    -0.267 OA
HETATM    4  H   UNL     1      41.398 -15.320   0.238  1.00  0.00     0.170 HD
ENDROOT
BRANCH   2   5
HETATM    5  C   UNL     1      40.052 -14.118  -0.718  1.00  0.00     0.163 A 
HETATM    6  N   UNL     1      39.152 -14.762  -1.462  1.00  0.00    -0.155 NA
HETATM    7  N   UNL     1      38.851 -13.910  -2.447  1.00  0.00    -0.275 N 
HETATM    8  H   UNL     1      38.177 -14.208  -3.143  1.00  0.00     0.189 HD
HETATM    9  C   UNL     1      39.512 -12.714  -2.377  1.00  0.00     0.064 A 
HETATM   10  C   UNL     1      40.314 -12.815  -1.245  1.00  0.00     0.042 A 
HETATM   11  C   UNL     1      39.468 -11.582  -3.196  1.00  0.00     0.034 A 
HETATM   12  C   UNL     1      41.127 -11.721  -0.884  1.00  0.00     0.053 A 
HETATM   13  C   UNL     1      41.087 -10.567  -1.689  1.00  0.00     0.103 A 
HETATM   14  C   UNL     1      40.273 -10.499  -2.831  1.00  0.00     0.038 A 
BRANCH  13  15
HETATM   15  N   UNL     1      41.908  -9.407  -1.321  1.00  0.00    -0.116 N 
HETATM   16  O   UNL     1      42.383  -9.376  -0.176  1.00  0.00    -0.532 OA
HETATM   17  O   UNL     1      42.081  -8.527  -2.175  1.00  0.00    -0.532 OA
ENDBRANCH  13  15
ENDBRANCH   2   5
BRANCH   1  18
HETATM   18  C   UNL     1      41.135 -15.111   2.713  1.00  0.00     0.098 C 
HETATM   19  C   UNL     1      40.820 -14.993   4.014  1.00  0.00     0.109 C 
HETATM   20  N   UNL     1      41.429 -15.664   5.044  1.00  0.00    -0.364 N 
HETATM   21  C   UNL     1      42.373 -16.664   4.780  1.00  0.00     0.046 A 
HETATM   22  H   UNL     1      40.993 -15.632   5.959  1.00  0.00     0.165 HD
HETATM   23  C   UNL     1      42.819 -16.878   3.465  1.00  0.00     0.042 A 
HETATM   24  C   UNL     1      42.936 -17.415   5.815  1.00  0.00     0.030 A 
HETATM   25  C   UNL     1      43.784 -17.850   3.183  1.00  0.00     0.018 A 
HETATM   26  C   UNL     1      42.237 -16.056   2.371  1.00  0.00     0.201 C 
HETATM   27  C   UNL     1      44.319 -18.609   4.223  1.00  0.00     0.001 A 
HETATM   28  C   UNL     1      43.898 -18.390   5.536  1.00  0.00     0.002 A 
HETATM   29  O   UNL     1      42.647 -16.160   1.216  1.00  0.00    -0.286 OA
ENDBRANCH   1  18
TORSDOF 3
ENDMDL
MODEL 6
REMARK VINA RESULT:      -8.0      2.733      8.340
REMARK  3 active torsions:
REMARK  status: ('A' for Active; 'I' for Inactive)
REMARK    1  A    between atoms: C_7  and  C_8 
REMARK       I    between atoms: C_8  and  N_9 
REMARK    2  A    between atoms: N_9  and  C_10 
REMARK    3  A    between atoms: C_18  and  N_19 
ROOT
HETATM    1  C   UNL     1      40.746 -15.287   1.236  1.00  0.00     0.262 C 
HETATM    2  N   UNL     1      42.104 -15.488   1.345  1.00  0.00    -0.305 N 
HETATM    3  O   UNL     1      39.865 -15.819   1.906  1.00  0.00    -0.267 OA
HETATM    4  H   UNL     1      42.713 -15.010   0.686  1.00  0.00     0.170 HD
ENDROOT
BRANCH   2   5
HETATM    5  C   UNL     1      42.730 -16.263   2.299  1.00  0.00     0.163 A 
HETATM    6  N   UNL     1      43.132 -17.522   2.122  1.00  0.00    -0.155 NA
HETATM    7  N   UNL     1      43.652 -17.883   3.299  1.00  0.00    -0.275 N 
HETATM    8  H   UNL     1      44.018 -18.824   3.388  1.00  0.00     0.189 HD
HETATM    9  C   UNL     1      43.620 -16.901   4.252  1.00  0.00     0.064 A 
HETATM   10  C   UNL     1      43.019 -15.814   3.625  1.00  0.00     0.042 A 
HETATM   11  C   UNL     1      44.062 -16.883   5.578  1.00  0.00     0.034 A 
HETATM   12  C   UNL     1      42.846 -14.617   4.350  1.00  0.00     0.053 A 
HETATM   13  C   UNL     1      43.296 -14.575   5.683  1.00  0.00     0.103 A 
HETATM   14  C   UNL     1      43.892 -15.691   6.290  1.00  0.00     0.038 A 
BRANCH  13  15
HETATM   15  N   UNL     1      43.148 -13.332   6.451  1.00  0.00    -0.116 N 
HETATM   16  O   UNL     1      42.407 -12.453   5.988  1.00  0.00    -0.532 OA
HETATM   17  O   UNL     1      43.768 -13.235   7.519  1.00  0.00    -0.532 OA
ENDBRANCH  13  15
ENDBRANCH   2   5
BRANCH   1  18
HETATM   18  C   UNL     1      40.372 -14.317   0.159  1.00  0.00     0.098 C 
HETATM   19  C   UNL     1      39.602 -14.742  -0.857  1.00  0.00     0.109 C 
HETATM   20  N   UNL     1      39.168 -13.969  -1.904  1.00  0.00    -0.364 N 
HETATM   21  C   UNL     1      39.396 -12.587  -1.909  1.00  0.00     0.046 A 
HETATM   22  H   UNL     1      38.450 -14.348  -2.512  1.00  0.00     0.165 HD
HETATM   23  C   UNL     1      40.209 -12.007  -0.921  1.00  0.00     0.042 A 
HETATM   24  C   UNL     1      38.882 -11.776  -2.923  1.00  0.00     0.030 A 
HETATM   25  C   UNL     1      40.476 -10.634  -0.925  1.00  0.00     0.018 A 
HETATM   26  C   UNL     1      40.776 -12.881   0.140  1.00  0.00     0.201 C 
HETATM   27  C   UNL     1      39.936  -9.833  -1.930  1.00  0.00     0.001 A 
HETATM   28  C   UNL     1      39.144 -10.402  -2.928  1.00  0.00     0.002 A 
HETATM   29  O   UNL     1      41.549 -12.430   0.984  1.00  0.00    -0.286 OA
ENDBRANCH   1  18
TORSDOF 3
ENDMDL
MODEL 7
REMARK VINA RESULT:      -7.8      4.197      5.587
REMARK  3 active torsions:
REMARK  status: ('A' for Active; 'I' for Inactive)
REMARK    1  A    between atoms: C_7  and  C_8 
REMARK       I    between atoms: C_8  and  N_9 
REMARK    2  A    between atoms: N_9  and  C_10 
REMARK    3  A    between atoms: C_18  and  N_19 
ROOT
HETATM    1  C   UNL     1      40.891 -12.365   3.705  1.00  0.00     0.262 C 
HETATM    2  N   UNL     1      41.403 -13.441   3.015  1.00  0.00    -0.305 N 
HETATM    3  O   UNL     1      39.823 -11.796   3.498  1.00  0.00    -0.267 OA
HETATM    4  H   UNL     1      42.327 -13.778   3.271  1.00  0.00     0.170 HD
ENDROOT
BRANCH   2   5
HETATM    5  C   UNL     1      40.757 -14.138   2.015  1.00  0.00     0.163 A 
HETATM    6  N   UNL     1      40.240 -15.360   2.142  1.00  0.00    -0.155 NA
HETATM    7  N   UNL     1      39.748 -15.650   0.934  1.00  0.00    -0.275 N 
HETATM    8  H   UNL     1      39.306 -16.554   0.805  1.00  0.00     0.189 HD
HETATM    9  C   UNL     1      39.909 -14.655   0.008  1.00  0.00     0.064 A 
HETATM   10  C   UNL     1      40.572 -13.638   0.688  1.00  0.00     0.042 A 
HETATM   11  C   UNL     1      39.533 -14.571  -1.336  1.00  0.00     0.034 A 
HETATM   12  C   UNL     1      40.881 -12.446   0.001  1.00  0.00     0.053 A 
HETATM   13  C   UNL     1      40.500 -12.337  -1.349  1.00  0.00     0.103 A 
HETATM   14  C   UNL     1      39.839 -13.384  -2.010  1.00  0.00     0.038 A 
BRANCH  13  15
HETATM   15  N   UNL     1      40.791 -11.096  -2.079  1.00  0.00    -0.116 N 
HETATM   16  O   UNL     1      40.014 -10.764  -2.985  1.00  0.00    -0.532 OA
HETATM   17  O   UNL     1      41.795 -10.452  -1.744  1.00  0.00    -0.532 OA
ENDBRANCH  13  15
ENDBRANCH   2   5
BRANCH   1  18
HETATM   18  C   UNL     1      41.788 -11.879   4.802  1.00  0.00     0.098 C 
HETATM   19  C   UNL     1      41.245 -11.565   5.990  1.00  0.00     0.109 C 
HETATM   20  N   UNL     1      41.938 -11.123   7.089  1.00  0.00    -0.364 N 
HETATM   21  C   UNL     1      43.338 -11.099   7.084  1.00  0.00     0.046 A 
HETATM   22  H   UNL     1      41.451 -11.090   7.978  1.00  0.00     0.165 HD
HETATM   23  C   UNL     1      44.039 -11.377   5.898  1.00  0.00     0.042 A 
HETATM   24  C   UNL     1      44.057 -10.736   8.225  1.00  0.00     0.030 A 
HETATM   25  C   UNL     1      45.437 -11.328   5.862  1.00  0.00     0.018 A 
HETATM   26  C   UNL     1      43.267 -11.736   4.679  1.00  0.00     0.201 C 
HETATM   27  C   UNL     1      46.142 -10.988   7.015  1.00  0.00     0.001 A 
HETATM   28  C   UNL     1      45.454 -10.689   8.193  1.00  0.00     0.002 A 
HETATM   29  O   UNL     1      43.835 -11.919   3.603  1.00  0.00    -0.286 OA
ENDBRANCH   1  18
TORSDOF 3
ENDMDL
MODEL 8
REMARK VINA RESULT:      -7.7     22.714     24.055
REMARK  3 active torsions:
REMARK  status: ('A' for Active; 'I' for Inactive)
REMARK    1  A    between atoms: C_7  and  C_8 
REMARK       I    between atoms: C_8  and  N_9 
REMARK    2  A    between atoms: N_9  and  C_10 
REMARK    3  A    between atoms: C_18  and  N_19 
ROOT
HETATM    1  C   UNL     1      30.826 -32.034  14.539  1.00  0.00     0.262 C 
HETATM    2  N   UNL     1      31.104 -32.575  15.774  1.00  0.00    -0.305 N 
HETATM    3  O   UNL     1      30.437 -30.893  14.304  1.00  0.00    -0.267 OA
HETATM    4  H   UNL     1      31.374 -33.554  15.817  1.00  0.00     0.170 HD
ENDROOT
BRANCH   2   5
HETATM    5  C   UNL     1      31.082 -31.896  16.975  1.00  0.00     0.163 A 
HETATM    6  N   UNL     1      30.003 -31.719  17.737  1.00  0.00    -0.155 NA
HETATM    7  N   UNL     1      30.432 -30.992  18.773  1.00  0.00    -0.275 N 
HETATM    8  H   UNL     1      29.757 -30.734  19.484  1.00  0.00     0.189 HD
HETATM    9  C   UNL     1      31.767 -30.690  18.732  1.00  0.00     0.064 A 
HETATM   10  C   UNL     1      32.230 -31.274  17.558  1.00  0.00     0.042 A 
HETATM   11  C   UNL     1      32.580 -29.971  19.613  1.00  0.00     0.034 A 
HETATM   12  C   UNL     1      33.594 -31.150  17.225  1.00  0.00     0.053 A 
HETATM   13  C   UNL     1      34.432 -30.441  18.106  1.00  0.00     0.103 A 
HETATM   14  C   UNL     1      33.934 -29.856  19.280  1.00  0.00     0.038 A 
BRANCH  13  15
HETATM   15  N   UNL     1      35.862 -30.318  17.793  1.00  0.00    -0.116 N 
HETATM   16  O   UNL     1      36.412 -31.273  17.225  1.00  0.00    -0.532 OA
HETATM   17  O   UNL     1      36.435 -29.267  18.110  1.00  0.00    -0.532 OA
ENDBRANCH  13  15
ENDBRANCH   2   5
BRANCH   1  18
HETATM   18  C   UNL     1      31.027 -32.994  13.408  1.00  0.00     0.098 C 
HETATM   19  C   UNL     1      29.953 -33.605  12.879  1.00  0.00     0.109 C 
HETATM   20  N   UNL     1      29.978 -34.494  11.834  1.00  0.00    -0.364 N 
HETATM   21  C   UNL     1      31.166 -34.730  11.130  1.00  0.00     0.046 A 
HETATM   22  H   UNL     1      29.096 -34.751  11.405  1.00  0.00     0.165 HD
HETATM   23  C   UNL     1      32.374 -34.178  11.589  1.00  0.00     0.042 A 
HETATM   24  C   UNL     1      31.186 -35.565  10.010  1.00  0.00     0.030 A 
HETATM   25  C   UNL     1      33.577 -34.427  10.920  1.00  0.00     0.018 A 
HETATM   26  C   UNL     1      32.350 -33.313  12.798  1.00  0.00     0.201 C 
HETATM   27  C   UNL     1      33.578 -35.243   9.789  1.00  0.00     0.001 A 
HETATM   28  C   UNL     1      32.387 -35.813   9.337  1.00  0.00     0.002 A 
HETATM   29  O   UNL     1      33.392 -32.867  13.276  1.00  0.00    -0.286 OA
ENDBRANCH   1  18
TORSDOF 3
ENDMDL
MODEL 9
REMARK VINA RESULT:      -7.7      4.579      6.653
REMARK  3 active torsions:
REMARK  status: ('A' for Active; 'I' for Inactive)
REMARK    1  A    between atoms: C_7  and  C_8 
REMARK       I    between atoms: C_8  and  N_9 
REMARK    2  A    between atoms: N_9  and  C_10 
REMARK    3  A    between atoms: C_18  and  N_19 
ROOT
HETATM    1  C   UNL     1      40.993 -12.411   5.755  1.00  0.00     0.262 C 
HETATM    2  N   UNL     1      41.594 -13.130   4.746  1.00  0.00    -0.305 N 
HETATM    3  O   UNL     1      39.841 -12.531   6.161  1.00  0.00    -0.267 OA
HETATM    4  H   UNL     1      42.547 -12.885   4.487  1.00  0.00     0.170 HD
ENDROOT
BRANCH   2   5
HETATM    5  C   UNL     1      41.031 -14.189   4.065  1.00  0.00     0.163 A 
HETATM    6  N   UNL     1      40.666 -15.347   4.614  1.00  0.00    -0.155 NA
HETATM    7  N   UNL     1      40.204 -16.078   3.595  1.00  0.00    -0.275 N 
HETATM    8  H   UNL     1      39.873 -17.016   3.793  1.00  0.00     0.189 HD
HETATM    9  C   UNL     1      40.239 -15.439   2.385  1.00  0.00     0.064 A 
HETATM   10  C   UNL     1      40.779 -14.186   2.658  1.00  0.00     0.042 A 
HETATM   11  C   UNL     1      39.848 -15.852   1.108  1.00  0.00     0.034 A 
HETATM   12  C   UNL     1      40.939 -13.266   1.601  1.00  0.00     0.053 A 
HETATM   13  C   UNL     1      40.539 -13.659   0.310  1.00  0.00     0.103 A 
HETATM   14  C   UNL     1      40.005 -14.934   0.065  1.00  0.00     0.038 A 
BRANCH  13  15
HETATM   15  N   UNL     1      40.675 -12.710  -0.803  1.00  0.00    -0.116 N 
HETATM   16  O   UNL     1      40.451 -13.128  -1.948  1.00  0.00    -0.532 OA
HETATM   17  O   UNL     1      41.003 -11.547  -0.532  1.00  0.00    -0.532 OA
ENDBRANCH  13  15
ENDBRANCH   2   5
BRANCH   1  18
HETATM   18  C   UNL     1      41.890 -11.382   6.370  1.00  0.00     0.098 C 
HETATM   19  C   UNL     1      41.356 -10.219   6.779  1.00  0.00     0.109 C 
HETATM   20  N   UNL     1      42.046  -9.192   7.372  1.00  0.00    -0.364 N 
HETATM   21  C   UNL     1      43.390  -9.352   7.730  1.00  0.00     0.046 A 
HETATM   22  H   UNL     1      41.512  -8.442   7.799  1.00  0.00     0.165 HD
HETATM   23  C   UNL     1      44.086 -10.509   7.340  1.00  0.00     0.042 A 
HETATM   24  C   UNL     1      44.079  -8.347   8.413  1.00  0.00     0.030 A 
HETATM   25  C   UNL     1      45.437 -10.676   7.659  1.00  0.00     0.018 A 
HETATM   26  C   UNL     1      43.354 -11.563   6.589  1.00  0.00     0.201 C 
HETATM   27  C   UNL     1      46.106  -9.675   8.363  1.00  0.00     0.001 A 
HETATM   28  C   UNL     1      45.429  -8.512   8.736  1.00  0.00     0.002 A 
HETATM   29  O   UNL     1      43.940 -12.559   6.167  1.00  0.00    -0.286 OA
ENDBRANCH   1  18
TORSDOF 3
ENDMDL
MODEL 10
REMARK VINA RESULT:      -7.7      2.659      8.456
REMARK  3 active torsions:
REMARK  status: ('A' for Active; 'I' for Inactive)
REMARK    1  A    between atoms: C_7  and  C_8 
REMARK       I    between atoms: C_8  and  N_9 
REMARK    2  A    between atoms: N_9  and  C_10 
REMARK    3  A    between atoms: C_18  and  N_19 
ROOT
HETATM    1  C   UNL     1      41.332 -14.465   1.776  1.00  0.00     0.262 C 
HETATM    2  N   UNL     1      42.603 -14.991   1.828  1.00  0.00    -0.305 N 
HETATM    3  O   UNL     1      40.307 -14.965   2.228  1.00  0.00    -0.267 OA
HETATM    4  H   UNL     1      43.352 -14.482   1.366  1.00  0.00     0.170 HD
ENDROOT
BRANCH   2   5
HETATM    5  C   UNL     1      42.971 -16.146   2.488  1.00  0.00     0.163 A 
HETATM    6  N   UNL     1      43.194 -17.324   1.905  1.00  0.00    -0.155 NA
HETATM    7  N   UNL     1      43.491 -18.152   2.911  1.00  0.00    -0.275 N 
HETATM    8  H   UNL     1      43.694 -19.120   2.686  1.00  0.00     0.189 HD
HETATM    9  C   UNL     1      43.485 -17.560   4.145  1.00  0.00     0.064 A 
HETATM   10  C   UNL     1      43.147 -16.233   3.904  1.00  0.00     0.042 A 
HETATM   11  C   UNL     1      43.745 -18.074   5.419  1.00  0.00     0.034 A 
HETATM   12  C   UNL     1      43.065 -15.340   4.992  1.00  0.00     0.053 A 
HETATM   13  C   UNL     1      43.336 -15.835   6.281  1.00  0.00     0.103 A 
HETATM   14  C   UNL     1      43.667 -17.182   6.494  1.00  0.00     0.038 A 
BRANCH  13  15
HETATM   15  N   UNL     1      43.280 -14.918   7.427  1.00  0.00    -0.116 N 
HETATM   16  O   UNL     1      43.188 -15.415   8.559  1.00  0.00    -0.532 OA
HETATM   17  O   UNL     1      43.330 -13.702   7.197  1.00  0.00    -0.532 OA
ENDBRANCH  13  15
ENDBRANCH   2   5
BRANCH   1  18
HETATM   18  C   UNL     1      41.261 -13.148   1.066  1.00  0.00     0.098 C 
HETATM   19  C   UNL     1      41.648 -12.039   1.719  1.00  0.00     0.109 C 
HETATM   20  N   UNL     1      41.653 -10.770   1.197  1.00  0.00    -0.364 N 
HETATM   21  C   UNL     1      41.372 -10.558  -0.158  1.00  0.00     0.046 A 
HETATM   22  H   UNL     1      42.131 -10.042   1.718  1.00  0.00     0.165 HD
HETATM   23  C   UNL     1      40.927 -11.625  -0.957  1.00  0.00     0.042 A 
HETATM   24  C   UNL     1      41.461  -9.283  -0.721  1.00  0.00     0.030 A 
HETATM   25  C   UNL     1      40.610 -11.429  -2.305  1.00  0.00     0.018 A 
HETATM   26  C   UNL     1      40.808 -12.974  -0.344  1.00  0.00     0.201 C 
HETATM   27  C   UNL     1      40.727 -10.155  -2.860  1.00  0.00     0.001 A 
HETATM   28  C   UNL     1      41.148  -9.084  -2.070  1.00  0.00     0.002 A 
HETATM   29  O   UNL     1      40.356 -13.921  -0.986  1.00  0.00    -0.286 OA
ENDBRANCH   1  18
TORSDOF 3
ENDMDL
