MODEL 1
REMARK VINA RESULT:      -8.7      0.000      0.000
REMARK  3 active torsions:
REMARK  status: ('A' for Active; 'I' for Inactive)
REMARK    1  A    between atoms: C_4  and  C_5 
REMARK    2  A    between atoms: C_11  and  N_12 
REMARK    3  A    between atoms: C_14  and  C_15 
ROOT
HETATM    1  C   UNL     1      43.142 -12.922   4.317  1.00  0.00    -0.006 A 
HETATM    2  C   UNL     1      42.490 -12.418   3.143  1.00  0.00     0.063 A 
HETATM    3  C   UNL     1      42.084 -13.350   2.183  1.00  0.00     0.165 A 
HETATM    4  N   UNL     1      41.457 -13.012   1.068  1.00  0.00    -0.222 NA
HETATM    5  C   UNL     1      41.216 -11.720   0.861  1.00  0.00     0.237 A 
HETATM    6  N   UNL     1      41.559 -10.725   1.674  1.00  0.00    -0.229 NA
HETATM    7  C   UNL     1      42.196 -11.080   2.796  1.00  0.00     0.117 A 
HETATM    8  N   UNL     1      42.306 -14.654   2.320  1.00  0.00    -0.228 NA
HETATM    9  C   UNL     1      42.946 -15.139   3.405  1.00  0.00     0.070 A 
HETATM   10  C   UNL     1      43.361 -14.302   4.423  1.00  0.00     0.046 A 
ENDROOT
BRANCH   9  11
HETATM   11  C   UNL     1      43.169 -16.599   3.416  1.00  0.00    -0.004 A 
HETATM   12  C   UNL     1      43.545 -17.282   4.591  1.00  0.00     0.053 A 
HETATM   13  C   UNL     1      43.760 -18.644   4.530  1.00  0.00     0.106 A 
HETATM   14  C   UNL     1      43.615 -19.354   3.363  1.00  0.00     0.105 A 
HETATM   15  O   UNL     1      44.137 -19.431   5.574  1.00  0.00    -0.323 OA
HETATM   16  O   UNL     1      43.879 -20.678   3.524  1.00  0.00    -0.323 OA
HETATM   17  C   UNL     1      43.250 -18.739   2.190  1.00  0.00     0.040 A 
HETATM   18  C   UNL     1      44.229 -20.717   4.923  1.00  0.00     0.352 A 
HETATM   19  C   UNL     1      43.032 -17.356   2.222  1.00  0.00     0.017 A 
ENDBRANCH   9  11
BRANCH   1  20
HETATM   20  C   UNL     1      43.606 -12.082   5.432  1.00  0.00    -0.025 A 
HETATM   21  C   UNL     1      42.718 -11.651   6.431  1.00  0.00     0.012 A 
HETATM   22  C   UNL     1      43.168 -10.869   7.497  1.00  0.00     0.001 A 
HETATM   23  C   UNL     1      44.513 -10.519   7.589  1.00  0.00     0.000 A 
HETATM   24  C   UNL     1      45.410 -10.949   6.613  1.00  0.00     0.001 A 
HETATM   25  C   UNL     1      44.960 -11.725   5.543  1.00  0.00     0.012 A 
ENDBRANCH   1  20
BRANCH   7  26
HETATM   26  N   UNL     1      42.498  -9.991   3.610  1.00  0.00    -0.286 NA
HETATM   27  H   UNL     1      42.231 -10.226   4.562  1.00  0.00     0.125 HD
HETATM   28  H   UNL     1      42.072  -9.127   3.294  1.00  0.00     0.125 HD
ENDBRANCH   7  26
TORSDOF 3
ENDMDL
MODEL 2
REMARK VINA RESULT:      -8.6      3.139      5.369
REMARK  3 active torsions:
REMARK  status: ('A' for Active; 'I' for Inactive)
REMARK    1  A    between atoms: C_4  and  C_5 
REMARK    2  A    between atoms: C_11  and  N_12 
REMARK    3  A    between atoms: C_14  and  C_15 
ROOT
HETATM    1  C   UNL     1      40.520 -13.959   0.982  1.00  0.00    -0.006 A 
HETATM    2  C   UNL     1      40.037 -13.140   2.056  1.00  0.00     0.063 A 
HETATM    3  C   UNL     1      40.405 -13.502   3.356  1.00  0.00     0.165 A 
HETATM    4  N   UNL     1      40.038 -12.818   4.427  1.00  0.00    -0.222 NA
HETATM    5  C   UNL     1      39.278 -11.742   4.243  1.00  0.00     0.237 A 
HETATM    6  N   UNL     1      38.838 -11.291   3.072  1.00  0.00    -0.229 NA
HETATM    7  C   UNL     1      39.212 -11.994   1.997  1.00  0.00     0.117 A 
HETATM    8  N   UNL     1      41.151 -14.573   3.610  1.00  0.00    -0.228 NA
HETATM    9  C   UNL     1      41.587 -15.369   2.612  1.00  0.00     0.070 A 
HETATM   10  C   UNL     1      41.300 -15.080   1.291  1.00  0.00     0.046 A 
ENDROOT
BRANCH   9  11
HETATM   11  C   UNL     1      42.369 -16.550   3.031  1.00  0.00    -0.004 A 
HETATM   12  C   UNL     1      42.377 -17.739   2.274  1.00  0.00     0.053 A 
HETATM   13  C   UNL     1      43.111 -18.815   2.731  1.00  0.00     0.106 A 
HETATM   14  C   UNL     1      43.836 -18.762   3.897  1.00  0.00     0.105 A 
HETATM   15  O   UNL     1      43.204 -20.026   2.118  1.00  0.00    -0.323 OA
HETATM   16  O   UNL     1      44.479 -19.929   4.164  1.00  0.00    -0.323 OA
HETATM   17  C   UNL     1      43.863 -17.628   4.673  1.00  0.00     0.040 A 
HETATM   18  C   UNL     1      44.059 -20.733   3.043  1.00  0.00     0.352 A 
HETATM   19  C   UNL     1      43.121 -16.523   4.236  1.00  0.00     0.017 A 
ENDBRANCH   9  11
BRANCH   1  20
HETATM   20  C   UNL     1      40.249 -13.703  -0.441  1.00  0.00    -0.025 A 
HETATM   21  C   UNL     1      40.940 -12.700  -1.140  1.00  0.00     0.012 A 
HETATM   22  C   UNL     1      40.692 -12.473  -2.496  1.00  0.00     0.001 A 
HETATM   23  C   UNL     1      39.761 -13.255  -3.176  1.00  0.00     0.000 A 
HETATM   24  C   UNL     1      39.076 -14.263  -2.501  1.00  0.00     0.001 A 
HETATM   25  C   UNL     1      39.318 -14.485  -1.144  1.00  0.00     0.012 A 
ENDBRANCH   1  20
BRANCH   7  26
HETATM   26  N   UNL     1      38.739 -11.448   0.806  1.00  0.00    -0.286 NA
HETATM   27  H   UNL     1      39.518 -11.390   0.155  1.00  0.00     0.125 HD
HETATM   28  H   UNL     1      38.278 -10.554   0.934  1.00  0.00     0.125 HD
ENDBRANCH   7  26
TORSDOF 3
ENDMDL
MODEL 3
REMARK VINA RESULT:      -8.5      3.824      7.267
REMARK  3 active torsions:
REMARK  status: ('A' for Active; 'I' for Inactive)
REMARK    1  A    between atoms: C_4  and  C_5 
REMARK    2  A    between atoms: C_11  and  N_12 
REMARK    3  A    between atoms: C_14  and  C_15 
ROOT
HETATM    1  C   UNL     1      42.765 -14.902   5.059  1.00  0.00    -0.006 A 
HETATM    2  C   UNL     1      41.690 -14.416   4.243  1.00  0.00     0.063 A 
HETATM    3  C   UNL     1      41.474 -13.034   4.221  1.00  0.00     0.165 A 
HETATM    4  N   UNL     1      40.527 -12.463   3.494  1.00  0.00    -0.222 NA
HETATM    5  C   UNL     1      39.749 -13.254   2.760  1.00  0.00     0.237 A 
HETATM    6  N   UNL     1      39.826 -14.580   2.698  1.00  0.00    -0.229 NA
HETATM    7  C   UNL     1      40.784 -15.146   3.441  1.00  0.00     0.117 A 
HETATM    8  N   UNL     1      42.206 -12.189   4.940  1.00  0.00    -0.228 NA
HETATM    9  C   UNL     1      43.200 -12.635   5.736  1.00  0.00     0.070 A 
HETATM   10  C   UNL     1      43.511 -13.980   5.805  1.00  0.00     0.046 A 
ENDROOT
BRANCH   9  11
HETATM   11  C   UNL     1      43.908 -11.600   6.516  1.00  0.00    -0.004 A 
HETATM   12  C   UNL     1      43.225 -10.510   7.093  1.00  0.00     0.053 A 
HETATM   13  C   UNL     1      43.947  -9.564   7.791  1.00  0.00     0.106 A 
HETATM   14  C   UNL     1      45.309  -9.653   7.944  1.00  0.00     0.105 A 
HETATM   15  O   UNL     1      43.429  -8.457   8.389  1.00  0.00    -0.323 OA
HETATM   16  O   UNL     1      45.822  -8.617   8.660  1.00  0.00    -0.323 OA
HETATM   17  C   UNL     1      46.025 -10.694   7.403  1.00  0.00     0.040 A 
HETATM   18  C   UNL     1      44.627  -7.852   8.922  1.00  0.00     0.352 A 
HETATM   19  C   UNL     1      45.317 -11.665   6.684  1.00  0.00     0.017 A 
ENDBRANCH   9  11
BRANCH   1  20
HETATM   20  C   UNL     1      43.142 -16.319   5.174  1.00  0.00    -0.025 A 
HETATM   21  C   UNL     1      43.851 -16.964   4.147  1.00  0.00     0.012 A 
HETATM   22  C   UNL     1      44.223 -18.304   4.268  1.00  0.00     0.001 A 
HETATM   23  C   UNL     1      43.907 -19.015   5.423  1.00  0.00     0.000 A 
HETATM   24  C   UNL     1      43.215 -18.388   6.458  1.00  0.00     0.001 A 
HETATM   25  C   UNL     1      42.836 -17.050   6.334  1.00  0.00     0.012 A 
ENDBRANCH   1  20
BRANCH   7  26
HETATM   26  N   UNL     1      40.824 -16.531   3.303  1.00  0.00    -0.286 NA
HETATM   27  H   UNL     1      41.423 -16.752   2.512  1.00  0.00     0.125 HD
HETATM   28  H   UNL     1      39.905 -16.949   3.217  1.00  0.00     0.125 HD
ENDBRANCH   7  26
TORSDOF 3
ENDMDL
MODEL 4
REMARK VINA RESULT:      -8.4      1.605      2.297
REMARK  3 active torsions:
REMARK  status: ('A' for Active; 'I' for Inactive)
REMARK    1  A    between atoms: C_4  and  C_5 
REMARK    2  A    between atoms: C_11  and  N_12 
REMARK    3  A    between atoms: C_14  and  C_15 
ROOT
HETATM    1  C   UNL     1      43.411 -12.952   5.940  1.00  0.00    -0.006 A 
HETATM    2  C   UNL     1      42.374 -12.535   5.040  1.00  0.00     0.063 A 
HETATM    3  C   UNL     1      41.709 -13.533   4.321  1.00  0.00     0.165 A 
HETATM    4  N   UNL     1      40.724 -13.278   3.475  1.00  0.00    -0.222 NA
HETATM    5  C   UNL     1      40.368 -12.007   3.306  1.00  0.00     0.237 A 
HETATM    6  N   UNL     1      40.921 -10.958   3.906  1.00  0.00    -0.229 NA
HETATM    7  C   UNL     1      41.919 -11.228   4.755  1.00  0.00     0.117 A 
HETATM    8  N   UNL     1      42.025 -14.820   4.432  1.00  0.00    -0.228 NA
HETATM    9  C   UNL     1      43.018 -15.223   5.252  1.00  0.00     0.070 A 
HETATM   10  C   UNL     1      43.717 -14.316   6.027  1.00  0.00     0.046 A 
ENDROOT
BRANCH   9  11
HETATM   11  C   UNL     1      43.298 -16.673   5.252  1.00  0.00    -0.004 A 
HETATM   12  C   UNL     1      43.507 -17.386   4.054  1.00  0.00     0.053 A 
HETATM   13  C   UNL     1      43.743 -18.745   4.119  1.00  0.00     0.106 A 
HETATM   14  C   UNL     1      43.785 -19.421   5.314  1.00  0.00     0.105 A 
HETATM   15  O   UNL     1      43.948 -19.563   3.052  1.00  0.00    -0.323 OA
HETATM   16  O   UNL     1      44.025 -20.749   5.152  1.00  0.00    -0.323 OA
HETATM   17  C   UNL     1      43.589 -18.775   6.511  1.00  0.00     0.040 A 
HETATM   18  C   UNL     1      44.108 -20.837   3.715  1.00  0.00     0.352 A 
HETATM   19  C   UNL     1      43.341 -17.397   6.473  1.00  0.00     0.017 A 
ENDBRANCH   9  11
BRANCH   1  20
HETATM   20  C   UNL     1      44.188 -12.036   6.789  1.00  0.00    -0.025 A 
HETATM   21  C   UNL     1      45.452 -11.574   6.386  1.00  0.00     0.012 A 
HETATM   22  C   UNL     1      46.178 -10.689   7.187  1.00  0.00     0.001 A 
HETATM   23  C   UNL     1      45.646 -10.242   8.393  1.00  0.00     0.000 A 
HETATM   24  C   UNL     1      44.388 -10.680   8.803  1.00  0.00     0.001 A 
HETATM   25  C   UNL     1      43.665 -11.570   8.007  1.00  0.00     0.012 A 
ENDBRANCH   1  20
BRANCH   7  26
HETATM   26  N   UNL     1      42.430 -10.086   5.367  1.00  0.00    -0.286 NA
HETATM   27  H   UNL     1      43.380 -10.286   5.664  1.00  0.00     0.125 HD
HETATM   28  H   UNL     1      41.851  -9.751   6.130  1.00  0.00     0.125 HD
ENDBRANCH   7  26
TORSDOF 3
ENDMDL
MODEL 5
REMARK VINA RESULT:      -8.4      3.556      6.920
REMARK  3 active torsions:
REMARK  status: ('A' for Active; 'I' for Inactive)
REMARK    1  A    between atoms: C_4  and  C_5 
REMARK    2  A    between atoms: C_11  and  N_12 
REMARK    3  A    between atoms: C_14  and  C_15 
ROOT
HETATM    1  C   UNL     1      42.684 -13.379   3.167  1.00  0.00    -0.006 A 
HETATM    2  C   UNL     1      42.188 -12.352   2.297  1.00  0.00     0.063 A 
HETATM    3  C   UNL     1      42.374 -11.026   2.698  1.00  0.00     0.165 A 
HETATM    4  N   UNL     1      41.978  -9.991   1.975  1.00  0.00    -0.222 NA
HETATM    5  C   UNL     1      41.370 -10.240   0.819  1.00  0.00     0.237 A 
HETATM    6  N   UNL     1      41.109 -11.446   0.322  1.00  0.00    -0.229 NA
HETATM    7  C   UNL     1      41.510 -12.484   1.065  1.00  0.00     0.117 A 
HETATM    8  N   UNL     1      42.962 -10.707   3.848  1.00  0.00    -0.228 NA
HETATM    9  C   UNL     1      43.406 -11.663   4.689  1.00  0.00     0.070 A 
HETATM   10  C   UNL     1      43.294 -13.004   4.371  1.00  0.00     0.046 A 
ENDROOT
BRANCH   9  11
HETATM   11  C   UNL     1      44.000 -11.179   5.952  1.00  0.00    -0.004 A 
HETATM   12  C   UNL     1      43.214 -10.579   6.958  1.00  0.00     0.053 A 
HETATM   13  C   UNL     1      43.833 -10.126   8.106  1.00  0.00     0.106 A 
HETATM   14  C   UNL     1      45.188 -10.245   8.300  1.00  0.00     0.105 A 
HETATM   15  O   UNL     1      43.210  -9.519   9.152  1.00  0.00    -0.323 OA
HETATM   16  O   UNL     1      45.590  -9.731   9.492  1.00  0.00    -0.323 OA
HETATM   17  C   UNL     1      46.000 -10.821   7.353  1.00  0.00     0.040 A 
HETATM   18  C   UNL     1      44.334  -9.255  10.019  1.00  0.00     0.352 A 
HETATM   19  C   UNL     1      45.399 -11.283   6.175  1.00  0.00     0.017 A 
ENDBRANCH   9  11
BRANCH   1  20
HETATM   20  C   UNL     1      42.594 -14.820   2.883  1.00  0.00    -0.025 A 
HETATM   21  C   UNL     1      43.484 -15.438   1.990  1.00  0.00     0.012 A 
HETATM   22  C   UNL     1      43.407 -16.810   1.738  1.00  0.00     0.001 A 
HETATM   23  C   UNL     1      42.448 -17.586   2.385  1.00  0.00     0.000 A 
HETATM   24  C   UNL     1      41.565 -16.992   3.284  1.00  0.00     0.001 A 
HETATM   25  C   UNL     1      41.637 -15.619   3.531  1.00  0.00     0.012 A 
ENDBRANCH   1  20
BRANCH   7  26
HETATM   26  N   UNL     1      41.230 -13.712   0.469  1.00  0.00    -0.286 NA
HETATM   27  H   UNL     1      41.135 -14.405   1.205  1.00  0.00     0.125 HD
HETATM   28  H   UNL     1      41.916 -13.981  -0.227  1.00  0.00     0.125 HD
ENDBRANCH   7  26
TORSDOF 3
ENDMDL
MODEL 6
REMARK VINA RESULT:      -8.1      1.795      3.880
REMARK  3 active torsions:
REMARK  status: ('A' for Active; 'I' for Inactive)
REMARK    1  A    between atoms: C_4  and  C_5 
REMARK    2  A    between atoms: C_11  and  N_12 
REMARK    3  A    between atoms: C_14  and  C_15 
ROOT
HETATM    1  C   UNL     1      41.823 -13.486   3.718  1.00  0.00    -0.006 A 
HETATM    2  C   UNL     1      42.464 -12.992   4.902  1.00  0.00     0.063 A 
HETATM    3  C   UNL     1      43.295 -13.875   5.598  1.00  0.00     0.165 A 
HETATM    4  N   UNL     1      43.955 -13.534   6.693  1.00  0.00    -0.222 NA
HETATM    5  C   UNL     1      43.805 -12.292   7.144  1.00  0.00     0.237 A 
HETATM    6  N   UNL     1      43.037 -11.354   6.598  1.00  0.00    -0.229 NA
HETATM    7  C   UNL     1      42.371 -11.712   5.495  1.00  0.00     0.117 A 
HETATM    8  N   UNL     1      43.477 -15.134   5.210  1.00  0.00    -0.228 NA
HETATM    9  C   UNL     1      42.857 -15.620   4.115  1.00  0.00     0.070 A 
HETATM   10  C   UNL     1      42.038 -14.818   3.343  1.00  0.00     0.046 A 
ENDROOT
BRANCH   9  11
HETATM   11  C   UNL     1      43.109 -17.044   3.817  1.00  0.00    -0.004 A 
HETATM   12  C   UNL     1      43.583 -17.935   4.802  1.00  0.00     0.053 A 
HETATM   13  C   UNL     1      43.820 -19.250   4.453  1.00  0.00     0.106 A 
HETATM   14  C   UNL     1      43.605 -19.717   3.180  1.00  0.00     0.105 A 
HETATM   15  O   UNL     1      44.288 -20.216   5.289  1.00  0.00    -0.323 OA
HETATM   16  O   UNL     1      43.906 -21.036   3.052  1.00  0.00    -0.323 OA
HETATM   17  C   UNL     1      43.144 -18.893   2.182  1.00  0.00     0.040 A 
HETATM   18  C   UNL     1      44.357 -21.342   4.388  1.00  0.00     0.352 A 
HETATM   19  C   UNL     1      42.901 -17.552   2.506  1.00  0.00     0.017 A 
ENDBRANCH   9  11
BRANCH   1  20
HETATM   20  C   UNL     1      40.941 -12.681   2.857  1.00  0.00    -0.025 A 
HETATM   21  C   UNL     1      39.555 -12.643   3.077  1.00  0.00     0.012 A 
HETATM   22  C   UNL     1      38.724 -11.863   2.269  1.00  0.00     0.001 A 
HETATM   23  C   UNL     1      39.269 -11.099   1.240  1.00  0.00     0.000 A 
HETATM   24  C   UNL     1      40.644 -11.115   1.015  1.00  0.00     0.001 A 
HETATM   25  C   UNL     1      41.474 -11.900   1.818  1.00  0.00     0.012 A 
ENDBRANCH   1  20
BRANCH   7  26
HETATM   26  N   UNL     1      41.611 -10.673   4.963  1.00  0.00    -0.286 NA
HETATM   27  H   UNL     1      41.625 -10.759   3.950  1.00  0.00     0.125 HD
HETATM   28  H   UNL     1      41.916  -9.758   5.275  1.00  0.00     0.125 HD
ENDBRANCH   7  26
TORSDOF 3
ENDMDL
MODEL 7
REMARK VINA RESULT:      -8.1     11.913     15.711
REMARK  3 active torsions:
REMARK  status: ('A' for Active; 'I' for Inactive)
REMARK    1  A    between atoms: C_4  and  C_5 
REMARK    2  A    between atoms: C_11  and  N_12 
REMARK    3  A    between atoms: C_14  and  C_15 
ROOT
HETATM    1  C   UNL     1      40.929  -7.591  15.139  1.00  0.00    -0.006 A 
HETATM    2  C   UNL     1      39.904  -6.606  14.945  1.00  0.00     0.063 A 
HETATM    3  C   UNL     1      39.266  -6.110  16.086  1.00  0.00     0.165 A 
HETATM    4  N   UNL     1      38.318  -5.187  16.039  1.00  0.00    -0.222 NA
HETATM    5  C   UNL     1      37.963  -4.726  14.844  1.00  0.00     0.237 A 
HETATM    6  N   UNL     1      38.468  -5.117  13.677  1.00  0.00    -0.229 NA
HETATM    7  C   UNL     1      39.421  -6.054  13.737  1.00  0.00     0.117 A 
HETATM    8  N   UNL     1      39.563  -6.538  17.309  1.00  0.00    -0.228 NA
HETATM    9  C   UNL     1      40.503  -7.486  17.504  1.00  0.00     0.070 A 
HETATM   10  C   UNL     1      41.211  -8.019  16.443  1.00  0.00     0.046 A 
ENDROOT
BRANCH   9  11
HETATM   11  C   UNL     1      40.708  -7.905  18.905  1.00  0.00    -0.004 A 
HETATM   12  C   UNL     1      39.627  -8.060  19.797  1.00  0.00     0.053 A 
HETATM   13  C   UNL     1      39.887  -8.433  21.101  1.00  0.00     0.106 A 
HETATM   14  C   UNL     1      41.163  -8.661  21.554  1.00  0.00     0.105 A 
HETATM   15  O   UNL     1      38.952  -8.609  22.073  1.00  0.00    -0.323 OA
HETATM   16  O   UNL     1      41.195  -9.012  22.867  1.00  0.00    -0.323 OA
HETATM   17  C   UNL     1      42.253  -8.525  20.727  1.00  0.00     0.040 A 
HETATM   18  C   UNL     1      39.791  -8.958  23.195  1.00  0.00     0.352 A 
HETATM   19  C   UNL     1      42.018  -8.141  19.401  1.00  0.00     0.017 A 
ENDBRANCH   9  11
BRANCH   1  20
HETATM   20  C   UNL     1      41.714  -8.194  14.051  1.00  0.00    -0.025 A 
HETATM   21  C   UNL     1      42.888  -7.582  13.581  1.00  0.00     0.012 A 
HETATM   22  C   UNL     1      43.640  -8.169  12.561  1.00  0.00     0.001 A 
HETATM   23  C   UNL     1      43.239  -9.382  12.006  1.00  0.00     0.000 A 
HETATM   24  C   UNL     1      42.084 -10.009  12.469  1.00  0.00     0.001 A 
HETATM   25  C   UNL     1      41.328  -9.420  13.484  1.00  0.00     0.012 A 
ENDBRANCH   1  20
BRANCH   7  26
HETATM   26  N   UNL     1      39.922  -6.392  12.483  1.00  0.00    -0.286 NA
HETATM   27  H   UNL     1      39.887  -7.404  12.392  1.00  0.00     0.125 HD
HETATM   28  H   UNL     1      40.851  -6.023  12.313  1.00  0.00     0.125 HD
ENDBRANCH   7  26
TORSDOF 3
ENDMDL
MODEL 8
REMARK VINA RESULT:      -8.0      4.401      7.431
REMARK  3 active torsions:
REMARK  status: ('A' for Active; 'I' for Inactive)
REMARK    1  A    between atoms: C_4  and  C_5 
REMARK    2  A    between atoms: C_11  and  N_12 
REMARK    3  A    between atoms: C_14  and  C_15 
ROOT
HETATM    1  C   UNL     1      41.927 -16.182   2.973  1.00  0.00    -0.006 A 
HETATM    2  C   UNL     1      41.406 -15.517   4.132  1.00  0.00     0.063 A 
HETATM    3  C   UNL     1      40.654 -14.356   3.922  1.00  0.00     0.165 A 
HETATM    4  N   UNL     1      40.104 -13.664   4.907  1.00  0.00    -0.222 NA
HETATM    5  C   UNL     1      40.291 -14.101   6.149  1.00  0.00     0.237 A 
HETATM    6  N   UNL     1      40.996 -15.173   6.499  1.00  0.00    -0.229 NA
HETATM    7  C   UNL     1      41.550 -15.862   5.495  1.00  0.00     0.117 A 
HETATM    8  N   UNL     1      40.440 -13.858   2.708  1.00  0.00    -0.228 NA
HETATM    9  C   UNL     1      40.951 -14.457   1.612  1.00  0.00     0.070 A 
HETATM   10  C   UNL     1      41.684 -15.624   1.712  1.00  0.00     0.046 A 
ENDROOT
BRANCH   9  11
HETATM   11  C   UNL     1      40.679 -13.780   0.328  1.00  0.00    -0.004 A 
HETATM   12  C   UNL     1      41.146 -12.476   0.065  1.00  0.00     0.053 A 
HETATM   13  C   UNL     1      40.838 -11.889  -1.147  1.00  0.00     0.106 A 
HETATM   14  C   UNL     1      40.096 -12.537  -2.104  1.00  0.00     0.105 A 
HETATM   15  O   UNL     1      41.207 -10.639  -1.535  1.00  0.00    -0.323 OA
HETATM   16  O   UNL     1      39.906 -11.780  -3.216  1.00  0.00    -0.323 OA
HETATM   17  C   UNL     1      39.616 -13.809  -1.900  1.00  0.00     0.040 A 
HETATM   18  C   UNL     1      40.596 -10.570  -2.842  1.00  0.00     0.352 A 
HETATM   19  C   UNL     1      39.908 -14.425  -0.676  1.00  0.00     0.017 A 
ENDBRANCH   9  11
BRANCH   1  20
HETATM   20  C   UNL     1      42.714 -17.425   3.017  1.00  0.00    -0.025 A 
HETATM   21  C   UNL     1      42.373 -18.524   2.212  1.00  0.00     0.012 A 
HETATM   22  C   UNL     1      43.134 -19.695   2.243  1.00  0.00     0.001 A 
HETATM   23  C   UNL     1      44.255 -19.778   3.066  1.00  0.00     0.000 A 
HETATM   24  C   UNL     1      44.615 -18.692   3.861  1.00  0.00     0.001 A 
HETATM   25  C   UNL     1      43.851 -17.524   3.836  1.00  0.00     0.012 A 
ENDBRANCH   1  20
BRANCH   7  26
HETATM   26  N   UNL     1      42.246 -16.986   5.933  1.00  0.00    -0.286 NA
HETATM   27  H   UNL     1      42.444 -16.868   6.922  1.00  0.00     0.125 HD
HETATM   28  H   UNL     1      43.084 -17.170   5.392  1.00  0.00     0.125 HD
ENDBRANCH   7  26
TORSDOF 3
ENDMDL
MODEL 9
REMARK VINA RESULT:      -8.0     15.738     18.424
REMARK  3 active torsions:
REMARK  status: ('A' for Active; 'I' for Inactive)
REMARK    1  A    between atoms: C_4  and  C_5 
REMARK    2  A    between atoms: C_11  and  N_12 
REMARK    3  A    between atoms: C_14  and  C_15 
ROOT
HETATM    1  C   UNL     1      47.485 -29.712  -1.177  1.00  0.00    -0.006 A 
HETATM    2  C   UNL     1      47.450 -29.310   0.199  1.00  0.00     0.063 A 
HETATM    3  C   UNL     1      48.599 -29.538   0.963  1.00  0.00     0.165 A 
HETATM    4  N   UNL     1      48.697 -29.196   2.238  1.00  0.00    -0.222 NA
HETATM    5  C   UNL     1      47.644 -28.615   2.805  1.00  0.00     0.237 A 
HETATM    6  N   UNL     1      46.484 -28.354   2.209  1.00  0.00    -0.229 NA
HETATM    7  C   UNL     1      46.395 -28.709   0.922  1.00  0.00     0.117 A 
HETATM    8  N   UNL     1      49.681 -30.126   0.462  1.00  0.00    -0.228 NA
HETATM    9  C   UNL     1      49.716 -30.537  -0.822  1.00  0.00     0.070 A 
HETATM   10  C   UNL     1      48.642 -30.332  -1.668  1.00  0.00     0.046 A 
ENDROOT
BRANCH   9  11
HETATM   11  C   UNL     1      50.959 -31.214  -1.243  1.00  0.00    -0.004 A 
HETATM   12  C   UNL     1      51.421 -31.154  -2.574  1.00  0.00     0.053 A 
HETATM   13  C   UNL     1      52.579 -31.827  -2.909  1.00  0.00     0.106 A 
HETATM   14  C   UNL     1      53.295 -32.550  -1.987  1.00  0.00     0.105 A 
HETATM   15  O   UNL     1      53.137 -31.870  -4.149  1.00  0.00    -0.323 OA
HETATM   16  O   UNL     1      54.396 -33.137  -2.526  1.00  0.00    -0.323 OA
HETATM   17  C   UNL     1      52.890 -32.643  -0.677  1.00  0.00     0.040 A 
HETATM   18  C   UNL     1      54.279 -32.719  -3.902  1.00  0.00     0.352 A 
HETATM   19  C   UNL     1      51.715 -31.974  -0.311  1.00  0.00     0.017 A 
ENDBRANCH   9  11
BRANCH   1  20
HETATM   20  C   UNL     1      46.375 -29.521  -2.124  1.00  0.00    -0.025 A 
HETATM   21  C   UNL     1      45.433 -30.539  -2.349  1.00  0.00     0.012 A 
HETATM   22  C   UNL     1      44.370 -30.345  -3.234  1.00  0.00     0.001 A 
HETATM   23  C   UNL     1      44.224 -29.128  -3.896  1.00  0.00     0.000 A 
HETATM   24  C   UNL     1      45.142 -28.103  -3.675  1.00  0.00     0.001 A 
HETATM   25  C   UNL     1      46.209 -28.298  -2.795  1.00  0.00     0.012 A 
ENDBRANCH   1  20
BRANCH   7  26
HETATM   26  N   UNL     1      45.166 -28.380   0.357  1.00  0.00    -0.286 NA
HETATM   27  H   UNL     1      45.187 -28.651  -0.622  1.00  0.00     0.125 HD
HETATM   28  H   UNL     1      44.921 -27.403   0.480  1.00  0.00     0.125 HD
ENDBRANCH   7  26
TORSDOF 3
ENDMDL
MODEL 10
REMARK VINA RESULT:      -8.0     15.081     17.234
REMARK  3 active torsions:
REMARK  status: ('A' for Active; 'I' for Inactive)
REMARK    1  A    between atoms: C_4  and  C_5 
REMARK    2  A    between atoms: C_11  and  N_12 
REMARK    3  A    between atoms: C_14  and  C_15 
ROOT
HETATM    1  C   UNL     1      44.562 -30.020  -1.029  1.00  0.00    -0.006 A 
HETATM    2  C   UNL     1      45.596 -29.250  -0.400  1.00  0.00     0.063 A 
HETATM    3  C   UNL     1      45.520 -29.086   0.986  1.00  0.00     0.165 A 
HETATM    4  N   UNL     1      46.421 -28.413   1.684  1.00  0.00    -0.222 NA
HETATM    5  C   UNL     1      47.437 -27.869   1.020  1.00  0.00     0.237 A 
HETATM    6  N   UNL     1      47.627 -27.928  -0.295  1.00  0.00    -0.229 NA
HETATM    7  C   UNL     1      46.706 -28.606  -0.990  1.00  0.00     0.117 A 
HETATM    8  N   UNL     1      44.524 -29.591   1.709  1.00  0.00    -0.228 NA
HETATM    9  C   UNL     1      43.529 -30.291   1.126  1.00  0.00     0.070 A 
HETATM   10  C   UNL     1      43.528 -30.533  -0.235  1.00  0.00     0.046 A 
ENDROOT
BRANCH   9  11
HETATM   11  C   UNL     1      42.462 -30.761   2.032  1.00  0.00    -0.004 A 
HETATM   12  C   UNL     1      42.582 -30.660   3.433  1.00  0.00     0.053 A 
HETATM   13  C   UNL     1      41.558 -31.138   4.226  1.00  0.00     0.106 A 
HETATM   14  C   UNL     1      40.427 -31.705   3.694  1.00  0.00     0.105 A 
HETATM   15  O   UNL     1      41.539 -31.119   5.587  1.00  0.00    -0.323 OA
HETATM   16  O   UNL     1      39.550 -32.113   4.649  1.00  0.00    -0.323 OA
HETATM   17  C   UNL     1      40.258 -31.830   2.336  1.00  0.00     0.040 A 
HETATM   18  C   UNL     1      40.270 -31.757   5.847  1.00  0.00     0.352 A 
HETATM   19  C   UNL     1      41.285 -31.358   1.507  1.00  0.00     0.017 A 
ENDBRANCH   9  11
BRANCH   1  20
HETATM   20  C   UNL     1      44.506 -30.310  -2.471  1.00  0.00    -0.025 A 
HETATM   21  C   UNL     1      45.035 -31.504  -2.989  1.00  0.00     0.012 A 
HETATM   22  C   UNL     1      44.963 -31.783  -4.356  1.00  0.00     0.001 A 
HETATM   23  C   UNL     1      44.349 -30.882  -5.221  1.00  0.00     0.000 A 
HETATM   24  C   UNL     1      43.808 -29.699  -4.723  1.00  0.00     0.001 A 
HETATM   25  C   UNL     1      43.886 -29.415  -3.358  1.00  0.00     0.012 A 
ENDBRANCH   1  20
BRANCH   7  26
HETATM   26  N   UNL     1      46.986 -28.650  -2.353  1.00  0.00    -0.286 NA
HETATM   27  H   UNL     1      46.418 -29.384  -2.768  1.00  0.00     0.125 HD
HETATM   28  H   UNL     1      47.973 -28.768  -2.553  1.00  0.00     0.125 HD
ENDBRANCH   7  26
TORSDOF 3
ENDMDL
