MODEL 1
REMARK VINA RESULT:      -8.3      0.000      0.000
REMARK  3 active torsions:
REMARK  status: ('A' for Active; 'I' for Inactive)
REMARK    1  A    between atoms: C_8  and  C_9 
REMARK    2  A    between atoms: C_10  and  O_11 
REMARK    3  A    between atoms: C_24  and  N_25 
ROOT
HETATM    1  C   UNL     1      40.113 -16.024   6.588  1.00  0.00     0.073 C 
HETATM    2  C   UNL     1      41.389 -15.303   6.821  1.00  0.00     0.062 A 
HETATM    3  N   UNL     1      42.149 -15.613   7.885  1.00  0.00    -0.177 NA
HETATM    4  N   UNL     1      43.194 -14.765   7.805  1.00  0.00    -0.256 N 
HETATM    5  H   UNL     1      43.916 -14.810   8.514  1.00  0.00     0.191 HD
HETATM    6  C   UNL     1      43.111 -13.928   6.742  1.00  0.00     0.175 A 
HETATM    7  C   UNL     1      41.968 -14.260   6.058  1.00  0.00     0.034 A 
HETATM    8  C   UNL     1      41.581 -13.480   4.848  1.00  0.00     0.108 A 
HETATM    9  C   UNL     1      42.660 -12.451   4.507  1.00  0.00     0.067 A 
HETATM   10  C   UNL     1      42.456 -11.638   3.239  1.00  0.00     0.020 C 
HETATM   11  N   UNL     1      42.286 -10.963   2.187  1.00  0.00    -0.096 N 
HETATM   12  C   UNL     1      43.759 -12.237   5.280  1.00  0.00     0.139 A 
HETATM   13  O   UNL     1      43.995 -12.980   6.453  1.00  0.00    -0.279 OA
ENDROOT
BRANCH   8  14
HETATM   14  C   UNL     1      41.231 -14.472   3.733  1.00  0.00     0.000 A 
HETATM   15  C   UNL     1      40.075 -14.192   2.951  1.00  0.00     0.076 A 
HETATM   16  C   UNL     1      39.729 -15.015   1.882  1.00  0.00     0.038 A 
HETATM   17  C   UNL     1      40.510 -16.121   1.566  1.00  0.00     0.015 A 
HETATM   18  C   UNL     1      41.645 -16.439   2.313  1.00  0.00    -0.025 A 
HETATM   19  C   UNL     1      42.025 -15.633   3.417  1.00  0.00    -0.016 A 
HETATM   20  C   UNL     1      42.399 -17.567   1.943  1.00  0.00     0.012 A 
HETATM   21  C   UNL     1      43.182 -16.058   4.122  1.00  0.00     0.013 A 
HETATM   22  C   UNL     1      43.926 -17.182   3.747  1.00  0.00     0.001 A 
HETATM   23  C   UNL     1      43.537 -17.935   2.653  1.00  0.00     0.001 A 
BRANCH  15  24
HETATM   24  O   UNL     1      39.349 -13.084   3.313  1.00  0.00    -0.355 OA
HETATM   25  C   UNL     1      38.826 -12.258   2.278  1.00  0.00     0.210 C 
ENDBRANCH  15  24
ENDBRANCH   8  14
BRANCH  12  26
HETATM   26  N   UNL     1      44.751 -11.318   5.025  1.00  0.00    -0.282 NA
HETATM   27  H   UNL     1      45.375 -11.114   5.801  1.00  0.00     0.126 HD
HETATM   28  H   UNL     1      45.243 -11.515   4.158  1.00  0.00     0.126 HD
ENDBRANCH  12  26
TORSDOF 3
ENDMDL
MODEL 2
REMARK VINA RESULT:      -7.7      2.149      4.204
REMARK  3 active torsions:
REMARK  status: ('A' for Active; 'I' for Inactive)
REMARK    1  A    between atoms: C_8  and  C_9 
REMARK    2  A    between atoms: C_10  and  O_11 
REMARK    3  A    between atoms: C_24  and  N_25 
ROOT
HETATM    1  C   UNL     1      40.890 -16.778   1.912  1.00  0.00     0.073 C 
HETATM    2  C   UNL     1      40.712 -15.391   1.419  1.00  0.00     0.062 A 
HETATM    3  N   UNL     1      39.882 -15.146   0.391  1.00  0.00    -0.177 NA
HETATM    4  N   UNL     1      39.980 -13.817   0.192  1.00  0.00    -0.256 N 
HETATM    5  H   UNL     1      39.434 -13.390  -0.547  1.00  0.00     0.191 HD
HETATM    6  C   UNL     1      40.849 -13.222   1.046  1.00  0.00     0.175 A 
HETATM    7  C   UNL     1      41.328 -14.201   1.880  1.00  0.00     0.034 A 
HETATM    8  C   UNL     1      42.345 -13.856   2.914  1.00  0.00     0.108 A 
HETATM    9  C   UNL     1      42.606 -12.350   2.926  1.00  0.00     0.067 A 
HETATM   10  C   UNL     1      43.552 -11.826   3.993  1.00  0.00     0.020 C 
HETATM   11  N   UNL     1      44.338 -11.392   4.879  1.00  0.00    -0.096 N 
HETATM   12  C   UNL     1      42.045 -11.487   2.035  1.00  0.00     0.139 A 
HETATM   13  O   UNL     1      41.150 -11.927   1.041  1.00  0.00    -0.279 OA
ENDROOT
BRANCH   8  14
HETATM   14  C   UNL     1      41.894 -14.465   4.247  1.00  0.00     0.000 A 
HETATM   15  C   UNL     1      40.754 -13.889   4.873  1.00  0.00     0.076 A 
HETATM   16  C   UNL     1      40.249 -14.427   6.055  1.00  0.00     0.038 A 
HETATM   17  C   UNL     1      40.855 -15.535   6.636  1.00  0.00     0.015 A 
HETATM   18  C   UNL     1      41.983 -16.125   6.062  1.00  0.00    -0.025 A 
HETATM   19  C   UNL     1      42.535 -15.599   4.865  1.00  0.00    -0.016 A 
HETATM   20  C   UNL     1      42.550 -17.246   6.692  1.00  0.00     0.012 A 
HETATM   21  C   UNL     1      43.694 -16.259   4.378  1.00  0.00     0.013 A 
HETATM   22  C   UNL     1      44.252 -17.375   5.012  1.00  0.00     0.001 A 
HETATM   23  C   UNL     1      43.676 -17.872   6.169  1.00  0.00     0.001 A 
BRANCH  15  24
HETATM   24  O   UNL     1      40.200 -12.799   4.247  1.00  0.00    -0.355 OA
HETATM   25  C   UNL     1      39.475 -11.866   5.042  1.00  0.00     0.210 C 
ENDBRANCH  15  24
ENDBRANCH   8  14
BRANCH  12  26
HETATM   26  N   UNL     1      42.256 -10.128   1.996  1.00  0.00    -0.282 NA
HETATM   27  H   UNL     1      43.035  -9.785   2.551  1.00  0.00     0.126 HD
HETATM   28  H   UNL     1      42.254  -9.767   1.045  1.00  0.00     0.126 HD
ENDBRANCH  12  26
TORSDOF 3
ENDMDL
MODEL 3
REMARK VINA RESULT:      -7.6      8.402     10.297
REMARK  3 active torsions:
REMARK  status: ('A' for Active; 'I' for Inactive)
REMARK    1  A    between atoms: C_8  and  C_9 
REMARK    2  A    between atoms: C_10  and  O_11 
REMARK    3  A    between atoms: C_24  and  N_25 
ROOT
HETATM    1  C   UNL     1      42.866  -6.694  14.162  1.00  0.00     0.073 C 
HETATM    2  C   UNL     1      42.263  -5.936  13.038  1.00  0.00     0.062 A 
HETATM    3  N   UNL     1      42.450  -4.608  12.948  1.00  0.00    -0.177 NA
HETATM    4  N   UNL     1      41.756  -4.248  11.850  1.00  0.00    -0.256 N 
HETATM    5  H   UNL     1      41.748  -3.273  11.575  1.00  0.00     0.191 HD
HETATM    6  C   UNL     1      41.131  -5.295  11.258  1.00  0.00     0.175 A 
HETATM    7  C   UNL     1      41.454  -6.417  11.979  1.00  0.00     0.034 A 
HETATM    8  C   UNL     1      40.878  -7.735  11.589  1.00  0.00     0.108 A 
HETATM    9  C   UNL     1      40.060  -7.602  10.304  1.00  0.00     0.067 A 
HETATM   10  C   UNL     1      39.482  -8.882   9.723  1.00  0.00     0.020 C 
HETATM   11  N   UNL     1      39.004  -9.944   9.241  1.00  0.00    -0.096 N 
HETATM   12  C   UNL     1      39.829  -6.412   9.684  1.00  0.00     0.139 A 
HETATM   13  O   UNL     1      40.359  -5.205  10.180  1.00  0.00    -0.279 OA
ENDROOT
BRANCH   8  14
HETATM   14  C   UNL     1      42.016  -8.761  11.551  1.00  0.00     0.000 A 
HETATM   15  C   UNL     1      41.950  -9.840  12.476  1.00  0.00     0.076 A 
HETATM   16  C   UNL     1      42.917 -10.845  12.459  1.00  0.00     0.038 A 
HETATM   17  C   UNL     1      43.957 -10.802  11.538  1.00  0.00     0.015 A 
HETATM   18  C   UNL     1      44.066  -9.755  10.620  1.00  0.00    -0.025 A 
HETATM   19  C   UNL     1      43.109  -8.707  10.612  1.00  0.00    -0.016 A 
HETATM   20  C   UNL     1      45.137  -9.768   9.709  1.00  0.00     0.012 A 
HETATM   21  C   UNL     1      43.326  -7.682   9.655  1.00  0.00     0.013 A 
HETATM   22  C   UNL     1      44.394  -7.703   8.752  1.00  0.00     0.001 A 
HETATM   23  C   UNL     1      45.299  -8.751   8.776  1.00  0.00     0.001 A 
BRANCH  15  24
HETATM   24  O   UNL     1      40.897  -9.826  13.357  1.00  0.00    -0.355 OA
HETATM   25  C   UNL     1      39.787 -10.676  13.089  1.00  0.00     0.210 C 
ENDBRANCH  15  24
ENDBRANCH   8  14
BRANCH  12  26
HETATM   26  N   UNL     1      39.092  -6.237   8.536  1.00  0.00    -0.282 NA
HETATM   27  H   UNL     1      39.387  -6.788   7.734  1.00  0.00     0.126 HD
HETATM   28  H   UNL     1      38.092  -6.288   8.710  1.00  0.00     0.126 HD
ENDBRANCH  12  26
TORSDOF 3
ENDMDL
MODEL 4
REMARK VINA RESULT:      -7.6      2.075      3.148
REMARK  3 active torsions:
REMARK  status: ('A' for Active; 'I' for Inactive)
REMARK    1  A    between atoms: C_8  and  C_9 
REMARK    2  A    between atoms: C_10  and  O_11 
REMARK    3  A    between atoms: C_24  and  N_25 
ROOT
HETATM    1  C   UNL     1      43.559 -13.456   7.393  1.00  0.00     0.073 C 
HETATM    2  C   UNL     1      43.922 -12.599   6.238  1.00  0.00     0.062 A 
HETATM    3  N   UNL     1      45.142 -12.038   6.177  1.00  0.00    -0.177 NA
HETATM    4  N   UNL     1      45.121 -11.320   5.037  1.00  0.00    -0.256 N 
HETATM    5  H   UNL     1      45.948 -10.797   4.772  1.00  0.00     0.191 HD
HETATM    6  C   UNL     1      43.932 -11.396   4.390  1.00  0.00     0.175 A 
HETATM    7  C   UNL     1      43.132 -12.239   5.119  1.00  0.00     0.034 A 
HETATM    8  C   UNL     1      41.732 -12.494   4.674  1.00  0.00     0.108 A 
HETATM    9  C   UNL     1      41.462 -11.805   3.336  1.00  0.00     0.067 A 
HETATM   10  C   UNL     1      40.103 -12.048   2.701  1.00  0.00     0.020 C 
HETATM   11  N   UNL     1      38.975 -12.251   2.174  1.00  0.00    -0.096 N 
HETATM   12  C   UNL     1      42.365 -10.998   2.716  1.00  0.00     0.139 A 
HETATM   13  O   UNL     1      43.641 -10.759   3.261  1.00  0.00    -0.279 OA
ENDROOT
BRANCH   8  14
HETATM   14  C   UNL     1      41.490 -14.007   4.705  1.00  0.00     0.000 A 
HETATM   15  C   UNL     1      40.610 -14.506   5.706  1.00  0.00     0.076 A 
HETATM   16  C   UNL     1      40.294 -15.862   5.758  1.00  0.00     0.038 A 
HETATM   17  C   UNL     1      40.835 -16.744   4.830  1.00  0.00     0.015 A 
HETATM   18  C   UNL     1      41.712 -16.300   3.838  1.00  0.00    -0.025 A 
HETATM   19  C   UNL     1      42.069 -14.929   3.759  1.00  0.00    -0.016 A 
HETATM   20  C   UNL     1      42.225 -17.238   2.925  1.00  0.00     0.012 A 
HETATM   21  C   UNL     1      42.983 -14.588   2.728  1.00  0.00     0.013 A 
HETATM   22  C   UNL     1      43.488 -15.528   1.824  1.00  0.00     0.001 A 
HETATM   23  C   UNL     1      43.105 -16.855   1.919  1.00  0.00     0.001 A 
BRANCH  15  24
HETATM   24  O   UNL     1      40.106 -13.582   6.590  1.00  0.00    -0.355 OA
HETATM   25  C   UNL     1      39.114 -12.676   6.119  1.00  0.00     0.210 C 
ENDBRANCH  15  24
ENDBRANCH   8  14
BRANCH  12  26
HETATM   26  N   UNL     1      42.168 -10.346   1.520  1.00  0.00    -0.282 NA
HETATM   27  H   UNL     1      41.848 -10.926   0.749  1.00  0.00     0.126 HD
HETATM   28  H   UNL     1      41.623  -9.495   1.632  1.00  0.00     0.126 HD
ENDBRANCH  12  26
TORSDOF 3
ENDMDL
MODEL 5
REMARK VINA RESULT:      -7.5      8.265      9.845
REMARK  3 active torsions:
REMARK  status: ('A' for Active; 'I' for Inactive)
REMARK    1  A    between atoms: C_8  and  C_9 
REMARK    2  A    between atoms: C_10  and  O_11 
REMARK    3  A    between atoms: C_24  and  N_25 
ROOT
HETATM    1  C   UNL     1      39.089  -9.442   9.131  1.00  0.00     0.073 C 
HETATM    2  C   UNL     1      39.267  -9.894  10.533  1.00  0.00     0.062 A 
HETATM    3  N   UNL     1      38.765 -11.078  10.924  1.00  0.00    -0.177 NA
HETATM    4  N   UNL     1      39.077 -11.157  12.232  1.00  0.00    -0.256 N 
HETATM    5  H   UNL     1      38.795 -11.978  12.755  1.00  0.00     0.191 HD
HETATM    6  C   UNL     1      39.742 -10.063  12.680  1.00  0.00     0.175 A 
HETATM    7  C   UNL     1      39.912  -9.228  11.603  1.00  0.00     0.034 A 
HETATM    8  C   UNL     1      40.584  -7.911  11.792  1.00  0.00     0.108 A 
HETATM    9  C   UNL     1      41.090  -7.769  13.228  1.00  0.00     0.067 A 
HETATM   10  C   UNL     1      41.883  -6.515  13.555  1.00  0.00     0.020 C 
HETATM   11  N   UNL     1      42.542  -5.474  13.826  1.00  0.00    -0.096 N 
HETATM   12  C   UNL     1      40.853  -8.694  14.199  1.00  0.00     0.139 A 
HETATM   13  O   UNL     1      40.137  -9.877  13.935  1.00  0.00    -0.279 OA
ENDROOT
BRANCH   8  14
HETATM   14  C   UNL     1      41.643  -7.755  10.695  1.00  0.00     0.000 A 
HETATM   15  C   UNL     1      41.470  -6.687   9.770  1.00  0.00     0.076 A 
HETATM   16  C   UNL     1      42.424  -6.445   8.783  1.00  0.00     0.038 A 
HETATM   17  C   UNL     1      43.556  -7.246   8.691  1.00  0.00     0.015 A 
HETATM   18  C   UNL     1      43.761  -8.311   9.570  1.00  0.00    -0.025 A 
HETATM   19  C   UNL     1      42.807  -8.598  10.581  1.00  0.00    -0.016 A 
HETATM   20  C   UNL     1      44.927  -9.083   9.431  1.00  0.00     0.012 A 
HETATM   21  C   UNL     1      43.101  -9.716  11.406  1.00  0.00     0.013 A 
HETATM   22  C   UNL     1      44.264 -10.479  11.260  1.00  0.00     0.001 A 
HETATM   23  C   UNL     1      45.181 -10.159  10.274  1.00  0.00     0.001 A 
BRANCH  15  24
HETATM   24  O   UNL     1      40.332  -5.932   9.917  1.00  0.00    -0.355 OA
HETATM   25  C   UNL     1      39.539  -5.683   8.762  1.00  0.00     0.210 C 
ENDBRANCH  15  24
ENDBRANCH   8  14
BRANCH  12  26
HETATM   26  N   UNL     1      41.274  -8.608  15.506  1.00  0.00    -0.282 NA
HETATM   27  H   UNL     1      40.617  -8.944  16.204  1.00  0.00     0.126 HD
HETATM   28  H   UNL     1      42.214  -8.976  15.631  1.00  0.00     0.126 HD
ENDBRANCH  12  26
TORSDOF 3
ENDMDL
MODEL 6
REMARK VINA RESULT:      -7.3     15.308     17.583
REMARK  3 active torsions:
REMARK  status: ('A' for Active; 'I' for Inactive)
REMARK    1  A    between atoms: C_8  and  C_9 
REMARK    2  A    between atoms: C_10  and  O_11 
REMARK    3  A    between atoms: C_24  and  N_25 
ROOT
HETATM    1  C   UNL     1      48.628 -31.924  -1.056  1.00  0.00     0.073 C 
HETATM    2  C   UNL     1      48.312 -30.844  -0.090  1.00  0.00     0.062 A 
HETATM    3  N   UNL     1      49.284 -30.017   0.333  1.00  0.00    -0.177 NA
HETATM    4  N   UNL     1      48.667 -29.195   1.204  1.00  0.00    -0.256 N 
HETATM    5  H   UNL     1      49.208 -28.472   1.663  1.00  0.00     0.191 HD
HETATM    6  C   UNL     1      47.351 -29.484   1.356  1.00  0.00     0.175 A 
HETATM    7  C   UNL     1      47.070 -30.531   0.513  1.00  0.00     0.034 A 
HETATM    8  C   UNL     1      45.694 -31.104   0.484  1.00  0.00     0.108 A 
HETATM    9  C   UNL     1      44.758 -30.295   1.383  1.00  0.00     0.067 A 
HETATM   10  C   UNL     1      43.293 -30.699   1.389  1.00  0.00     0.020 C 
HETATM   11  N   UNL     1      42.077 -31.034   1.392  1.00  0.00    -0.096 N 
HETATM   12  C   UNL     1      45.179 -29.262   2.164  1.00  0.00     0.139 A 
HETATM   13  O   UNL     1      46.524 -28.845   2.177  1.00  0.00    -0.279 OA
ENDROOT
BRANCH   8  14
HETATM   14  C   UNL     1      45.262 -31.234  -0.981  1.00  0.00     0.000 A 
HETATM   15  C   UNL     1      44.857 -32.523  -1.428  1.00  0.00     0.076 A 
HETATM   16  C   UNL     1      44.394 -32.706  -2.729  1.00  0.00     0.038 A 
HETATM   17  C   UNL     1      44.322 -31.630  -3.606  1.00  0.00     0.015 A 
HETATM   18  C   UNL     1      44.719 -30.351  -3.213  1.00  0.00    -0.025 A 
HETATM   19  C   UNL     1      45.209 -30.125  -1.900  1.00  0.00    -0.016 A 
HETATM   20  C   UNL     1      44.619 -29.300  -4.141  1.00  0.00     0.012 A 
HETATM   21  C   UNL     1      45.607 -28.793  -1.611  1.00  0.00     0.013 A 
HETATM   22  C   UNL     1      45.504 -27.754  -2.541  1.00  0.00     0.001 A 
HETATM   23  C   UNL     1      45.005 -28.007  -3.807  1.00  0.00     0.001 A 
BRANCH  15  24
HETATM   24  O   UNL     1      44.950 -33.543  -0.512  1.00  0.00    -0.355 OA
HETATM   25  C   UNL     1      43.747 -34.185  -0.101  1.00  0.00     0.210 C 
ENDBRANCH  15  24
ENDBRANCH   8  14
BRANCH  12  26
HETATM   26  N   UNL     1      44.382 -28.512   2.997  1.00  0.00    -0.282 NA
HETATM   27  H   UNL     1      43.447 -28.876   3.160  1.00  0.00     0.126 HD
HETATM   28  H   UNL     1      44.863 -28.250   3.854  1.00  0.00     0.126 HD
ENDBRANCH  12  26
TORSDOF 3
ENDMDL
MODEL 7
REMARK VINA RESULT:      -7.1     15.422     17.944
REMARK  3 active torsions:
REMARK  status: ('A' for Active; 'I' for Inactive)
REMARK    1  A    between atoms: C_8  and  C_9 
REMARK    2  A    between atoms: C_10  and  O_11 
REMARK    3  A    between atoms: C_24  and  N_25 
ROOT
HETATM    1  C   UNL     1      44.359 -30.999  -4.338  1.00  0.00     0.073 C 
HETATM    2  C   UNL     1      44.952 -29.777  -3.740  1.00  0.00     0.062 A 
HETATM    3  N   UNL     1      44.766 -28.584  -4.331  1.00  0.00    -0.177 NA
HETATM    4  N   UNL     1      45.449 -27.719  -3.555  1.00  0.00    -0.256 N 
HETATM    5  H   UNL     1      45.457 -26.737  -3.806  1.00  0.00     0.191 HD
HETATM    6  C   UNL     1      46.066 -28.325  -2.511  1.00  0.00     0.175 A 
HETATM    7  C   UNL     1      45.748 -29.658  -2.575  1.00  0.00     0.034 A 
HETATM    8  C   UNL     1      46.318 -30.600  -1.570  1.00  0.00     0.108 A 
HETATM    9  C   UNL     1      47.122 -29.837  -0.517  1.00  0.00     0.067 A 
HETATM   10  C   UNL     1      47.691 -30.651   0.634  1.00  0.00     0.020 C 
HETATM   11  N   UNL     1      48.162 -31.326   1.589  1.00  0.00    -0.096 N 
HETATM   12  C   UNL     1      47.349 -28.497  -0.576  1.00  0.00     0.139 A 
HETATM   13  O   UNL     1      46.826 -27.703  -1.616  1.00  0.00    -0.279 OA
ENDROOT
BRANCH   8  14
HETATM   14  C   UNL     1      45.177 -31.472  -1.034  1.00  0.00     0.000 A 
HETATM   15  C   UNL     1      45.205 -32.857  -1.363  1.00  0.00     0.076 A 
HETATM   16  C   UNL     1      44.235 -33.723  -0.861  1.00  0.00     0.038 A 
HETATM   17  C   UNL     1      43.229 -33.243  -0.031  1.00  0.00     0.015 A 
HETATM   18  C   UNL     1      43.156 -31.891   0.309  1.00  0.00    -0.025 A 
HETATM   19  C   UNL     1      44.117 -30.974  -0.192  1.00  0.00    -0.016 A 
HETATM   20  C   UNL     1      42.118 -31.464   1.155  1.00  0.00     0.012 A 
HETATM   21  C   UNL     1      43.939 -29.620   0.196  1.00  0.00     0.013 A 
HETATM   22  C   UNL     1      42.903 -29.205   1.040  1.00  0.00     0.001 A 
HETATM   23  C   UNL     1      41.994 -30.130   1.524  1.00  0.00     0.001 A 
BRANCH  15  24
HETATM   24  O   UNL     1      46.227 -33.267  -2.184  1.00  0.00    -0.355 OA
HETATM   25  C   UNL     1      45.933 -34.233  -3.188  1.00  0.00     0.210 C 
ENDBRANCH  15  24
ENDBRANCH   8  14
BRANCH  12  26
HETATM   26  N   UNL     1      48.074 -27.766   0.337  1.00  0.00    -0.282 NA
HETATM   27  H   UNL     1      48.793 -28.278   0.841  1.00  0.00     0.126 HD
HETATM   28  H   UNL     1      48.408 -26.888  -0.053  1.00  0.00     0.126 HD
ENDBRANCH  12  26
TORSDOF 3
ENDMDL
MODEL 8
REMARK VINA RESULT:      -7.1      2.292      4.366
REMARK  3 active torsions:
REMARK  status: ('A' for Active; 'I' for Inactive)
REMARK    1  A    between atoms: C_8  and  C_9 
REMARK    2  A    between atoms: C_10  and  O_11 
REMARK    3  A    between atoms: C_24  and  N_25 
ROOT
HETATM    1  C   UNL     1      39.953 -14.330   0.280  1.00  0.00     0.073 C 
HETATM    2  C   UNL     1      39.765 -12.927   0.724  1.00  0.00     0.062 A 
HETATM    3  N   UNL     1      38.755 -12.195   0.223  1.00  0.00    -0.177 NA
HETATM    4  N   UNL     1      38.894 -10.990   0.809  1.00  0.00    -0.256 N 
HETATM    5  H   UNL     1      38.234 -10.256   0.582  1.00  0.00     0.191 HD
HETATM    6  C   UNL     1      39.960 -10.933   1.646  1.00  0.00     0.175 A 
HETATM    7  C   UNL     1      40.539 -12.178   1.644  1.00  0.00     0.034 A 
HETATM    8  C   UNL     1      41.770 -12.419   2.449  1.00  0.00     0.108 A 
HETATM    9  C   UNL     1      42.124 -11.178   3.269  1.00  0.00     0.067 A 
HETATM   10  C   UNL     1      43.305 -11.297   4.218  1.00  0.00     0.020 C 
HETATM   11  N   UNL     1      44.286 -11.396   5.005  1.00  0.00    -0.096 N 
HETATM   12  C   UNL     1      41.445 -10.002   3.177  1.00  0.00     0.139 A 
HETATM   13  O   UNL     1      40.335  -9.853   2.323  1.00  0.00    -0.279 OA
ENDROOT
BRANCH   8  14
HETATM   14  C   UNL     1      41.571 -13.711   3.249  1.00  0.00     0.000 A 
HETATM   15  C   UNL     1      40.676 -13.662   4.354  1.00  0.00     0.076 A 
HETATM   16  C   UNL     1      40.399 -14.813   5.090  1.00  0.00     0.038 A 
HETATM   17  C   UNL     1      40.994 -16.023   4.752  1.00  0.00     0.015 A 
HETATM   18  C   UNL     1      41.887 -16.114   3.682  1.00  0.00    -0.025 A 
HETATM   19  C   UNL     1      42.205 -14.963   2.915  1.00  0.00    -0.016 A 
HETATM   20  C   UNL     1      42.454 -17.365   3.384  1.00  0.00     0.012 A 
HETATM   21  C   UNL     1      43.141 -15.161   1.866  1.00  0.00     0.013 A 
HETATM   22  C   UNL     1      43.700 -16.410   1.576  1.00  0.00     0.001 A 
HETATM   23  C   UNL     1      43.352 -17.515   2.334  1.00  0.00     0.001 A 
BRANCH  15  24
HETATM   24  O   UNL     1      40.120 -12.438   4.634  1.00  0.00    -0.355 OA
HETATM   25  C   UNL     1      39.680 -12.191   5.965  1.00  0.00     0.210 C 
ENDBRANCH  15  24
ENDBRANCH   8  14
BRANCH  12  26
HETATM   26  N   UNL     1      41.730  -8.855   3.882  1.00  0.00    -0.282 NA
HETATM   27  H   UNL     1      41.041  -8.112   3.813  1.00  0.00     0.126 HD
HETATM   28  H   UNL     1      42.010  -9.053   4.839  1.00  0.00     0.126 HD
ENDBRANCH  12  26
TORSDOF 3
ENDMDL
MODEL 9
REMARK VINA RESULT:      -6.8      3.748      6.915
REMARK  3 active torsions:
REMARK  status: ('A' for Active; 'I' for Inactive)
REMARK    1  A    between atoms: C_8  and  C_9 
REMARK    2  A    between atoms: C_10  and  O_11 
REMARK    3  A    between atoms: C_24  and  N_25 
ROOT
HETATM    1  C   UNL     1      40.798 -13.881   3.459  1.00  0.00     0.073 C 
HETATM    2  C   UNL     1      40.379 -14.320   2.105  1.00  0.00     0.062 A 
HETATM    3  N   UNL     1      39.805 -15.524   1.939  1.00  0.00    -0.177 NA
HETATM    4  N   UNL     1      39.584 -15.608   0.612  1.00  0.00    -0.256 N 
HETATM    5  H   UNL     1      39.150 -16.444   0.239  1.00  0.00     0.191 HD
HETATM    6  C   UNL     1      40.010 -14.510  -0.061  1.00  0.00     0.175 A 
HETATM    7  C   UNL     1      40.508 -13.635   0.873  1.00  0.00     0.034 A 
HETATM    8  C   UNL     1      41.093 -12.338   0.427  1.00  0.00     0.108 A 
HETATM    9  C   UNL     1      40.920 -12.163  -1.082  1.00  0.00     0.067 A 
HETATM   10  C   UNL     1      41.383 -10.843  -1.677  1.00  0.00     0.020 C 
HETATM   11  N   UNL     1      41.766  -9.748  -2.170  1.00  0.00    -0.096 N 
HETATM   12  C   UNL     1      40.392 -13.122  -1.890  1.00  0.00     0.139 A 
HETATM   13  O   UNL     1      39.936 -14.352  -1.378  1.00  0.00    -0.279 OA
ENDROOT
BRANCH   8  14
HETATM   14  C   UNL     1      40.501 -11.224   1.299  1.00  0.00     0.000 A 
HETATM   15  C   UNL     1      41.371 -10.596   2.233  1.00  0.00     0.076 A 
HETATM   16  C   UNL     1      40.921  -9.535   3.016  1.00  0.00     0.038 A 
HETATM   17  C   UNL     1      39.614  -9.078   2.893  1.00  0.00     0.015 A 
HETATM   18  C   UNL     1      38.722  -9.673   1.998  1.00  0.00    -0.025 A 
HETATM   19  C   UNL     1      39.138 -10.764   1.191  1.00  0.00    -0.016 A 
HETATM   20  C   UNL     1      37.414  -9.165   1.914  1.00  0.00     0.012 A 
HETATM   21  C   UNL     1      38.148 -11.309   0.332  1.00  0.00     0.013 A 
HETATM   22  C   UNL     1      36.848 -10.797   0.256  1.00  0.00     0.001 A 
HETATM   23  C   UNL     1      36.482  -9.720   1.044  1.00  0.00     0.001 A 
BRANCH  15  24
HETATM   24  O   UNL     1      42.650 -11.092   2.303  1.00  0.00    -0.355 OA
HETATM   25  C   UNL     1      43.239 -11.246   3.590  1.00  0.00     0.210 C 
ENDBRANCH  15  24
ENDBRANCH   8  14
BRANCH  12  26
HETATM   26  N   UNL     1      40.227 -13.020  -3.252  1.00  0.00    -0.282 NA
HETATM   27  H   UNL     1      40.108 -13.898  -3.750  1.00  0.00     0.126 HD
HETATM   28  H   UNL     1      39.531 -12.322  -3.502  1.00  0.00     0.126 HD
ENDBRANCH  12  26
TORSDOF 3
ENDMDL
MODEL 10
REMARK VINA RESULT:      -6.8      7.805      9.314
REMARK  3 active torsions:
REMARK  status: ('A' for Active; 'I' for Inactive)
REMARK    1  A    between atoms: C_8  and  C_9 
REMARK    2  A    between atoms: C_10  and  O_11 
REMARK    3  A    between atoms: C_24  and  N_25 
ROOT
HETATM    1  C   UNL     1      39.157 -10.270  10.585  1.00  0.00     0.073 C 
HETATM    2  C   UNL     1      39.845  -9.759  11.796  1.00  0.00     0.062 A 
HETATM    3  N   UNL     1      39.821 -10.474  12.933  1.00  0.00    -0.177 NA
HETATM    4  N   UNL     1      40.504  -9.720  13.816  1.00  0.00    -0.256 N 
HETATM    5  H   UNL     1      40.620 -10.059  14.764  1.00  0.00     0.191 HD
HETATM    6  C   UNL     1      40.942  -8.553  13.281  1.00  0.00     0.175 A 
HETATM    7  C   UNL     1      40.561  -8.548  11.962  1.00  0.00     0.034 A 
HETATM    8  C   UNL     1      40.871  -7.364  11.111  1.00  0.00     0.108 A 
HETATM    9  C   UNL     1      41.708  -6.349  11.890  1.00  0.00     0.067 A 
HETATM   10  C   UNL     1      42.186  -5.125  11.128  1.00  0.00     0.020 C 
HETATM   11  N   UNL     1      42.583  -4.109  10.494  1.00  0.00    -0.096 N 
HETATM   12  C   UNL     1      42.022  -6.493  13.207  1.00  0.00     0.139 A 
HETATM   13  O   UNL     1      41.614  -7.619  13.946  1.00  0.00    -0.279 OA
ENDROOT
BRANCH   8  14
HETATM   14  C   UNL     1      41.486  -7.868   9.800  1.00  0.00     0.000 A 
HETATM   15  C   UNL     1      40.766  -7.608   8.601  1.00  0.00     0.076 A 
HETATM   16  C   UNL     1      41.292  -7.981   7.366  1.00  0.00     0.038 A 
HETATM   17  C   UNL     1      42.528  -8.612   7.291  1.00  0.00     0.015 A 
HETATM   18  C   UNL     1      43.263  -8.897   8.443  1.00  0.00    -0.025 A 
HETATM   19  C   UNL     1      42.757  -8.544   9.722  1.00  0.00    -0.016 A 
HETATM   20  C   UNL     1      44.510  -9.533   8.306  1.00  0.00     0.012 A 
HETATM   21  C   UNL     1      43.574  -8.899  10.828  1.00  0.00     0.013 A 
HETATM   22  C   UNL     1      44.813  -9.531  10.681  1.00  0.00     0.001 A 
HETATM   23  C   UNL     1      45.284  -9.844   9.418  1.00  0.00     0.001 A 
BRANCH  15  24
HETATM   24  O   UNL     1      39.553  -6.979   8.743  1.00  0.00    -0.355 OA
HETATM   25  C   UNL     1      39.420  -5.657   8.231  1.00  0.00     0.210 C 
ENDBRANCH  15  24
ENDBRANCH   8  14
BRANCH  12  26
HETATM   26  N   UNL     1      42.759  -5.605  13.955  1.00  0.00    -0.282 NA
HETATM   27  H   UNL     1      43.567  -5.199  13.490  1.00  0.00     0.126 HD
HETATM   28  H   UNL     1      42.174  -4.912  14.415  1.00  0.00     0.126 HD
ENDBRANCH  12  26
TORSDOF 3
ENDMDL
