MODEL 1
REMARK VINA RESULT:     -10.7      0.000      0.000
REMARK  6 active torsions:
REMARK  status: ('A' for Active; 'I' for Inactive)
REMARK    1  A    between atoms: C_2  and  O_3 
REMARK    2  A    between atoms: O_3  and  C_4 
REMARK    3  A    between atoms: C_5  and  C_6 
REMARK       I    between atoms: C_6  and  N_7 
REMARK    4  A    between atoms: N_7  and  C_8 
REMARK    5  A    between atoms: N_9  and  C_10 
REMARK    6  A    between atoms: C_22  and  C_23 
ROOT
HETATM    1  C   UNL     1      40.799 -14.790   1.651  1.00  0.00     0.152 A 
HETATM    2  N   UNL     1      40.531 -13.430   1.701  1.00  0.00    -0.044 N 
HETATM    3  N   UNL     1      39.835 -12.993   0.608  1.00  0.00    -0.148 NA
HETATM    4  C   UNL     1      39.683 -14.097  -0.135  1.00  0.00     0.115 A 
HETATM    5  C   UNL     1      40.286 -15.229   0.452  1.00  0.00     0.087 A 
ENDROOT
BRANCH   1   6
HETATM    6  N   UNL     1      41.432 -15.452   2.690  1.00  0.00    -0.307 N 
HETATM    7  C   UNL     1      42.795 -15.647   2.750  1.00  0.00     0.261 C 
HETATM    8  O   UNL     1      43.656 -15.121   2.058  1.00  0.00    -0.267 OA
HETATM    9  H   UNL     1      40.840 -15.870   3.409  1.00  0.00     0.170 HD
BRANCH   7  10
HETATM   10  C   UNL     1      43.190 -16.604   3.810  1.00  0.00     0.076 A 
HETATM   11  C   UNL     1      43.418 -16.085   5.099  1.00  0.00     0.085 A 
HETATM   12  C   UNL     1      43.815 -16.955   6.110  1.00  0.00     0.039 A 
HETATM   13  C   UNL     1      43.994 -18.315   5.835  1.00  0.00     0.015 A 
HETATM   14  C   UNL     1      43.779 -18.836   4.549  1.00  0.00    -0.025 A 
HETATM   15  C   UNL     1      43.362 -17.977   3.504  1.00  0.00    -0.007 A 
HETATM   16  C   UNL     1      43.983 -20.201   4.292  1.00  0.00     0.012 A 
HETATM   17  C   UNL     1      43.156 -18.540   2.223  1.00  0.00     0.013 A 
HETATM   18  C   UNL     1      43.366 -19.899   1.984  1.00  0.00     0.001 A 
HETATM   19  C   UNL     1      43.780 -20.729   3.017  1.00  0.00     0.001 A 
BRANCH  11  20
HETATM   20  O   UNL     1      43.251 -14.735   5.255  1.00  0.00    -0.350 OA
BRANCH  20  21
HETATM   21  C   UNL     1      42.605 -14.264   6.434  1.00  0.00     0.171 C 
HETATM   22  C   UNL     1      41.108 -14.376   6.211  1.00  0.00     0.034 C 
ENDBRANCH  20  21
ENDBRANCH  11  20
ENDBRANCH   7  10
ENDBRANCH   1   6
BRANCH   2  23
HETATM   23  C   UNL     1      40.895 -12.516   2.710  1.00  0.00     0.732 A 
HETATM   24  N   UNL     1      40.049 -12.028   3.563  1.00  0.00    -0.067 NA
HETATM   25  C   UNL     1      40.566 -11.171   4.509  1.00  0.00     0.065 A 
HETATM   26  C   UNL     1      41.863 -10.816   4.581  1.00  0.00     0.036 A 
HETATM   27  C   UNL     1      39.562 -10.662   5.519  1.00  0.00     0.060 C 
HETATM   28  C   UNL     1      42.433  -9.886   5.611  1.00  0.00     0.046 C 
HETATM   29  C   UNL     1      42.797 -11.384   3.577  1.00  0.00     0.268 A 
HETATM   30  C   UNL     1      41.359  -9.141   6.406  1.00  0.00     0.005 C 
HETATM   31  C   UNL     1      40.204 -10.067   6.773  1.00  0.00     0.006 C 
HETATM   32  O   UNL     1      43.992 -11.116   3.569  1.00  0.00    -0.267 OA
HETATM   33  N   UNL     1      42.229 -12.229   2.677  1.00  0.00    -0.152 N 
HETATM   34  H   UNL     1      42.812 -12.662   1.968  1.00  0.00     0.188 HD
ENDBRANCH   2  23
BRANCH   4  35
HETATM   35  C   UNL     1      38.932 -14.104  -1.425  1.00  0.00     0.105 A 
HETATM   36  O   UNL     1      37.939 -13.220  -1.748  1.00  0.00    -0.320 OA
HETATM   37  C   UNL     1      37.512 -13.530  -2.998  1.00  0.00     0.142 A 
HETATM   38  C   UNL     1      38.212 -14.603  -3.495  1.00  0.00     0.027 A 
HETATM   39  C   UNL     1      39.127 -14.976  -2.480  1.00  0.00     0.041 A 
ENDBRANCH   4  35
TORSDOF 6
ENDMDL
MODEL 2
REMARK VINA RESULT:      -9.7      1.347      1.701
REMARK  6 active torsions:
REMARK  status: ('A' for Active; 'I' for Inactive)
REMARK    1  A    between atoms: C_2  and  O_3 
REMARK    2  A    between atoms: O_3  and  C_4 
REMARK    3  A    between atoms: C_5  and  C_6 
REMARK       I    between atoms: C_6  and  N_7 
REMARK    4  A    between atoms: N_7  and  C_8 
REMARK    5  A    between atoms: N_9  and  C_10 
REMARK    6  A    between atoms: C_22  and  C_23 
ROOT
HETATM    1  C   UNL     1      40.554 -14.147   1.658  1.00  0.00     0.152 A 
HETATM    2  N   UNL     1      40.064 -12.851   1.604  1.00  0.00    -0.044 N 
HETATM    3  N   UNL     1      39.384 -12.596   0.446  1.00  0.00    -0.148 NA
HETATM    4  C   UNL     1      39.469 -13.748  -0.233  1.00  0.00     0.115 A 
HETATM    5  C   UNL     1      40.207 -14.729   0.461  1.00  0.00     0.087 A 
ENDROOT
BRANCH   1   6
HETATM    6  N   UNL     1      41.213 -14.636   2.774  1.00  0.00    -0.307 N 
HETATM    7  C   UNL     1      42.585 -14.726   2.870  1.00  0.00     0.261 C 
HETATM    8  O   UNL     1      43.420 -14.225   2.130  1.00  0.00    -0.267 OA
HETATM    9  H   UNL     1      40.639 -15.009   3.532  1.00  0.00     0.170 HD
BRANCH   7  10
HETATM   10  C   UNL     1      43.026 -15.522   4.039  1.00  0.00     0.076 A 
HETATM   11  C   UNL     1      43.148 -14.851   5.272  1.00  0.00     0.085 A 
HETATM   12  C   UNL     1      43.585 -15.566   6.383  1.00  0.00     0.039 A 
HETATM   13  C   UNL     1      43.906 -16.922   6.262  1.00  0.00     0.015 A 
HETATM   14  C   UNL     1      43.797 -17.594   5.034  1.00  0.00    -0.025 A 
HETATM   15  C   UNL     1      43.343 -16.895   3.890  1.00  0.00    -0.007 A 
HETATM   16  C   UNL     1      44.142 -18.951   4.933  1.00  0.00     0.012 A 
HETATM   17  C   UNL     1      43.246 -17.607   2.672  1.00  0.00     0.013 A 
HETATM   18  C   UNL     1      43.596 -18.956   2.587  1.00  0.00     0.001 A 
HETATM   19  C   UNL     1      44.045 -19.627   3.717  1.00  0.00     0.001 A 
BRANCH  11  20
HETATM   20  O   UNL     1      42.846 -13.516   5.274  1.00  0.00    -0.350 OA
BRANCH  20  21
HETATM   21  C   UNL     1      43.797 -12.607   5.822  1.00  0.00     0.171 C 
HETATM   22  C   UNL     1      44.003 -11.495   4.809  1.00  0.00     0.034 C 
ENDBRANCH  20  21
ENDBRANCH  11  20
ENDBRANCH   7  10
ENDBRANCH   1   6
BRANCH   2  23
HETATM   23  C   UNL     1      40.199 -11.837   2.573  1.00  0.00     0.732 A 
HETATM   24  N   UNL     1      40.153 -12.064   3.849  1.00  0.00    -0.067 NA
HETATM   25  C   UNL     1      40.335 -10.972   4.668  1.00  0.00     0.065 A 
HETATM   26  C   UNL     1      40.537  -9.717   4.222  1.00  0.00     0.036 A 
HETATM   27  C   UNL     1      40.327 -11.281   6.148  1.00  0.00     0.060 C 
HETATM   28  C   UNL     1      40.739  -8.523   5.109  1.00  0.00     0.046 C 
HETATM   29  C   UNL     1      40.568  -9.495   2.755  1.00  0.00     0.268 A 
HETATM   30  C   UNL     1      40.407  -8.803   6.576  1.00  0.00     0.005 C 
HETATM   31  C   UNL     1      40.929 -10.168   7.008  1.00  0.00     0.006 C 
HETATM   32  O   UNL     1      40.747  -8.387   2.263  1.00  0.00    -0.267 OA
HETATM   33  N   UNL     1      40.391 -10.612   2.001  1.00  0.00    -0.152 N 
HETATM   34  H   UNL     1      40.412 -10.535   0.990  1.00  0.00     0.188 HD
ENDBRANCH   2  23
BRANCH   4  35
HETATM   35  C   UNL     1      38.822 -13.950  -1.563  1.00  0.00     0.105 A 
HETATM   36  O   UNL     1      39.080 -15.003  -2.398  1.00  0.00    -0.320 OA
HETATM   37  C   UNL     1      38.295 -14.851  -3.495  1.00  0.00     0.142 A 
HETATM   38  C   UNL     1      37.530 -13.715  -3.386  1.00  0.00     0.027 A 
HETATM   39  C   UNL     1      37.870 -13.131  -2.142  1.00  0.00     0.041 A 
ENDBRANCH   4  35
TORSDOF 6
ENDMDL
MODEL 3
REMARK VINA RESULT:      -9.6      2.941      6.817
REMARK  6 active torsions:
REMARK  status: ('A' for Active; 'I' for Inactive)
REMARK    1  A    between atoms: C_2  and  O_3 
REMARK    2  A    between atoms: O_3  and  C_4 
REMARK    3  A    between atoms: C_5  and  C_6 
REMARK       I    between atoms: C_6  and  N_7 
REMARK    4  A    between atoms: N_7  and  C_8 
REMARK    5  A    between atoms: N_9  and  C_10 
REMARK    6  A    between atoms: C_22  and  C_23 
ROOT
HETATM    1  C   UNL     1      43.285 -12.329   5.841  1.00  0.00     0.152 A 
HETATM    2  N   UNL     1      42.571 -11.149   5.698  1.00  0.00    -0.044 N 
HETATM    3  N   UNL     1      42.751 -10.297   6.752  1.00  0.00    -0.148 NA
HETATM    4  C   UNL     1      43.578 -10.967   7.566  1.00  0.00     0.115 A 
HETATM    5  C   UNL     1      43.915 -12.241   7.060  1.00  0.00     0.087 A 
ENDROOT
BRANCH   1   6
HETATM    6  N   UNL     1      43.301 -13.301   4.854  1.00  0.00    -0.307 N 
HETATM    7  C   UNL     1      42.349 -14.293   4.748  1.00  0.00     0.261 C 
HETATM    8  O   UNL     1      41.275 -14.363   5.329  1.00  0.00    -0.267 OA
HETATM    9  H   UNL     1      44.100 -13.312   4.219  1.00  0.00     0.170 HD
BRANCH   7  10
HETATM   10  C   UNL     1      42.734 -15.353   3.787  1.00  0.00     0.076 A 
HETATM   11  C   UNL     1      42.604 -15.061   2.415  1.00  0.00     0.085 A 
HETATM   12  C   UNL     1      42.933 -16.047   1.488  1.00  0.00     0.039 A 
HETATM   13  C   UNL     1      43.369 -17.302   1.923  1.00  0.00     0.015 A 
HETATM   14  C   UNL     1      43.489 -17.602   3.290  1.00  0.00    -0.025 A 
HETATM   15  C   UNL     1      43.175 -16.616   4.255  1.00  0.00    -0.007 A 
HETATM   16  C   UNL     1      43.912 -18.875   3.703  1.00  0.00     0.012 A 
HETATM   17  C   UNL     1      43.308 -16.957   5.621  1.00  0.00     0.013 A 
HETATM   18  C   UNL     1      43.728 -18.229   6.016  1.00  0.00     0.001 A 
HETATM   19  C   UNL     1      44.027 -19.188   5.058  1.00  0.00     0.001 A 
BRANCH  11  20
HETATM   20  O   UNL     1      42.133 -13.817   2.095  1.00  0.00    -0.350 OA
BRANCH  20  21
HETATM   21  C   UNL     1      40.985 -13.722   1.256  1.00  0.00     0.171 C 
HETATM   22  C   UNL     1      39.760 -13.759   2.152  1.00  0.00     0.034 C 
ENDBRANCH  20  21
ENDBRANCH  11  20
ENDBRANCH   7  10
ENDBRANCH   1   6
BRANCH   2  23
HETATM   23  C   UNL     1      41.725 -10.776   4.634  1.00  0.00     0.732 A 
HETATM   24  N   UNL     1      42.143 -10.619   3.417  1.00  0.00    -0.067 NA
HETATM   25  C   UNL     1      41.187 -10.285   2.484  1.00  0.00     0.065 A 
HETATM   26  C   UNL     1      39.884 -10.104   2.768  1.00  0.00     0.036 A 
HETATM   27  C   UNL     1      41.701 -10.162   1.067  1.00  0.00     0.060 C 
HETATM   28  C   UNL     1      38.837  -9.743   1.755  1.00  0.00     0.046 C 
HETATM   29  C   UNL     1      39.446 -10.277   4.175  1.00  0.00     0.268 A 
HETATM   30  C   UNL     1      39.426  -9.311   0.411  1.00  0.00     0.005 C 
HETATM   31  C   UNL     1      40.595 -10.204   0.011  1.00  0.00     0.006 C 
HETATM   32  O   UNL     1      38.280 -10.133   4.522  1.00  0.00    -0.267 OA
HETATM   33  N   UNL     1      40.434 -10.615   5.046  1.00  0.00    -0.152 N 
HETATM   34  H   UNL     1      40.203 -10.760   6.024  1.00  0.00     0.188 HD
ENDBRANCH   2  23
BRANCH   4  35
HETATM   35  C   UNL     1      44.090 -10.395   8.845  1.00  0.00     0.105 A 
HETATM   36  O   UNL     1      43.305 -10.071   9.918  1.00  0.00    -0.320 OA
HETATM   37  C   UNL     1      44.125  -9.599  10.892  1.00  0.00     0.142 A 
HETATM   38  C   UNL     1      45.432  -9.610  10.468  1.00  0.00     0.027 A 
HETATM   39  C   UNL     1      45.411 -10.121   9.147  1.00  0.00     0.041 A 
ENDBRANCH   4  35
TORSDOF 6
ENDMDL
MODEL 4
REMARK VINA RESULT:      -9.2      2.093      7.081
REMARK  6 active torsions:
REMARK  status: ('A' for Active; 'I' for Inactive)
REMARK    1  A    between atoms: C_2  and  O_3 
REMARK    2  A    between atoms: O_3  and  C_4 
REMARK    3  A    between atoms: C_5  and  C_6 
REMARK       I    between atoms: C_6  and  N_7 
REMARK    4  A    between atoms: N_7  and  C_8 
REMARK    5  A    between atoms: N_9  and  C_10 
REMARK    6  A    between atoms: C_22  and  C_23 
ROOT
HETATM    1  C   UNL     1      42.701 -14.807   3.636  1.00  0.00     0.152 A 
HETATM    2  N   UNL     1      42.195 -15.101   2.379  1.00  0.00    -0.044 N 
HETATM    3  N   UNL     1      42.376 -16.412   2.036  1.00  0.00    -0.148 NA
HETATM    4  C   UNL     1      43.017 -16.932   3.092  1.00  0.00     0.115 A 
HETATM    5  C   UNL     1      43.266 -15.973   4.095  1.00  0.00     0.087 A 
ENDROOT
BRANCH   1   6
HETATM    6  N   UNL     1      42.560 -13.553   4.208  1.00  0.00    -0.307 N 
HETATM    7  C   UNL     1      41.547 -13.226   5.085  1.00  0.00     0.261 C 
HETATM    8  O   UNL     1      40.772 -13.986   5.648  1.00  0.00    -0.267 OA
HETATM    9  H   UNL     1      43.206 -12.823   3.904  1.00  0.00     0.170 HD
BRANCH   7  10
HETATM   10  C   UNL     1      41.461 -11.769   5.340  1.00  0.00     0.076 A 
HETATM   11  C   UNL     1      42.352 -11.222   6.285  1.00  0.00     0.085 A 
HETATM   12  C   UNL     1      42.277  -9.861   6.565  1.00  0.00     0.039 A 
HETATM   13  C   UNL     1      41.323  -9.064   5.924  1.00  0.00     0.015 A 
HETATM   14  C   UNL     1      40.425  -9.606   4.991  1.00  0.00    -0.025 A 
HETATM   15  C   UNL     1      40.486 -10.984   4.676  1.00  0.00    -0.007 A 
HETATM   16  C   UNL     1      39.463  -8.789   4.373  1.00  0.00     0.012 A 
HETATM   17  C   UNL     1      39.564 -11.491   3.730  1.00  0.00     0.013 A 
HETATM   18  C   UNL     1      38.612 -10.667   3.127  1.00  0.00     0.001 A 
HETATM   19  C   UNL     1      38.560  -9.317   3.450  1.00  0.00     0.001 A 
BRANCH  11  20
HETATM   20  O   UNL     1      43.222 -12.094   6.882  1.00  0.00    -0.350 OA
BRANCH  20  21
HETATM   21  C   UNL     1      44.407 -11.569   7.473  1.00  0.00     0.171 C 
HETATM   22  C   UNL     1      45.486 -11.561   6.404  1.00  0.00     0.034 C 
ENDBRANCH  20  21
ENDBRANCH  11  20
ENDBRANCH   7  10
ENDBRANCH   1   6
BRANCH   2  23
HETATM   23  C   UNL     1      41.557 -14.225   1.479  1.00  0.00     0.732 A 
HETATM   24  N   UNL     1      41.749 -12.942   1.481  1.00  0.00    -0.067 NA
HETATM   25  C   UNL     1      41.077 -12.225   0.517  1.00  0.00     0.065 A 
HETATM   26  C   UNL     1      40.244 -12.771  -0.389  1.00  0.00     0.036 A 
HETATM   27  C   UNL     1      41.365 -10.740   0.515  1.00  0.00     0.060 C 
HETATM   28  C   UNL     1      39.511 -11.996  -1.444  1.00  0.00     0.046 C 
HETATM   29  C   UNL     1      40.038 -14.240  -0.349  1.00  0.00     0.268 A 
HETATM   30  C   UNL     1      39.563 -10.483  -1.221  1.00  0.00     0.005 C 
HETATM   31  C   UNL     1      40.954 -10.040  -0.780  1.00  0.00     0.006 C 
HETATM   32  O   UNL     1      39.299 -14.820  -1.136  1.00  0.00    -0.267 OA
HETATM   33  N   UNL     1      40.735 -14.892   0.618  1.00  0.00    -0.152 N 
HETATM   34  H   UNL     1      40.650 -15.901   0.695  1.00  0.00     0.188 HD
ENDBRANCH   2  23
BRANCH   4  35
HETATM   35  C   UNL     1      43.389 -18.374   3.179  1.00  0.00     0.105 A 
HETATM   36  O   UNL     1      43.938 -18.968   4.283  1.00  0.00    -0.320 OA
HETATM   37  C   UNL     1      44.120 -20.280   3.989  1.00  0.00     0.142 A 
HETATM   38  C   UNL     1      43.698 -20.551   2.709  1.00  0.00     0.027 A 
HETATM   39  C   UNL     1      43.228 -19.322   2.185  1.00  0.00     0.041 A 
ENDBRANCH   4  35
TORSDOF 6
ENDMDL
MODEL 5
REMARK VINA RESULT:      -9.2      2.415      3.133
REMARK  6 active torsions:
REMARK  status: ('A' for Active; 'I' for Inactive)
REMARK    1  A    between atoms: C_2  and  O_3 
REMARK    2  A    between atoms: O_3  and  C_4 
REMARK    3  A    between atoms: C_5  and  C_6 
REMARK       I    between atoms: C_6  and  N_7 
REMARK    4  A    between atoms: N_7  and  C_8 
REMARK    5  A    between atoms: N_9  and  C_10 
REMARK    6  A    between atoms: C_22  and  C_23 
ROOT
HETATM    1  C   UNL     1      42.254 -13.069   2.321  1.00  0.00     0.152 A 
HETATM    2  N   UNL     1      42.236 -11.821   2.927  1.00  0.00    -0.044 N 
HETATM    3  N   UNL     1      41.706 -10.855   2.118  1.00  0.00    -0.148 NA
HETATM    4  C   UNL     1      41.405 -11.513   0.990  1.00  0.00     0.115 A 
HETATM    5  C   UNL     1      41.752 -12.879   1.056  1.00  0.00     0.087 A 
ENDROOT
BRANCH   1   6
HETATM    6  N   UNL     1      42.686 -14.203   2.991  1.00  0.00    -0.307 N 
HETATM    7  C   UNL     1      41.850 -15.238   3.352  1.00  0.00     0.261 C 
HETATM    8  O   UNL     1      40.700 -15.433   2.982  1.00  0.00    -0.267 OA
HETATM    9  H   UNL     1      43.663 -14.230   3.286  1.00  0.00     0.170 HD
BRANCH   7  10
HETATM   10  C   UNL     1      42.494 -16.194   4.282  1.00  0.00     0.076 A 
HETATM   11  C   UNL     1      42.663 -15.784   5.619  1.00  0.00     0.085 A 
HETATM   12  C   UNL     1      43.289 -16.651   6.511  1.00  0.00     0.039 A 
HETATM   13  C   UNL     1      43.747 -17.897   6.073  1.00  0.00     0.015 A 
HETATM   14  C   UNL     1      43.591 -18.307   4.739  1.00  0.00    -0.025 A 
HETATM   15  C   UNL     1      42.947 -17.452   3.813  1.00  0.00    -0.007 A 
HETATM   16  C   UNL     1      44.075 -19.556   4.318  1.00  0.00     0.012 A 
HETATM   17  C   UNL     1      42.809 -17.901   2.479  1.00  0.00     0.013 A 
HETATM   18  C   UNL     1      43.298 -19.145   2.075  1.00  0.00     0.001 A 
HETATM   19  C   UNL     1      43.932 -19.971   2.994  1.00  0.00     0.001 A 
BRANCH  11  20
HETATM   20  O   UNL     1      42.214 -14.531   5.937  1.00  0.00    -0.350 OA
BRANCH  20  21
HETATM   21  C   UNL     1      40.850 -14.378   6.320  1.00  0.00     0.171 C 
HETATM   22  C   UNL     1      40.304 -15.760   6.629  1.00  0.00     0.034 C 
ENDBRANCH  20  21
ENDBRANCH  11  20
ENDBRANCH   7  10
ENDBRANCH   1   6
BRANCH   2  23
HETATM   23  C   UNL     1      42.692 -11.482   4.216  1.00  0.00     0.732 A 
HETATM   24  N   UNL     1      43.921 -11.638   4.598  1.00  0.00    -0.067 NA
HETATM   25  C   UNL     1      44.217 -11.227   5.879  1.00  0.00     0.065 A 
HETATM   26  C   UNL     1      43.316 -10.703   6.732  1.00  0.00     0.036 A 
HETATM   27  C   UNL     1      45.669 -11.375   6.273  1.00  0.00     0.060 C 
HETATM   28  C   UNL     1      43.633 -10.251   8.128  1.00  0.00     0.046 C 
HETATM   29  C   UNL     1      41.916 -10.555   6.263  1.00  0.00     0.268 A 
HETATM   30  C   UNL     1      45.013 -10.705   8.607  1.00  0.00     0.005 C 
HETATM   31  C   UNL     1      46.055 -10.555   7.505  1.00  0.00     0.006 C 
HETATM   32  O   UNL     1      41.033 -10.087   6.973  1.00  0.00    -0.267 OA
HETATM   33  N   UNL     1      41.690 -10.969   4.989  1.00  0.00    -0.152 N 
HETATM   34  H   UNL     1      40.756 -10.886   4.600  1.00  0.00     0.188 HD
ENDBRANCH   2  23
BRANCH   4  35
HETATM   35  C   UNL     1      40.753 -10.854  -0.178  1.00  0.00     0.105 A 
HETATM   36  O   UNL     1      41.265 -10.843  -1.447  1.00  0.00    -0.320 OA
HETATM   37  C   UNL     1      40.388 -10.167  -2.233  1.00  0.00     0.142 A 
HETATM   38  C   UNL     1      39.311  -9.738  -1.493  1.00  0.00     0.027 A 
HETATM   39  C   UNL     1      39.546 -10.179  -0.168  1.00  0.00     0.041 A 
ENDBRANCH   4  35
TORSDOF 6
ENDMDL
MODEL 6
REMARK VINA RESULT:      -8.8      1.606      3.452
REMARK  6 active torsions:
REMARK  status: ('A' for Active; 'I' for Inactive)
REMARK    1  A    between atoms: C_2  and  O_3 
REMARK    2  A    between atoms: O_3  and  C_4 
REMARK    3  A    between atoms: C_5  and  C_6 
REMARK       I    between atoms: C_6  and  N_7 
REMARK    4  A    between atoms: N_7  and  C_8 
REMARK    5  A    between atoms: N_9  and  C_10 
REMARK    6  A    between atoms: C_22  and  C_23 
ROOT
HETATM    1  C   UNL     1      41.288 -14.303   1.501  1.00  0.00     0.152 A 
HETATM    2  N   UNL     1      40.939 -13.041   1.957  1.00  0.00    -0.044 N 
HETATM    3  N   UNL     1      40.110 -12.382   1.093  1.00  0.00    -0.148 NA
HETATM    4  C   UNL     1      39.956 -13.245   0.079  1.00  0.00     0.115 A 
HETATM    5  C   UNL     1      40.688 -14.436   0.271  1.00  0.00     0.087 A 
ENDROOT
BRANCH   1   6
HETATM    6  N   UNL     1      42.064 -15.167   2.257  1.00  0.00    -0.307 N 
HETATM    7  C   UNL     1      41.538 -16.107   3.118  1.00  0.00     0.261 C 
HETATM    8  O   UNL     1      40.374 -16.473   3.203  1.00  0.00    -0.267 OA
HETATM    9  H   UNL     1      43.077 -15.046   2.215  1.00  0.00     0.170 HD
BRANCH   7  10
HETATM   10  C   UNL     1      42.564 -16.713   3.997  1.00  0.00     0.076 A 
HETATM   11  C   UNL     1      43.344 -17.757   3.461  1.00  0.00     0.085 A 
HETATM   12  C   UNL     1      44.298 -18.364   4.272  1.00  0.00     0.039 A 
HETATM   13  C   UNL     1      44.462 -17.946   5.596  1.00  0.00     0.015 A 
HETATM   14  C   UNL     1      43.680 -16.914   6.140  1.00  0.00    -0.025 A 
HETATM   15  C   UNL     1      42.711 -16.269   5.335  1.00  0.00    -0.007 A 
HETATM   16  C   UNL     1      43.850 -16.524   7.478  1.00  0.00     0.012 A 
HETATM   17  C   UNL     1      41.944 -15.235   5.920  1.00  0.00     0.013 A 
HETATM   18  C   UNL     1      42.123 -14.860   7.253  1.00  0.00     0.001 A 
HETATM   19  C   UNL     1      43.074 -15.506   8.032  1.00  0.00     0.001 A 
BRANCH  11  20
HETATM   20  O   UNL     1      43.079 -18.115   2.166  1.00  0.00    -0.350 OA
BRANCH  20  21
HETATM   21  C   UNL     1      43.721 -19.273   1.640  1.00  0.00     0.171 C 
HETATM   22  C   UNL     1      42.811 -20.460   1.900  1.00  0.00     0.034 C 
ENDBRANCH  20  21
ENDBRANCH  11  20
ENDBRANCH   7  10
ENDBRANCH   1   6
BRANCH   2  23
HETATM   23  C   UNL     1      41.342 -12.414   3.154  1.00  0.00     0.732 A 
HETATM   24  N   UNL     1      42.486 -12.638   3.721  1.00  0.00    -0.067 NA
HETATM   25  C   UNL     1      42.745 -11.923   4.869  1.00  0.00     0.065 A 
HETATM   26  C   UNL     1      41.890 -11.042   5.421  1.00  0.00     0.036 A 
HETATM   27  C   UNL     1      44.109 -12.170   5.476  1.00  0.00     0.060 C 
HETATM   28  C   UNL     1      42.168 -10.257   6.670  1.00  0.00     0.046 C 
HETATM   29  C   UNL     1      40.584 -10.824   4.750  1.00  0.00     0.268 A 
HETATM   30  C   UNL     1      43.397 -10.758   7.431  1.00  0.00     0.005 C 
HETATM   31  C   UNL     1      44.536 -11.096   6.477  1.00  0.00     0.006 C 
HETATM   32  O   UNL     1      39.748 -10.041   5.183  1.00  0.00    -0.267 OA
HETATM   33  N   UNL     1      40.392 -11.552   3.619  1.00  0.00    -0.152 N 
HETATM   34  H   UNL     1      39.524 -11.444   3.103  1.00  0.00     0.188 HD
ENDBRANCH   2  23
BRANCH   4  35
HETATM   35  C   UNL     1      39.081 -12.962  -1.096  1.00  0.00     0.105 A 
HETATM   36  O   UNL     1      38.742 -11.708  -1.525  1.00  0.00    -0.320 OA
HETATM   37  C   UNL     1      37.955 -11.854  -2.621  1.00  0.00     0.142 A 
HETATM   38  C   UNL     1      37.776 -13.185  -2.912  1.00  0.00     0.027 A 
HETATM   39  C   UNL     1      38.500 -13.901  -1.928  1.00  0.00     0.041 A 
ENDBRANCH   4  35
TORSDOF 6
ENDMDL
MODEL 7
REMARK VINA RESULT:      -8.7      2.506      8.083
REMARK  6 active torsions:
REMARK  status: ('A' for Active; 'I' for Inactive)
REMARK    1  A    between atoms: C_2  and  O_3 
REMARK    2  A    between atoms: O_3  and  C_4 
REMARK    3  A    between atoms: C_5  and  C_6 
REMARK       I    between atoms: C_6  and  N_7 
REMARK    4  A    between atoms: N_7  and  C_8 
REMARK    5  A    between atoms: N_9  and  C_10 
REMARK    6  A    between atoms: C_22  and  C_23 
ROOT
HETATM    1  C   UNL     1      42.836 -12.056   4.414  1.00  0.00     0.152 A 
HETATM    2  N   UNL     1      43.314 -12.960   5.350  1.00  0.00    -0.044 N 
HETATM    3  N   UNL     1      43.686 -12.356   6.519  1.00  0.00    -0.148 NA
HETATM    4  C   UNL     1      43.447 -11.056   6.296  1.00  0.00     0.115 A 
HETATM    5  C   UNL     1      42.948 -10.816   4.999  1.00  0.00     0.087 A 
ENDROOT
BRANCH   1   6
HETATM    6  N   UNL     1      42.340 -12.464   3.187  1.00  0.00    -0.307 N 
HETATM    7  C   UNL     1      41.086 -12.126   2.722  1.00  0.00     0.261 C 
HETATM    8  O   UNL     1      40.323 -11.286   3.176  1.00  0.00    -0.267 OA
HETATM    9  H   UNL     1      42.915 -13.104   2.637  1.00  0.00     0.170 HD
BRANCH   7  10
HETATM   10  C   UNL     1      40.695 -12.899   1.520  1.00  0.00     0.076 A 
HETATM   11  C   UNL     1      40.276 -14.230   1.713  1.00  0.00     0.085 A 
HETATM   12  C   UNL     1      39.927 -14.990   0.600  1.00  0.00     0.039 A 
HETATM   13  C   UNL     1      40.007 -14.435  -0.680  1.00  0.00     0.015 A 
HETATM   14  C   UNL     1      40.435 -13.113  -0.880  1.00  0.00    -0.025 A 
HETATM   15  C   UNL     1      40.784 -12.312   0.233  1.00  0.00    -0.007 A 
HETATM   16  C   UNL     1      40.524 -12.583  -2.178  1.00  0.00     0.012 A 
HETATM   17  C   UNL     1      41.209 -10.986  -0.009  1.00  0.00     0.013 A 
HETATM   18  C   UNL     1      41.296 -10.475  -1.306  1.00  0.00     0.001 A 
HETATM   19  C   UNL     1      40.955 -11.274  -2.389  1.00  0.00     0.001 A 
BRANCH  11  20
HETATM   20  O   UNL     1      40.269 -14.689   3.003  1.00  0.00    -0.350 OA
BRANCH  20  21
HETATM   21  C   UNL     1      39.983 -16.066   3.230  1.00  0.00     0.171 C 
HETATM   22  C   UNL     1      40.121 -16.322   4.720  1.00  0.00     0.034 C 
ENDBRANCH  20  21
ENDBRANCH  11  20
ENDBRANCH   7  10
ENDBRANCH   1   6
BRANCH   2  23
HETATM   23  C   UNL     1      43.448 -14.356   5.211  1.00  0.00     0.732 A 
HETATM   24  N   UNL     1      43.341 -14.969   4.073  1.00  0.00    -0.067 NA
HETATM   25  C   UNL     1      43.530 -16.332   4.097  1.00  0.00     0.065 A 
HETATM   26  C   UNL     1      43.798 -17.040   5.211  1.00  0.00     0.036 A 
HETATM   27  C   UNL     1      43.450 -17.008   2.746  1.00  0.00     0.060 C 
HETATM   28  C   UNL     1      44.009 -18.525   5.243  1.00  0.00     0.046 C 
HETATM   29  C   UNL     1      43.898 -16.304   6.496  1.00  0.00     0.268 A 
HETATM   30  C   UNL     1      43.606 -19.216   3.939  1.00  0.00     0.005 C 
HETATM   31  C   UNL     1      44.058 -18.411   2.727  1.00  0.00     0.006 C 
HETATM   32  O   UNL     1      44.138 -16.868   7.557  1.00  0.00    -0.267 OA
HETATM   33  N   UNL     1      43.710 -14.961   6.406  1.00  0.00    -0.152 N 
HETATM   34  H   UNL     1      43.775 -14.395   7.245  1.00  0.00     0.188 HD
ENDBRANCH   2  23
BRANCH   4  35
HETATM   35  C   UNL     1      43.670 -10.006   7.332  1.00  0.00     0.105 A 
HETATM   36  O   UNL     1      42.865  -8.915   7.515  1.00  0.00    -0.320 OA
HETATM   37  C   UNL     1      43.375  -8.204   8.552  1.00  0.00     0.142 A 
HETATM   38  C   UNL     1      44.501  -8.817   9.049  1.00  0.00     0.027 A 
HETATM   39  C   UNL     1      44.693  -9.978   8.261  1.00  0.00     0.041 A 
ENDBRANCH   4  35
TORSDOF 6
ENDMDL
MODEL 8
REMARK VINA RESULT:      -8.5      2.493      7.760
REMARK  6 active torsions:
REMARK  status: ('A' for Active; 'I' for Inactive)
REMARK    1  A    between atoms: C_2  and  O_3 
REMARK    2  A    between atoms: O_3  and  C_4 
REMARK    3  A    between atoms: C_5  and  C_6 
REMARK       I    between atoms: C_6  and  N_7 
REMARK    4  A    between atoms: N_7  and  C_8 
REMARK    5  A    between atoms: N_9  and  C_10 
REMARK    6  A    between atoms: C_22  and  C_23 
ROOT
HETATM    1  C   UNL     1      41.802 -13.732   3.181  1.00  0.00     0.152 A 
HETATM    2  N   UNL     1      41.627 -14.324   1.939  1.00  0.00    -0.044 N 
HETATM    3  N   UNL     1      42.137 -15.591   1.887  1.00  0.00    -0.148 NA
HETATM    4  C   UNL     1      42.648 -15.780   3.111  1.00  0.00     0.115 A 
HETATM    5  C   UNL     1      42.492 -14.649   3.939  1.00  0.00     0.087 A 
ENDROOT
BRANCH   1   6
HETATM    6  N   UNL     1      41.297 -12.475   3.472  1.00  0.00    -0.307 N 
HETATM    7  C   UNL     1      40.084 -12.267   4.093  1.00  0.00     0.261 C 
HETATM    8  O   UNL     1      39.382 -13.096   4.657  1.00  0.00    -0.267 OA
HETATM    9  H   UNL     1      41.830 -11.668   3.144  1.00  0.00     0.170 HD
BRANCH   7  10
HETATM   10  C   UNL     1      39.654 -10.851   4.048  1.00  0.00     0.076 A 
HETATM   11  C   UNL     1      40.130  -9.996   5.061  1.00  0.00     0.085 A 
HETATM   12  C   UNL     1      39.722  -8.665   5.060  1.00  0.00     0.039 A 
HETATM   13  C   UNL     1      38.846  -8.201   4.074  1.00  0.00     0.015 A 
HETATM   14  C   UNL     1      38.360  -9.051   3.068  1.00  0.00    -0.025 A 
HETATM   15  C   UNL     1      38.767 -10.405   3.036  1.00  0.00    -0.007 A 
HETATM   16  C   UNL     1      37.467  -8.566   2.099  1.00  0.00     0.012 A 
HETATM   17  C   UNL     1      38.255 -11.229   2.007  1.00  0.00     0.013 A 
HETATM   18  C   UNL     1      37.366 -10.732   1.052  1.00  0.00     0.001 A 
HETATM   19  C   UNL     1      36.970  -9.402   1.099  1.00  0.00     0.001 A 
BRANCH  11  20
HETATM   20  O   UNL     1      40.952 -10.558   6.000  1.00  0.00    -0.350 OA
BRANCH  20  21
HETATM   21  C   UNL     1      42.274 -10.045   6.136  1.00  0.00     0.171 C 
HETATM   22  C   UNL     1      43.204 -11.225   6.349  1.00  0.00     0.034 C 
ENDBRANCH  20  21
ENDBRANCH  11  20
ENDBRANCH   7  10
ENDBRANCH   1   6
BRANCH   2  23
HETATM   23  C   UNL     1      41.015 -13.769   0.798  1.00  0.00     0.732 A 
HETATM   24  N   UNL     1      41.127 -12.519   0.469  1.00  0.00    -0.067 NA
HETATM   25  C   UNL     1      40.496 -12.137  -0.693  1.00  0.00     0.065 A 
HETATM   26  C   UNL     1      39.778 -12.968  -1.473  1.00  0.00     0.036 A 
HETATM   27  C   UNL     1      40.691 -10.686  -1.073  1.00  0.00     0.060 C 
HETATM   28  C   UNL     1      39.090 -12.558  -2.742  1.00  0.00     0.046 C 
HETATM   29  C   UNL     1      39.660 -14.387  -1.055  1.00  0.00     0.268 A 
HETATM   30  C   UNL     1      39.031 -11.041  -2.929  1.00  0.00     0.005 C 
HETATM   31  C   UNL     1      40.349 -10.386  -2.533  1.00  0.00     0.006 C 
HETATM   32  O   UNL     1      39.027 -15.211  -1.704  1.00  0.00    -0.267 OA
HETATM   33  N   UNL     1      40.311 -14.704   0.095  1.00  0.00    -0.152 N 
HETATM   34  H   UNL     1      40.282 -15.660   0.433  1.00  0.00     0.188 HD
ENDBRANCH   2  23
BRANCH   4  35
HETATM   35  C   UNL     1      43.282 -17.063   3.531  1.00  0.00     0.105 A 
HETATM   36  O   UNL     1      43.666 -18.056   2.671  1.00  0.00    -0.320 OA
HETATM   37  C   UNL     1      44.214 -19.049   3.417  1.00  0.00     0.142 A 
HETATM   38  C   UNL     1      44.193 -18.717   4.751  1.00  0.00     0.027 A 
HETATM   39  C   UNL     1      43.590 -17.437   4.826  1.00  0.00     0.041 A 
ENDBRANCH   4  35
TORSDOF 6
ENDMDL
MODEL 9
REMARK VINA RESULT:      -8.5      2.229      7.561
REMARK  6 active torsions:
REMARK  status: ('A' for Active; 'I' for Inactive)
REMARK    1  A    between atoms: C_2  and  O_3 
REMARK    2  A    between atoms: O_3  and  C_4 
REMARK    3  A    between atoms: C_5  and  C_6 
REMARK       I    between atoms: C_6  and  N_7 
REMARK    4  A    between atoms: N_7  and  C_8 
REMARK    5  A    between atoms: N_9  and  C_10 
REMARK    6  A    between atoms: C_22  and  C_23 
ROOT
HETATM    1  C   UNL     1      41.740 -13.789   2.855  1.00  0.00     0.152 A 
HETATM    2  N   UNL     1      41.281 -14.356   1.675  1.00  0.00    -0.044 N 
HETATM    3  N   UNL     1      41.689 -15.652   1.525  1.00  0.00    -0.148 NA
HETATM    4  C   UNL     1      42.423 -15.885   2.622  1.00  0.00     0.115 A 
HETATM    5  C   UNL     1      42.508 -14.754   3.461  1.00  0.00     0.087 A 
ENDROOT
BRANCH   1   6
HETATM    6  N   UNL     1      41.384 -12.506   3.238  1.00  0.00    -0.307 N 
HETATM    7  C   UNL     1      42.265 -11.445   3.255  1.00  0.00     0.261 C 
HETATM    8  O   UNL     1      43.385 -11.396   2.764  1.00  0.00    -0.267 OA
HETATM    9  H   UNL     1      40.435 -12.366   3.587  1.00  0.00     0.170 HD
BRANCH   7  10
HETATM   10  C   UNL     1      41.717 -10.258   3.951  1.00  0.00     0.076 A 
HETATM   11  C   UNL     1      41.939 -10.159   5.339  1.00  0.00     0.085 A 
HETATM   12  C   UNL     1      41.413  -9.068   6.025  1.00  0.00     0.039 A 
HETATM   13  C   UNL     1      40.669  -8.102   5.341  1.00  0.00     0.015 A 
HETATM   14  C   UNL     1      40.434  -8.201   3.960  1.00  0.00    -0.025 A 
HETATM   15  C   UNL     1      40.967  -9.292   3.234  1.00  0.00    -0.007 A 
HETATM   16  C   UNL     1      39.668  -7.228   3.297  1.00  0.00     0.012 A 
HETATM   17  C   UNL     1      40.709  -9.356   1.845  1.00  0.00     0.013 A 
HETATM   18  C   UNL     1      39.943  -8.382   1.201  1.00  0.00     0.001 A 
HETATM   19  C   UNL     1      39.422  -7.320   1.928  1.00  0.00     0.001 A 
BRANCH  11  20
HETATM   20  O   UNL     1      42.648 -11.176   5.919  1.00  0.00    -0.350 OA
BRANCH  20  21
HETATM   21  C   UNL     1      43.706 -10.840   6.813  1.00  0.00     0.171 C 
HETATM   22  C   UNL     1      44.915 -11.671   6.423  1.00  0.00     0.034 C 
ENDBRANCH  20  21
ENDBRANCH  11  20
ENDBRANCH   7  10
ENDBRANCH   1   6
BRANCH   2  23
HETATM   23  C   UNL     1      40.488 -13.753   0.679  1.00  0.00     0.732 A 
HETATM   24  N   UNL     1      39.558 -12.888   0.940  1.00  0.00    -0.067 NA
HETATM   25  C   UNL     1      38.893 -12.364  -0.146  1.00  0.00     0.065 A 
HETATM   26  C   UNL     1      39.143 -12.707  -1.424  1.00  0.00     0.036 A 
HETATM   27  C   UNL     1      37.851 -11.320   0.191  1.00  0.00     0.060 C 
HETATM   28  C   UNL     1      38.425 -12.137  -2.612  1.00  0.00     0.046 C 
HETATM   29  C   UNL     1      40.205 -13.711  -1.681  1.00  0.00     0.268 A 
HETATM   30  C   UNL     1      37.174 -11.341  -2.231  1.00  0.00     0.005 C 
HETATM   31  C   UNL     1      37.429 -10.469  -1.007  1.00  0.00     0.006 C 
HETATM   32  O   UNL     1      40.498 -14.080  -2.812  1.00  0.00    -0.267 OA
HETATM   33  N   UNL     1      40.830 -14.184  -0.570  1.00  0.00    -0.152 N 
HETATM   34  H   UNL     1      41.574 -14.866  -0.674  1.00  0.00     0.188 HD
ENDBRANCH   2  23
BRANCH   4  35
HETATM   35  C   UNL     1      43.046 -17.209   2.910  1.00  0.00     0.105 A 
HETATM   36  O   UNL     1      43.000 -18.287   2.067  1.00  0.00    -0.320 OA
HETATM   37  C   UNL     1      43.688 -19.295   2.661  1.00  0.00     0.142 A 
HETATM   38  C   UNL     1      44.182 -18.890   3.879  1.00  0.00     0.027 A 
HETATM   39  C   UNL     1      43.766 -17.546   4.041  1.00  0.00     0.041 A 
ENDBRANCH   4  35
TORSDOF 6
ENDMDL
MODEL 10
REMARK VINA RESULT:      -8.4      2.030      7.589
REMARK  6 active torsions:
REMARK  status: ('A' for Active; 'I' for Inactive)
REMARK    1  A    between atoms: C_2  and  O_3 
REMARK    2  A    between atoms: O_3  and  C_4 
REMARK    3  A    between atoms: C_5  and  C_6 
REMARK       I    between atoms: C_6  and  N_7 
REMARK    4  A    between atoms: N_7  and  C_8 
REMARK    5  A    between atoms: N_9  and  C_10 
REMARK    6  A    between atoms: C_22  and  C_23 
ROOT
HETATM    1  C   UNL     1      42.011 -14.114   3.093  1.00  0.00     0.152 A 
HETATM    2  N   UNL     1      41.800 -14.612   1.816  1.00  0.00    -0.044 N 
HETATM    3  N   UNL     1      42.240 -15.898   1.677  1.00  0.00    -0.148 NA
HETATM    4  C   UNL     1      42.744 -16.196   2.882  1.00  0.00     0.115 A 
HETATM    5  C   UNL     1      42.652 -15.115   3.784  1.00  0.00     0.087 A 
ENDROOT
BRANCH   1   6
HETATM    6  N   UNL     1      41.576 -12.854   3.470  1.00  0.00    -0.307 N 
HETATM    7  C   UNL     1      42.383 -11.735   3.458  1.00  0.00     0.261 C 
HETATM    8  O   UNL     1      43.486 -11.615   2.943  1.00  0.00    -0.267 OA
HETATM    9  H   UNL     1      40.627 -12.775   3.837  1.00  0.00     0.170 HD
BRANCH   7  10
HETATM   10  C   UNL     1      41.767 -10.580   4.153  1.00  0.00     0.076 A 
HETATM   11  C   UNL     1      40.749  -9.883   3.474  1.00  0.00     0.085 A 
HETATM   12  C   UNL     1      40.170  -8.777   4.090  1.00  0.00     0.039 A 
HETATM   13  C   UNL     1      40.609  -8.368   5.353  1.00  0.00     0.015 A 
HETATM   14  C   UNL     1      41.631  -9.053   6.030  1.00  0.00    -0.025 A 
HETATM   15  C   UNL     1      42.229 -10.188   5.434  1.00  0.00    -0.007 A 
HETATM   16  C   UNL     1      42.067  -8.613   7.290  1.00  0.00     0.012 A 
HETATM   17  C   UNL     1      43.255 -10.850   6.147  1.00  0.00     0.013 A 
HETATM   18  C   UNL     1      43.680 -10.399   7.399  1.00  0.00     0.001 A 
HETATM   19  C   UNL     1      43.087  -9.280   7.968  1.00  0.00     0.001 A 
BRANCH  11  20
HETATM   20  O   UNL     1      40.420 -10.341   2.227  1.00  0.00    -0.350 OA
BRANCH  20  21
HETATM   21  C   UNL     1      39.051 -10.302   1.830  1.00  0.00     0.171 C 
HETATM   22  C   UNL     1      38.463 -11.678   2.081  1.00  0.00     0.034 C 
ENDBRANCH  20  21
ENDBRANCH  11  20
ENDBRANCH   7  10
ENDBRANCH   1   6
BRANCH   2  23
HETATM   23  C   UNL     1      41.216 -13.950   0.718  1.00  0.00     0.732 A 
HETATM   24  N   UNL     1      41.496 -12.725   0.396  1.00  0.00    -0.067 NA
HETATM   25  C   UNL     1      40.865 -12.231  -0.723  1.00  0.00     0.065 A 
HETATM   26  C   UNL     1      39.988 -12.930  -1.468  1.00  0.00     0.036 A 
HETATM   27  C   UNL     1      41.254 -10.819  -1.099  1.00  0.00     0.060 C 
HETATM   28  C   UNL     1      39.300 -12.399  -2.691  1.00  0.00     0.046 C 
HETATM   29  C   UNL     1      39.681 -14.324  -1.059  1.00  0.00     0.268 A 
HETATM   30  C   UNL     1      39.458 -10.887  -2.859  1.00  0.00     0.005 C 
HETATM   31  C   UNL     1      40.880 -10.443  -2.534  1.00  0.00     0.006 C 
HETATM   32  O   UNL     1      38.897 -15.031  -1.679  1.00  0.00    -0.267 OA
HETATM   33  N   UNL     1      40.342 -14.756   0.047  1.00  0.00    -0.152 N 
HETATM   34  H   UNL     1      40.187 -15.703   0.377  1.00  0.00     0.188 HD
ENDBRANCH   2  23
BRANCH   4  35
HETATM   35  C   UNL     1      43.309 -17.536   3.212  1.00  0.00     0.105 A 
HETATM   36  O   UNL     1      43.210 -18.639   2.408  1.00  0.00    -0.320 OA
HETATM   37  C   UNL     1      43.856 -19.656   3.033  1.00  0.00     0.142 A 
HETATM   38  C   UNL     1      44.374 -19.232   4.234  1.00  0.00     0.027 A 
HETATM   39  C   UNL     1      44.021 -17.865   4.351  1.00  0.00     0.041 A 
ENDBRANCH   4  35
TORSDOF 6
ENDMDL
