MODEL 1
REMARK VINA RESULT:      -9.7      0.000      0.000
REMARK  3 active torsions:
REMARK  status: ('A' for Active; 'I' for Inactive)
REMARK    1  A    between atoms: C_4  and  N_5 
REMARK    2  A    between atoms: N_5  and  C_6 
REMARK    3  A    between atoms: C_13  and  C_14 
ROOT
HETATM    1  C   UNL     1      42.911 -12.297   6.427  1.00  0.00     0.741 A 
HETATM    2  N   UNL     1      42.338 -11.105   6.666  1.00  0.00    -0.066 NA
HETATM    3  C   UNL     1      43.071 -10.143   7.268  1.00  0.00     0.069 A 
HETATM    4  C   UNL     1      44.384 -10.340   7.624  1.00  0.00     0.053 A 
HETATM    5  C   UNL     1      45.177  -9.283   8.263  1.00  0.00     0.163 C 
HETATM    6  O   UNL     1      46.367  -9.472   8.501  1.00  0.00    -0.292 OA
HETATM    7  C   UNL     1      44.505  -7.950   8.510  1.00  0.00     0.093 C 
HETATM    8  C   UNL     1      42.988  -8.087   8.739  1.00  0.00     0.031 C 
HETATM    9  C   UNL     1      42.377  -8.835   7.538  1.00  0.00     0.070 C 
HETATM   10  C   UNL     1      44.900 -11.583   7.352  1.00  0.00     0.153 A 
HETATM   11  N   UNL     1      44.186 -12.570   6.764  1.00  0.00    -0.073 NA
ENDROOT
BRANCH   1  12
HETATM   12  N   UNL     1      42.220 -13.329   5.834  1.00  0.00    -0.015 N 
HETATM   13  H   UNL     1      41.222 -13.241   5.890  1.00  0.00     0.203 HD
BRANCH  12  14
HETATM   14  C   UNL     1      42.643 -14.489   5.221  1.00  0.00     0.742 A 
HETATM   15  N   UNL     1      42.789 -14.412   3.889  1.00  0.00    -0.066 NA
HETATM   16  C   UNL     1      43.186 -15.522   3.228  1.00  0.00     0.062 A 
HETATM   17  C   UNL     1      43.339 -15.370   1.742  1.00  0.00     0.072 C 
HETATM   18  C   UNL     1      43.440 -16.737   3.875  1.00  0.00     0.018 A 
HETATM   19  C   UNL     1      43.257 -16.707   5.259  1.00  0.00     0.088 A 
HETATM   20  C   UNL     1      43.847 -17.940   3.246  1.00  0.00     0.016 A 
HETATM   21  N   UNL     1      42.872 -15.609   5.915  1.00  0.00    -0.062 NA
HETATM   22  C   UNL     1      43.483 -17.869   5.985  1.00  0.00     0.033 A 
HETATM   23  C   UNL     1      43.883 -19.059   5.370  1.00  0.00     0.002 A 
HETATM   24  C   UNL     1      44.066 -19.094   3.994  1.00  0.00     0.001 A 
ENDBRANCH  12  14
ENDBRANCH   1  12
BRANCH   8  25
HETATM   25  C   UNL     1      42.661  -8.637  10.128  1.00  0.00    -0.053 A 
HETATM   26  C   UNL     1      41.424  -9.277  10.327  1.00  0.00     0.007 A 
HETATM   27  C   UNL     1      41.063  -9.790  11.575  1.00  0.00     0.001 A 
HETATM   28  C   UNL     1      41.937  -9.683  12.650  1.00  0.00     0.000 A 
HETATM   29  C   UNL     1      43.175  -9.073  12.472  1.00  0.00     0.001 A 
HETATM   30  C   UNL     1      43.537  -8.559  11.222  1.00  0.00     0.007 A 
ENDBRANCH   8  25
TORSDOF 3
ENDMDL
MODEL 2
REMARK VINA RESULT:      -9.7      4.545      8.192
REMARK  3 active torsions:
REMARK  status: ('A' for Active; 'I' for Inactive)
REMARK    1  A    between atoms: C_4  and  N_5 
REMARK    2  A    between atoms: N_5  and  C_6 
REMARK    3  A    between atoms: C_13  and  C_14 
ROOT
HETATM    1  C   UNL     1      41.786 -12.139   2.585  1.00  0.00     0.741 A 
HETATM    2  N   UNL     1      41.097 -13.143   3.152  1.00  0.00    -0.066 NA
HETATM    3  C   UNL     1      41.599 -13.727   4.262  1.00  0.00     0.069 A 
HETATM    4  C   UNL     1      42.778 -13.314   4.836  1.00  0.00     0.053 A 
HETATM    5  C   UNL     1      43.307 -13.943   6.051  1.00  0.00     0.163 C 
HETATM    6  O   UNL     1      44.325 -13.500   6.575  1.00  0.00    -0.292 OA
HETATM    7  C   UNL     1      42.503 -15.066   6.671  1.00  0.00     0.093 C 
HETATM    8  C   UNL     1      41.691 -15.855   5.627  1.00  0.00     0.031 C 
HETATM    9  C   UNL     1      40.805 -14.866   4.845  1.00  0.00     0.070 C 
HETATM   10  C   UNL     1      43.427 -12.285   4.199  1.00  0.00     0.153 A 
HETATM   11  N   UNL     1      42.956 -11.692   3.078  1.00  0.00    -0.073 NA
ENDROOT
BRANCH   1  12
HETATM   12  N   UNL     1      41.345 -11.511   1.442  1.00  0.00    -0.015 N 
HETATM   13  H   UNL     1      41.756 -10.610   1.283  1.00  0.00     0.203 HD
BRANCH  12  14
HETATM   14  C   UNL     1      40.402 -11.867   0.501  1.00  0.00     0.742 A 
HETATM   15  N   UNL     1      39.271 -11.144   0.522  1.00  0.00    -0.066 NA
HETATM   16  C   UNL     1      38.301 -11.457  -0.366  1.00  0.00     0.062 A 
HETATM   17  C   UNL     1      37.065 -10.607  -0.299  1.00  0.00     0.072 C 
HETATM   18  C   UNL     1      38.430 -12.500  -1.290  1.00  0.00     0.018 A 
HETATM   19  C   UNL     1      39.644 -13.187  -1.225  1.00  0.00     0.088 A 
HETATM   20  C   UNL     1      37.452 -12.890  -2.240  1.00  0.00     0.016 A 
HETATM   21  N   UNL     1      40.606 -12.875  -0.354  1.00  0.00    -0.062 NA
HETATM   22  C   UNL     1      39.859 -14.241  -2.104  1.00  0.00     0.033 A 
HETATM   23  C   UNL     1      38.899 -14.631  -3.040  1.00  0.00     0.002 A 
HETATM   24  C   UNL     1      37.690 -13.951  -3.109  1.00  0.00     0.001 A 
ENDBRANCH  12  14
ENDBRANCH   1  12
BRANCH   8  25
HETATM   25  C   UNL     1      42.570 -16.792   4.798  1.00  0.00    -0.053 A 
HETATM   26  C   UNL     1      42.309 -16.921   3.421  1.00  0.00     0.007 A 
HETATM   27  C   UNL     1      43.070 -17.769   2.613  1.00  0.00     0.001 A 
HETATM   28  C   UNL     1      44.118 -18.497   3.163  1.00  0.00     0.000 A 
HETATM   29  C   UNL     1      44.409 -18.369   4.517  1.00  0.00     0.001 A 
HETATM   30  C   UNL     1      43.647 -17.520   5.327  1.00  0.00     0.007 A 
ENDBRANCH   8  25
TORSDOF 3
ENDMDL
MODEL 3
REMARK VINA RESULT:      -9.6      2.614      8.592
REMARK  3 active torsions:
REMARK  status: ('A' for Active; 'I' for Inactive)
REMARK    1  A    between atoms: C_4  and  N_5 
REMARK    2  A    between atoms: N_5  and  C_6 
REMARK    3  A    between atoms: C_13  and  C_14 
ROOT
HETATM    1  C   UNL     1      41.496 -11.875   4.563  1.00  0.00     0.741 A 
HETATM    2  N   UNL     1      42.454 -12.403   3.783  1.00  0.00    -0.066 NA
HETATM    3  C   UNL     1      42.162 -13.501   3.052  1.00  0.00     0.069 A 
HETATM    4  C   UNL     1      40.916 -14.079   3.068  1.00  0.00     0.053 A 
HETATM    5  C   UNL     1      40.603 -15.263   2.258  1.00  0.00     0.163 C 
HETATM    6  O   UNL     1      39.459 -15.708   2.243  1.00  0.00    -0.292 OA
HETATM    7  C   UNL     1      41.702 -15.828   1.384  1.00  0.00     0.093 C 
HETATM    8  C   UNL     1      43.106 -15.583   1.969  1.00  0.00     0.031 C 
HETATM    9  C   UNL     1      43.277 -14.072   2.216  1.00  0.00     0.070 C 
HETATM   10  C   UNL     1      39.989 -13.486   3.889  1.00  0.00     0.153 A 
HETATM   11  N   UNL     1      40.257 -12.396   4.644  1.00  0.00    -0.073 NA
ENDROOT
BRANCH   1  12
HETATM   12  N   UNL     1      41.727 -10.768   5.348  1.00  0.00    -0.015 N 
HETATM   13  H   UNL     1      41.198  -9.959   5.084  1.00  0.00     0.203 HD
BRANCH  12  14
HETATM   14  C   UNL     1      42.589 -10.551   6.401  1.00  0.00     0.742 A 
HETATM   15  N   UNL     1      43.860 -10.931   6.189  1.00  0.00    -0.066 NA
HETATM   16  C   UNL     1      44.750 -10.759   7.191  1.00  0.00     0.062 A 
HETATM   17  C   UNL     1      46.155 -11.194   6.890  1.00  0.00     0.072 C 
HETATM   18  C   UNL     1      44.398 -10.214   8.431  1.00  0.00     0.018 A 
HETATM   19  C   UNL     1      43.053  -9.855   8.546  1.00  0.00     0.088 A 
HETATM   20  C   UNL     1      45.274 -10.016   9.528  1.00  0.00     0.016 A 
HETATM   21  N   UNL     1      42.173 -10.016   7.555  1.00  0.00    -0.062 NA
HETATM   22  C   UNL     1      42.610  -9.307   9.744  1.00  0.00     0.033 A 
HETATM   23  C   UNL     1      43.469  -9.112  10.828  1.00  0.00     0.002 A 
HETATM   24  C   UNL     1      44.807  -9.467  10.719  1.00  0.00     0.001 A 
ENDBRANCH  12  14
ENDBRANCH   1  12
BRANCH   8  25
HETATM   25  C   UNL     1      43.411 -16.510   3.147  1.00  0.00    -0.053 A 
HETATM   26  C   UNL     1      43.597 -17.882   2.895  1.00  0.00     0.007 A 
HETATM   27  C   UNL     1      43.868 -18.780   3.930  1.00  0.00     0.001 A 
HETATM   28  C   UNL     1      43.969 -18.324   5.238  1.00  0.00     0.000 A 
HETATM   29  C   UNL     1      43.810 -16.969   5.508  1.00  0.00     0.001 A 
HETATM   30  C   UNL     1      43.539 -16.068   4.472  1.00  0.00     0.007 A 
ENDBRANCH   8  25
TORSDOF 3
ENDMDL
MODEL 4
REMARK VINA RESULT:      -9.4      5.831      8.759
REMARK  3 active torsions:
REMARK  status: ('A' for Active; 'I' for Inactive)
REMARK    1  A    between atoms: C_4  and  N_5 
REMARK    2  A    between atoms: N_5  and  C_6 
REMARK    3  A    between atoms: C_13  and  C_14 
ROOT
HETATM    1  C   UNL     1      40.944 -12.894   3.237  1.00  0.00     0.741 A 
HETATM    2  N   UNL     1      41.274 -12.331   2.063  1.00  0.00    -0.066 NA
HETATM    3  C   UNL     1      40.293 -11.805   1.298  1.00  0.00     0.069 A 
HETATM    4  C   UNL     1      38.976 -11.811   1.692  1.00  0.00     0.053 A 
HETATM    5  C   UNL     1      37.919 -11.222   0.862  1.00  0.00     0.163 C 
HETATM    6  O   UNL     1      36.765 -11.182   1.280  1.00  0.00    -0.292 OA
HETATM    7  C   UNL     1      38.326 -10.588  -0.451  1.00  0.00     0.093 C 
HETATM    8  C   UNL     1      39.575 -11.249  -1.063  1.00  0.00     0.031 C 
HETATM    9  C   UNL     1      40.709 -11.211  -0.021  1.00  0.00     0.070 C 
HETATM   10  C   UNL     1      38.714 -12.405   2.902  1.00  0.00     0.153 A 
HETATM   11  N   UNL     1      39.675 -12.954   3.682  1.00  0.00    -0.073 NA
ENDROOT
BRANCH   1  12
HETATM   12  N   UNL     1      41.888 -13.466   4.059  1.00  0.00    -0.015 N 
HETATM   13  H   UNL     1      42.285 -12.836   4.730  1.00  0.00     0.203 HD
BRANCH  12  14
HETATM   14  C   UNL     1      42.428 -14.734   4.098  1.00  0.00     0.742 A 
HETATM   15  N   UNL     1      43.196 -14.997   5.167  1.00  0.00    -0.066 NA
HETATM   16  C   UNL     1      43.768 -16.219   5.254  1.00  0.00     0.062 A 
HETATM   17  C   UNL     1      44.608 -16.453   6.476  1.00  0.00     0.072 C 
HETATM   18  C   UNL     1      43.596 -17.205   4.277  1.00  0.00     0.018 A 
HETATM   19  C   UNL     1      42.780 -16.827   3.208  1.00  0.00     0.088 A 
HETATM   20  C   UNL     1      44.173 -18.500   4.297  1.00  0.00     0.016 A 
HETATM   21  N   UNL     1      42.208 -15.624   3.124  1.00  0.00    -0.062 NA
HETATM   22  C   UNL     1      42.555 -17.743   2.188  1.00  0.00     0.033 A 
HETATM   23  C   UNL     1      43.122 -19.020   2.202  1.00  0.00     0.002 A 
HETATM   24  C   UNL     1      43.934 -19.400   3.262  1.00  0.00     0.001 A 
ENDBRANCH  12  14
ENDBRANCH   1  12
BRANCH   8  25
HETATM   25  C   UNL     1      39.262 -12.609  -1.687  1.00  0.00    -0.053 A 
HETATM   26  C   UNL     1      38.120 -12.732  -2.501  1.00  0.00     0.007 A 
HETATM   27  C   UNL     1      37.776 -13.951  -3.091  1.00  0.00     0.001 A 
HETATM   28  C   UNL     1      38.573 -15.071  -2.888  1.00  0.00     0.000 A 
HETATM   29  C   UNL     1      39.718 -14.968  -2.105  1.00  0.00     0.001 A 
HETATM   30  C   UNL     1      40.063 -13.748  -1.515  1.00  0.00     0.007 A 
ENDBRANCH   8  25
TORSDOF 3
ENDMDL
MODEL 5
REMARK VINA RESULT:      -8.9      4.398      8.337
REMARK  3 active torsions:
REMARK  status: ('A' for Active; 'I' for Inactive)
REMARK    1  A    between atoms: C_4  and  N_5 
REMARK    2  A    between atoms: N_5  and  C_6 
REMARK    3  A    between atoms: C_13  and  C_14 
ROOT
HETATM    1  C   UNL     1      42.291 -11.213   3.374  1.00  0.00     0.741 A 
HETATM    2  N   UNL     1      41.389 -12.166   3.660  1.00  0.00    -0.066 NA
HETATM    3  C   UNL     1      41.666 -13.045   4.648  1.00  0.00     0.069 A 
HETATM    4  C   UNL     1      42.830 -12.981   5.376  1.00  0.00     0.053 A 
HETATM    5  C   UNL     1      43.116 -13.931   6.459  1.00  0.00     0.163 C 
HETATM    6  O   UNL     1      44.132 -13.798   7.135  1.00  0.00    -0.292 OA
HETATM    7  C   UNL     1      42.075 -14.987   6.762  1.00  0.00     0.093 C 
HETATM    8  C   UNL     1      41.258 -15.385   5.518  1.00  0.00     0.031 C 
HETATM    9  C   UNL     1      40.637 -14.111   4.912  1.00  0.00     0.070 C 
HETATM   10  C   UNL     1      43.705 -11.983   5.026  1.00  0.00     0.153 A 
HETATM   11  N   UNL     1      43.460 -11.098   4.031  1.00  0.00    -0.073 NA
ENDROOT
BRANCH   1  12
HETATM   12  N   UNL     1      42.083 -10.296   2.368  1.00  0.00    -0.015 N 
HETATM   13  H   UNL     1      42.179  -9.340   2.658  1.00  0.00     0.203 HD
BRANCH  12  14
HETATM   14  C   UNL     1      41.718 -10.444   1.047  1.00  0.00     0.742 A 
HETATM   15  N   UNL     1      41.240 -11.655   0.718  1.00  0.00    -0.066 NA
HETATM   16  C   UNL     1      40.880 -11.868  -0.567  1.00  0.00     0.062 A 
HETATM   17  C   UNL     1      40.346 -13.238  -0.870  1.00  0.00     0.072 C 
HETATM   18  C   UNL     1      40.995 -10.886  -1.557  1.00  0.00     0.018 A 
HETATM   19  C   UNL     1      41.504  -9.665  -1.108  1.00  0.00     0.088 A 
HETATM   20  C   UNL     1      40.649 -11.043  -2.923  1.00  0.00     0.016 A 
HETATM   21  N   UNL     1      41.852  -9.450   0.163  1.00  0.00    -0.062 NA
HETATM   22  C   UNL     1      41.655  -8.631  -2.022  1.00  0.00     0.033 A 
HETATM   23  C   UNL     1      41.317  -8.780  -3.370  1.00  0.00     0.002 A 
HETATM   24  C   UNL     1      40.811  -9.992  -3.822  1.00  0.00     0.001 A 
ENDBRANCH  12  14
ENDBRANCH   1  12
BRANCH   8  25
HETATM   25  C   UNL     1      42.053 -16.280   4.567  1.00  0.00    -0.053 A 
HETATM   26  C   UNL     1      43.067 -17.099   5.099  1.00  0.00     0.007 A 
HETATM   27  C   UNL     1      43.834 -17.930   4.280  1.00  0.00     0.001 A 
HETATM   28  C   UNL     1      43.596 -17.970   2.911  1.00  0.00     0.000 A 
HETATM   29  C   UNL     1      42.584 -17.186   2.366  1.00  0.00     0.001 A 
HETATM   30  C   UNL     1      41.816 -16.353   3.186  1.00  0.00     0.007 A 
ENDBRANCH   8  25
TORSDOF 3
ENDMDL
MODEL 6
REMARK VINA RESULT:      -8.8      5.693      8.953
REMARK  3 active torsions:
REMARK  status: ('A' for Active; 'I' for Inactive)
REMARK    1  A    between atoms: C_4  and  N_5 
REMARK    2  A    between atoms: N_5  and  C_6 
REMARK    3  A    between atoms: C_13  and  C_14 
ROOT
HETATM    1  C   UNL     1      39.893 -13.876   1.413  1.00  0.00     0.741 A 
HETATM    2  N   UNL     1      39.203 -12.741   1.210  1.00  0.00    -0.066 NA
HETATM    3  C   UNL     1      38.978 -12.339  -0.060  1.00  0.00     0.069 A 
HETATM    4  C   UNL     1      39.414 -13.062  -1.144  1.00  0.00     0.053 A 
HETATM    5  C   UNL     1      39.151 -12.626  -2.520  1.00  0.00     0.163 C 
HETATM    6  O   UNL     1      39.493 -13.334  -3.462  1.00  0.00    -0.292 OA
HETATM    7  C   UNL     1      38.363 -11.347  -2.715  1.00  0.00     0.093 C 
HETATM    8  C   UNL     1      38.571 -10.346  -1.563  1.00  0.00     0.031 C 
HETATM    9  C   UNL     1      38.225 -11.047  -0.235  1.00  0.00     0.070 C 
HETATM   10  C   UNL     1      40.114 -14.209  -0.859  1.00  0.00     0.153 A 
HETATM   11  N   UNL     1      40.367 -14.628   0.402  1.00  0.00    -0.073 NA
ENDROOT
BRANCH   1  12
HETATM   12  N   UNL     1      40.176 -14.337   2.679  1.00  0.00    -0.015 N 
HETATM   13  H   UNL     1      39.585 -13.959   3.396  1.00  0.00     0.203 HD
BRANCH  12  14
HETATM   14  C   UNL     1      41.154 -15.184   3.153  1.00  0.00     0.742 A 
HETATM   15  N   UNL     1      41.784 -14.768   4.263  1.00  0.00    -0.066 NA
HETATM   16  C   UNL     1      42.766 -15.548   4.768  1.00  0.00     0.062 A 
HETATM   17  C   UNL     1      43.425 -15.032   6.014  1.00  0.00     0.072 C 
HETATM   18  C   UNL     1      43.151 -16.756   4.176  1.00  0.00     0.018 A 
HETATM   19  C   UNL     1      42.433 -17.094   3.026  1.00  0.00     0.088 A 
HETATM   20  C   UNL     1      44.176 -17.616   4.642  1.00  0.00     0.016 A 
HETATM   21  N   UNL     1      41.457 -16.329   2.531  1.00  0.00    -0.062 NA
HETATM   22  C   UNL     1      42.748 -18.277   2.370  1.00  0.00     0.033 A 
HETATM   23  C   UNL     1      43.759 -19.128   2.824  1.00  0.00     0.002 A 
HETATM   24  C   UNL     1      44.476 -18.796   3.965  1.00  0.00     0.001 A 
ENDBRANCH  12  14
ENDBRANCH   1  12
BRANCH   8  25
HETATM   25  C   UNL     1      39.932  -9.652  -1.639  1.00  0.00    -0.053 A 
HETATM   26  C   UNL     1      40.627  -9.397  -0.442  1.00  0.00     0.007 A 
HETATM   27  C   UNL     1      41.869  -8.757  -0.445  1.00  0.00     0.001 A 
HETATM   28  C   UNL     1      42.448  -8.369  -1.647  1.00  0.00     0.000 A 
HETATM   29  C   UNL     1      41.790  -8.631  -2.844  1.00  0.00     0.001 A 
HETATM   30  C   UNL     1      40.546  -9.272  -2.842  1.00  0.00     0.007 A 
ENDBRANCH   8  25
TORSDOF 3
ENDMDL
MODEL 7
REMARK VINA RESULT:      -8.8      5.245      9.224
REMARK  3 active torsions:
REMARK  status: ('A' for Active; 'I' for Inactive)
REMARK    1  A    between atoms: C_4  and  N_5 
REMARK    2  A    between atoms: N_5  and  C_6 
REMARK    3  A    between atoms: C_13  and  C_14 
ROOT
HETATM    1  C   UNL     1      41.314 -13.167   1.065  1.00  0.00     0.741 A 
HETATM    2  N   UNL     1      40.680 -14.172   1.692  1.00  0.00    -0.066 NA
HETATM    3  C   UNL     1      40.971 -14.413   2.989  1.00  0.00     0.069 A 
HETATM    4  C   UNL     1      41.877 -13.652   3.687  1.00  0.00     0.053 A 
HETATM    5  C   UNL     1      42.176 -13.910   5.101  1.00  0.00     0.163 C 
HETATM    6  O   UNL     1      42.937 -13.165   5.711  1.00  0.00    -0.292 OA
HETATM    7  C   UNL     1      41.438 -15.044   5.780  1.00  0.00     0.093 C 
HETATM    8  C   UNL     1      41.064 -16.174   4.802  1.00  0.00     0.031 C 
HETATM    9  C   UNL     1      40.256 -15.567   3.639  1.00  0.00     0.070 C 
HETATM   10  C   UNL     1      42.487 -12.645   2.981  1.00  0.00     0.153 A 
HETATM   11  N   UNL     1      42.227 -12.390   1.678  1.00  0.00    -0.073 NA
ENDROOT
BRANCH   1  12
HETATM   12  N   UNL     1      41.081 -12.877  -0.260  1.00  0.00    -0.015 N 
HETATM   13  H   UNL     1      41.912 -12.728  -0.801  1.00  0.00     0.203 HD
BRANCH  12  14
HETATM   14  C   UNL     1      39.914 -12.702  -0.973  1.00  0.00     0.742 A 
HETATM   15  N   UNL     1      39.611 -13.694  -1.826  1.00  0.00    -0.066 NA
HETATM   16  C   UNL     1      38.486 -13.574  -2.567  1.00  0.00     0.062 A 
HETATM   17  C   UNL     1      38.197 -14.718  -3.494  1.00  0.00     0.072 C 
HETATM   18  C   UNL     1      37.642 -12.461  -2.484  1.00  0.00     0.018 A 
HETATM   19  C   UNL     1      38.051 -11.488  -1.568  1.00  0.00     0.088 A 
HETATM   20  C   UNL     1      36.457 -12.263  -3.236  1.00  0.00     0.016 A 
HETATM   21  N   UNL     1      39.157 -11.609  -0.830  1.00  0.00    -0.062 NA
HETATM   22  C   UNL     1      37.275 -10.346  -1.420  1.00  0.00     0.033 A 
HETATM   23  C   UNL     1      36.107 -10.145  -2.160  1.00  0.00     0.002 A 
HETATM   24  C   UNL     1      35.696 -11.108  -3.072  1.00  0.00     0.001 A 
ENDBRANCH  12  14
ENDBRANCH   1  12
BRANCH   8  25
HETATM   25  C   UNL     1      42.270 -17.035   4.425  1.00  0.00    -0.053 A 
HETATM   26  C   UNL     1      43.084 -17.545   5.454  1.00  0.00     0.007 A 
HETATM   27  C   UNL     1      44.205 -18.329   5.171  1.00  0.00     0.001 A 
HETATM   28  C   UNL     1      44.531 -18.628   3.854  1.00  0.00     0.000 A 
HETATM   29  C   UNL     1      43.729 -18.153   2.822  1.00  0.00     0.001 A 
HETATM   30  C   UNL     1      42.605 -17.368   3.104  1.00  0.00     0.007 A 
ENDBRANCH   8  25
TORSDOF 3
ENDMDL
MODEL 8
REMARK VINA RESULT:      -8.6      2.203      9.035
REMARK  3 active torsions:
REMARK  status: ('A' for Active; 'I' for Inactive)
REMARK    1  A    between atoms: C_4  and  N_5 
REMARK    2  A    between atoms: N_5  and  C_6 
REMARK    3  A    between atoms: C_13  and  C_14 
ROOT
HETATM    1  C   UNL     1      42.925 -11.781   6.546  1.00  0.00     0.741 A 
HETATM    2  N   UNL     1      41.876 -12.539   6.187  1.00  0.00    -0.066 NA
HETATM    3  C   UNL     1      42.018 -13.883   6.185  1.00  0.00     0.069 A 
HETATM    4  C   UNL     1      43.192 -14.493   6.557  1.00  0.00     0.053 A 
HETATM    5  C   UNL     1      43.332 -15.954   6.569  1.00  0.00     0.163 C 
HETATM    6  O   UNL     1      44.371 -16.465   6.976  1.00  0.00    -0.292 OA
HETATM    7  C   UNL     1      42.129 -16.780   6.167  1.00  0.00     0.093 C 
HETATM    8  C   UNL     1      41.225 -16.052   5.154  1.00  0.00     0.031 C 
HETATM    9  C   UNL     1      40.824 -14.688   5.748  1.00  0.00     0.070 C 
HETATM   10  C   UNL     1      44.220 -13.655   6.910  1.00  0.00     0.153 A 
HETATM   11  N   UNL     1      44.111 -12.306   6.906  1.00  0.00    -0.073 NA
ENDROOT
BRANCH   1  12
HETATM   12  N   UNL     1      42.858 -10.406   6.553  1.00  0.00    -0.015 N 
HETATM   13  H   UNL     1      42.941  -9.986   5.646  1.00  0.00     0.203 HD
BRANCH  12  14
HETATM   14  C   UNL     1      42.749  -9.494   7.581  1.00  0.00     0.742 A 
HETATM   15  N   UNL     1      42.350  -8.265   7.217  1.00  0.00    -0.066 NA
HETATM   16  C   UNL     1      42.240  -7.321   8.179  1.00  0.00     0.062 A 
HETATM   17  C   UNL     1      41.781  -5.971   7.710  1.00  0.00     0.072 C 
HETATM   18  C   UNL     1      42.532  -7.575   9.523  1.00  0.00     0.018 A 
HETATM   19  C   UNL     1      42.939  -8.884   9.793  1.00  0.00     0.088 A 
HETATM   20  C   UNL     1      42.450  -6.634  10.580  1.00  0.00     0.016 A 
HETATM   21  N   UNL     1      43.040  -9.820   8.846  1.00  0.00    -0.062 NA
HETATM   22  C   UNL     1      43.252  -9.227  11.102  1.00  0.00     0.033 A 
HETATM   23  C   UNL     1      43.175  -8.303  12.147  1.00  0.00     0.002 A 
HETATM   24  C   UNL     1      42.771  -7.001  11.885  1.00  0.00     0.001 A 
ENDBRANCH  12  14
ENDBRANCH   1  12
BRANCH   8  25
HETATM   25  C   UNL     1      41.827 -16.038   3.748  1.00  0.00    -0.053 A 
HETATM   26  C   UNL     1      42.678 -17.092   3.368  1.00  0.00     0.007 A 
HETATM   27  C   UNL     1      43.266 -17.130   2.101  1.00  0.00     0.001 A 
HETATM   28  C   UNL     1      43.006 -16.119   1.184  1.00  0.00     0.000 A 
HETATM   29  C   UNL     1      42.150 -15.079   1.530  1.00  0.00     0.001 A 
HETATM   30  C   UNL     1      41.561 -15.040   2.798  1.00  0.00     0.007 A 
ENDBRANCH   8  25
TORSDOF 3
ENDMDL
MODEL 9
REMARK VINA RESULT:      -8.5      2.341      3.613
REMARK  3 active torsions:
REMARK  status: ('A' for Active; 'I' for Inactive)
REMARK    1  A    between atoms: C_4  and  N_5 
REMARK    2  A    between atoms: N_5  and  C_6 
REMARK    3  A    between atoms: C_13  and  C_14 
ROOT
HETATM    1  C   UNL     1      41.545 -11.616   6.035  1.00  0.00     0.741 A 
HETATM    2  N   UNL     1      41.587 -10.334   6.433  1.00  0.00    -0.066 NA
HETATM    3  C   UNL     1      42.669  -9.902   7.115  1.00  0.00     0.069 A 
HETATM    4  C   UNL     1      43.732 -10.726   7.397  1.00  0.00     0.053 A 
HETATM    5  C   UNL     1      44.912 -10.244   8.125  1.00  0.00     0.163 C 
HETATM    6  O   UNL     1      45.872 -10.990   8.295  1.00  0.00    -0.292 OA
HETATM    7  C   UNL     1      44.931  -8.792   8.551  1.00  0.00     0.093 C 
HETATM    8  C   UNL     1      43.520  -8.237   8.819  1.00  0.00     0.031 C 
HETATM    9  C   UNL     1      42.657  -8.465   7.563  1.00  0.00     0.070 C 
HETATM   10  C   UNL     1      43.618 -12.024   6.962  1.00  0.00     0.153 A 
HETATM   11  N   UNL     1      42.539 -12.488   6.289  1.00  0.00    -0.073 NA
ENDROOT
BRANCH   1  12
HETATM   12  N   UNL     1      40.466 -12.130   5.352  1.00  0.00    -0.015 N 
HETATM   13  H   UNL     1      39.584 -11.985   5.807  1.00  0.00     0.203 HD
BRANCH  12  14
HETATM   14  C   UNL     1      40.376 -12.852   4.181  1.00  0.00     0.742 A 
HETATM   15  N   UNL     1      40.715 -14.148   4.280  1.00  0.00    -0.066 NA
HETATM   16  C   UNL     1      40.664 -14.905   3.161  1.00  0.00     0.062 A 
HETATM   17  C   UNL     1      41.046 -16.346   3.339  1.00  0.00     0.072 C 
HETATM   18  C   UNL     1      40.283 -14.391   1.918  1.00  0.00     0.018 A 
HETATM   19  C   UNL     1      39.952 -13.034   1.926  1.00  0.00     0.088 A 
HETATM   20  C   UNL     1      40.218 -15.122   0.704  1.00  0.00     0.016 A 
HETATM   21  N   UNL     1      39.994 -12.286   3.031  1.00  0.00    -0.062 NA
HETATM   22  C   UNL     1      39.564 -12.436   0.734  1.00  0.00     0.033 A 
HETATM   23  C   UNL     1      39.500 -13.151  -0.465  1.00  0.00     0.002 A 
HETATM   24  C   UNL     1      39.828 -14.500  -0.479  1.00  0.00     0.001 A 
ENDBRANCH  12  14
ENDBRANCH   1  12
BRANCH   8  25
HETATM   25  C   UNL     1      42.945  -8.736  10.146  1.00  0.00    -0.053 A 
HETATM   26  C   UNL     1      41.581  -9.076  10.206  1.00  0.00     0.007 A 
HETATM   27  C   UNL     1      40.996  -9.527  11.391  1.00  0.00     0.001 A 
HETATM   28  C   UNL     1      41.766  -9.658  12.540  1.00  0.00     0.000 A 
HETATM   29  C   UNL     1      43.121  -9.349  12.500  1.00  0.00     0.001 A 
HETATM   30  C   UNL     1      43.708  -8.897  11.313  1.00  0.00     0.007 A 
ENDBRANCH   8  25
TORSDOF 3
ENDMDL
MODEL 10
REMARK VINA RESULT:      -8.4      2.393      3.639
REMARK  3 active torsions:
REMARK  status: ('A' for Active; 'I' for Inactive)
REMARK    1  A    between atoms: C_4  and  N_5 
REMARK    2  A    between atoms: N_5  and  C_6 
REMARK    3  A    between atoms: C_13  and  C_14 
ROOT
HETATM    1  C   UNL     1      40.215 -10.903   4.851  1.00  0.00     0.741 A 
HETATM    2  N   UNL     1      40.377 -10.827   6.183  1.00  0.00    -0.066 NA
HETATM    3  C   UNL     1      40.915  -9.704   6.707  1.00  0.00     0.069 A 
HETATM    4  C   UNL     1      41.282  -8.636   5.924  1.00  0.00     0.053 A 
HETATM    5  C   UNL     1      41.851  -7.413   6.503  1.00  0.00     0.163 C 
HETATM    6  O   UNL     1      42.100  -6.453   5.780  1.00  0.00    -0.292 OA
HETATM    7  C   UNL     1      42.012  -7.356   8.007  1.00  0.00     0.093 C 
HETATM    8  C   UNL     1      42.251  -8.745   8.628  1.00  0.00     0.031 C 
HETATM    9  C   UNL     1      41.101  -9.677   8.200  1.00  0.00     0.070 C 
HETATM   10  C   UNL     1      41.090  -8.787   4.573  1.00  0.00     0.153 A 
HETATM   11  N   UNL     1      40.567  -9.906   4.019  1.00  0.00    -0.073 NA
ENDROOT
BRANCH   1  12
HETATM   12  N   UNL     1      39.691 -12.024   4.247  1.00  0.00    -0.015 N 
HETATM   13  H   UNL     1      38.691 -12.016   4.163  1.00  0.00     0.203 HD
BRANCH  12  14
HETATM   14  C   UNL     1      40.280 -13.179   3.780  1.00  0.00     0.742 A 
HETATM   15  N   UNL     1      39.897 -13.562   2.552  1.00  0.00    -0.066 NA
HETATM   16  C   UNL     1      40.427 -14.698   2.045  1.00  0.00     0.062 A 
HETATM   17  C   UNL     1      39.966 -15.067   0.665  1.00  0.00     0.072 C 
HETATM   18  C   UNL     1      41.344 -15.483   2.751  1.00  0.00     0.018 A 
HETATM   19  C   UNL     1      41.674 -14.996   4.018  1.00  0.00     0.088 A 
HETATM   20  C   UNL     1      41.931 -16.688   2.289  1.00  0.00     0.016 A 
HETATM   21  N   UNL     1      41.157 -13.870   4.517  1.00  0.00    -0.062 NA
HETATM   22  C   UNL     1      42.576 -15.713   4.793  1.00  0.00     0.033 A 
HETATM   23  C   UNL     1      43.156 -16.902   4.343  1.00  0.00     0.002 A 
HETATM   24  C   UNL     1      42.832 -17.391   3.085  1.00  0.00     0.001 A 
ENDBRANCH  12  14
ENDBRANCH   1  12
BRANCH   8  25
HETATM   25  C   UNL     1      43.673  -9.251   8.382  1.00  0.00    -0.053 A 
HETATM   26  C   UNL     1      43.851 -10.574   7.938  1.00  0.00     0.007 A 
HETATM   27  C   UNL     1      45.126 -11.097   7.706  1.00  0.00     0.001 A 
HETATM   28  C   UNL     1      46.249 -10.304   7.903  1.00  0.00     0.000 A 
HETATM   29  C   UNL     1      46.096  -8.986   8.320  1.00  0.00     0.001 A 
HETATM   30  C   UNL     1      44.820  -8.461   8.553  1.00  0.00     0.007 A 
ENDBRANCH   8  25
TORSDOF 3
ENDMDL
