MODEL 1
REMARK VINA RESULT:      -8.1      0.000      0.000
REMARK  5 active torsions:
REMARK  status: ('A' for Active; 'I' for Inactive)
REMARK    1  A    between atoms: N_2  and  C_4 
REMARK    2  A    between atoms: C_4  and  C_5 
REMARK    3  A    between atoms: C_8  and  C_9 
REMARK    4  A    between atoms: C_9  and  N_10 
REMARK       I    between atoms: N_10  and  C_11 
REMARK       I    between atoms: C_11  and  N_12 
REMARK    5  A    between atoms: N_12  and  C_13 
ROOT
HETATM    1  N   UNL     1      41.372 -14.682   4.858  1.00  0.00    -0.339 N 
HETATM    2  C   UNL     1      42.454 -14.296   5.585  1.00  0.00     0.322 C 
HETATM    3  N   UNL     1      43.442 -15.206   5.786  1.00  0.00    -0.287 N 
HETATM    4  O   UNL     1      42.559 -13.173   6.076  1.00  0.00    -0.247 OA
HETATM    5  H   UNL     1      41.381 -15.624   4.476  1.00  0.00     0.164 HD
HETATM    6  H   UNL     1      44.227 -14.890   6.334  1.00  0.00     0.172 HD
ENDROOT
BRANCH   1   7
HETATM    7  C   UNL     1      40.342 -13.765   4.436  1.00  0.00     0.162 C 
BRANCH   7   8
HETATM    8  C   UNL     1      40.068 -13.777   2.947  1.00  0.00    -0.040 A 
HETATM    9  C   UNL     1      39.652 -12.631   2.259  1.00  0.00     0.009 A 
HETATM   10  C   UNL     1      39.496 -12.641   0.870  1.00  0.00     0.009 A 
HETATM   11  C   UNL     1      39.775 -13.800   0.133  1.00  0.00    -0.033 A 
HETATM   12  C   UNL     1      40.187 -14.952   0.815  1.00  0.00     0.009 A 
HETATM   13  C   UNL     1      40.334 -14.937   2.206  1.00  0.00     0.009 A 
BRANCH  11  14
HETATM   14  C   UNL     1      39.695 -13.785  -1.368  1.00  0.00     0.272 C 
BRANCH  14  15
HETATM   15  N   UNL     1      38.334 -14.200  -1.888  1.00  0.00    -0.075 N 
HETATM   16  C   UNL     1      38.410 -15.230  -2.982  1.00  0.00     0.269 C 
HETATM   17  H   UNL     1      37.852 -14.650  -1.100  1.00  0.00     0.279 HD
HETATM   18  C   UNL     1      37.512 -13.015  -2.300  1.00  0.00     0.269 C 
ENDBRANCH  14  15
ENDBRANCH  11  14
ENDBRANCH   7   8
ENDBRANCH   1   7
BRANCH   3  19
HETATM   19  C   UNL     1      43.509 -16.457   5.245  1.00  0.00     0.175 A 
HETATM   20  S   UNL     1      43.733 -17.703   6.380  1.00  0.00    -0.050 SA
HETATM   21  C   UNL     1      43.772 -18.848   5.092  1.00  0.00     0.037 A 
HETATM   22  C   UNL     1      43.596 -18.172   3.880  1.00  0.00     0.076 A 
HETATM   23  C   UNL     1      43.949 -20.240   5.150  1.00  0.00     0.021 A 
HETATM   24  N   UNL     1      43.437 -16.796   3.983  1.00  0.00    -0.223 NA
HETATM   25  C   UNL     1      43.599 -18.919   2.684  1.00  0.00     0.033 A 
HETATM   26  C   UNL     1      43.777 -20.306   2.730  1.00  0.00     0.002 A 
HETATM   27  C   UNL     1      43.950 -20.956   3.948  1.00  0.00     0.002 A 
ENDBRANCH   3  19
TORSDOF 5
ENDMDL
MODEL 2
REMARK VINA RESULT:      -7.5     14.512     16.513
REMARK  5 active torsions:
REMARK  status: ('A' for Active; 'I' for Inactive)
REMARK    1  A    between atoms: N_2  and  C_4 
REMARK    2  A    between atoms: C_4  and  C_5 
REMARK    3  A    between atoms: C_8  and  C_9 
REMARK    4  A    between atoms: C_9  and  N_10 
REMARK       I    between atoms: N_10  and  C_11 
REMARK       I    between atoms: C_11  and  N_12 
REMARK    5  A    between atoms: N_12  and  C_13 
ROOT
HETATM    1  N   UNL     1      47.099 -28.944   0.059  1.00  0.00    -0.339 N 
HETATM    2  C   UNL     1      47.585 -28.666   1.297  1.00  0.00     0.322 C 
HETATM    3  N   UNL     1      48.793 -29.186   1.636  1.00  0.00    -0.287 N 
HETATM    4  O   UNL     1      46.970 -27.986   2.116  1.00  0.00    -0.247 OA
HETATM    5  H   UNL     1      47.687 -29.500  -0.557  1.00  0.00     0.164 HD
HETATM    6  H   UNL     1      49.123 -28.965   2.564  1.00  0.00     0.172 HD
ENDROOT
BRANCH   1   7
HETATM    7  C   UNL     1      45.915 -28.320  -0.479  1.00  0.00     0.162 C 
BRANCH   7   8
HETATM    8  C   UNL     1      45.429 -28.921  -1.781  1.00  0.00    -0.040 A 
HETATM    9  C   UNL     1      44.760 -30.149  -1.829  1.00  0.00     0.009 A 
HETATM   10  C   UNL     1      44.238 -30.639  -3.028  1.00  0.00     0.009 A 
HETATM   11  C   UNL     1      44.357 -29.896  -4.210  1.00  0.00    -0.033 A 
HETATM   12  C   UNL     1      45.030 -28.668  -4.172  1.00  0.00     0.009 A 
HETATM   13  C   UNL     1      45.557 -28.187  -2.969  1.00  0.00     0.009 A 
BRANCH  11  14
HETATM   14  C   UNL     1      43.717 -30.380  -5.482  1.00  0.00     0.272 C 
BRANCH  14  15
HETATM   15  N   UNL     1      44.730 -30.749  -6.546  1.00  0.00    -0.075 N 
HETATM   16  C   UNL     1      44.097 -31.254  -7.813  1.00  0.00     0.269 C 
HETATM   17  H   UNL     1      45.216 -29.878  -6.791  1.00  0.00     0.279 HD
HETATM   18  C   UNL     1      45.761 -31.706  -6.024  1.00  0.00     0.269 C 
ENDBRANCH  14  15
ENDBRANCH  11  14
ENDBRANCH   7   8
ENDBRANCH   1   7
BRANCH   3  19
HETATM   19  C   UNL     1      49.629 -29.888   0.818  1.00  0.00     0.175 A 
HETATM   20  S   UNL     1      50.442 -31.173   1.578  1.00  0.00    -0.050 SA
HETATM   21  C   UNL     1      51.257 -31.514   0.097  1.00  0.00     0.037 A 
HETATM   22  C   UNL     1      50.824 -30.608  -0.876  1.00  0.00     0.076 A 
HETATM   23  C   UNL     1      52.211 -32.506  -0.180  1.00  0.00     0.021 A 
HETATM   24  N   UNL     1      49.879 -29.682  -0.450  1.00  0.00    -0.223 NA
HETATM   25  C   UNL     1      51.368 -30.698  -2.173  1.00  0.00     0.033 A 
HETATM   26  C   UNL     1      52.322 -31.682  -2.460  1.00  0.00     0.002 A 
HETATM   27  C   UNL     1      52.736 -32.573  -1.475  1.00  0.00     0.002 A 
ENDBRANCH   3  19
TORSDOF 5
ENDMDL
MODEL 3
REMARK VINA RESULT:      -7.4      4.036      7.529
REMARK  5 active torsions:
REMARK  status: ('A' for Active; 'I' for Inactive)
REMARK    1  A    between atoms: N_2  and  C_4 
REMARK    2  A    between atoms: C_4  and  C_5 
REMARK    3  A    between atoms: C_8  and  C_9 
REMARK    4  A    between atoms: C_9  and  N_10 
REMARK       I    between atoms: N_10  and  C_11 
REMARK       I    between atoms: C_11  and  N_12 
REMARK    5  A    between atoms: N_12  and  C_13 
ROOT
HETATM    1  N   UNL     1      41.223 -12.740   5.044  1.00  0.00    -0.339 N 
HETATM    2  C   UNL     1      40.195 -13.277   5.752  1.00  0.00     0.322 C 
HETATM    3  N   UNL     1      40.080 -14.630   5.779  1.00  0.00    -0.287 N 
HETATM    4  O   UNL     1      39.365 -12.589   6.346  1.00  0.00    -0.247 OA
HETATM    5  H   UNL     1      41.869 -13.387   4.600  1.00  0.00     0.164 HD
HETATM    6  H   UNL     1      39.303 -14.996   6.309  1.00  0.00     0.172 HD
ENDROOT
BRANCH   1   7
HETATM    7  C   UNL     1      41.549 -11.335   5.075  1.00  0.00     0.162 C 
BRANCH   7   8
HETATM    8  C   UNL     1      42.331 -10.903   6.297  1.00  0.00    -0.040 A 
HETATM    9  C   UNL     1      41.849  -9.932   7.182  1.00  0.00     0.009 A 
HETATM   10  C   UNL     1      42.543  -9.616   8.353  1.00  0.00     0.009 A 
HETATM   11  C   UNL     1      43.731 -10.284   8.676  1.00  0.00    -0.033 A 
HETATM   12  C   UNL     1      44.223 -11.254   7.792  1.00  0.00     0.009 A 
HETATM   13  C   UNL     1      43.527 -11.560   6.618  1.00  0.00     0.009 A 
BRANCH  11  14
HETATM   14  C   UNL     1      44.429 -10.010   9.979  1.00  0.00     0.272 C 
BRANCH  14  15
HETATM   15  N   UNL     1      43.472  -9.899  11.147  1.00  0.00    -0.075 N 
HETATM   16  C   UNL     1      43.619  -8.612  11.911  1.00  0.00     0.269 C 
HETATM   17  H   UNL     1      42.528  -9.890  10.743  1.00  0.00     0.279 HD
HETATM   18  C   UNL     1      43.561 -11.092  12.052  1.00  0.00     0.269 C 
ENDBRANCH  14  15
ENDBRANCH  11  14
ENDBRANCH   7   8
ENDBRANCH   1   7
BRANCH   3  19
HETATM   19  C   UNL     1      40.957 -15.525   5.242  1.00  0.00     0.175 A 
HETATM   20  S   UNL     1      42.000 -16.253   6.370  1.00  0.00    -0.050 SA
HETATM   21  C   UNL     1      42.762 -17.117   5.087  1.00  0.00     0.037 A 
HETATM   22  C   UNL     1      42.137 -16.780   3.882  1.00  0.00     0.076 A 
HETATM   23  C   UNL     1      43.834 -18.022   5.143  1.00  0.00     0.021 A 
HETATM   24  N   UNL     1      41.093 -15.869   3.986  1.00  0.00    -0.223 NA
HETATM   25  C   UNL     1      42.606 -17.370   2.690  1.00  0.00     0.033 A 
HETATM   26  C   UNL     1      43.675 -18.271   2.735  1.00  0.00     0.002 A 
HETATM   27  C   UNL     1      44.280 -18.591   3.946  1.00  0.00     0.002 A 
ENDBRANCH   3  19
TORSDOF 5
ENDMDL
MODEL 4
REMARK VINA RESULT:      -7.3      1.580      1.990
REMARK  5 active torsions:
REMARK  status: ('A' for Active; 'I' for Inactive)
REMARK    1  A    between atoms: N_2  and  C_4 
REMARK    2  A    between atoms: C_4  and  C_5 
REMARK    3  A    between atoms: C_8  and  C_9 
REMARK    4  A    between atoms: C_9  and  N_10 
REMARK       I    between atoms: N_10  and  C_11 
REMARK       I    between atoms: C_11  and  N_12 
REMARK    5  A    between atoms: N_12  and  C_13 
ROOT
HETATM    1  N   UNL     1      39.932 -13.328   4.600  1.00  0.00    -0.339 N 
HETATM    2  C   UNL     1      39.976 -13.399   5.957  1.00  0.00     0.322 C 
HETATM    3  N   UNL     1      40.657 -14.431   6.518  1.00  0.00    -0.287 N 
HETATM    4  O   UNL     1      39.413 -12.582   6.684  1.00  0.00    -0.247 OA
HETATM    5  H   UNL     1      40.443 -14.039   4.082  1.00  0.00     0.164 HD
HETATM    6  H   UNL     1      40.666 -14.458   7.527  1.00  0.00     0.172 HD
ENDROOT
BRANCH   1   7
HETATM    7  C   UNL     1      39.387 -12.198   3.890  1.00  0.00     0.162 C 
BRANCH   7   8
HETATM    8  C   UNL     1      39.189 -12.430   2.407  1.00  0.00    -0.040 A 
HETATM    9  C   UNL     1      38.404 -11.579   1.620  1.00  0.00     0.009 A 
HETATM   10  C   UNL     1      38.310 -11.758   0.237  1.00  0.00     0.009 A 
HETATM   11  C   UNL     1      39.022 -12.786  -0.395  1.00  0.00    -0.033 A 
HETATM   12  C   UNL     1      39.807 -13.645   0.387  1.00  0.00     0.009 A 
HETATM   13  C   UNL     1      39.889 -13.465   1.771  1.00  0.00     0.009 A 
BRANCH  11  14
HETATM   14  C   UNL     1      38.994 -12.923  -1.892  1.00  0.00     0.272 C 
BRANCH  14  15
HETATM   15  N   UNL     1      37.872 -13.816  -2.379  1.00  0.00    -0.075 N 
HETATM   16  C   UNL     1      38.335 -14.872  -3.344  1.00  0.00     0.269 C 
HETATM   17  H   UNL     1      37.522 -14.313  -1.551  1.00  0.00     0.279 HD
HETATM   18  C   UNL     1      36.731 -13.018  -2.938  1.00  0.00     0.269 C 
ENDBRANCH  14  15
ENDBRANCH  11  14
ENDBRANCH   7   8
ENDBRANCH   1   7
BRANCH   3  19
HETATM   19  C   UNL     1      41.395 -15.367   5.854  1.00  0.00     0.175 A 
HETATM   20  S   UNL     1      42.435 -16.277   6.845  1.00  0.00    -0.050 SA
HETATM   21  C   UNL     1      43.007 -17.114   5.451  1.00  0.00     0.037 A 
HETATM   22  C   UNL     1      42.336 -16.628   4.324  1.00  0.00     0.076 A 
HETATM   23  C   UNL     1      43.980 -18.122   5.361  1.00  0.00     0.021 A 
HETATM   24  N   UNL     1      41.403 -15.629   4.572  1.00  0.00    -0.223 NA
HETATM   25  C   UNL     1      42.653 -17.172   3.063  1.00  0.00     0.033 A 
HETATM   26  C   UNL     1      43.623 -18.175   2.962  1.00  0.00     0.002 A 
HETATM   27  C   UNL     1      44.277 -18.643   4.097  1.00  0.00     0.002 A 
ENDBRANCH   3  19
TORSDOF 5
ENDMDL
MODEL 5
REMARK VINA RESULT:      -7.2      2.903      7.807
REMARK  5 active torsions:
REMARK  status: ('A' for Active; 'I' for Inactive)
REMARK    1  A    between atoms: N_2  and  C_4 
REMARK    2  A    between atoms: C_4  and  C_5 
REMARK    3  A    between atoms: C_8  and  C_9 
REMARK    4  A    between atoms: C_9  and  N_10 
REMARK       I    between atoms: N_10  and  C_11 
REMARK       I    between atoms: C_11  and  N_12 
REMARK    5  A    between atoms: N_12  and  C_13 
ROOT
HETATM    1  N   UNL     1      41.701 -12.923   2.970  1.00  0.00    -0.339 N 
HETATM    2  C   UNL     1      42.120 -11.668   2.662  1.00  0.00     0.322 C 
HETATM    3  N   UNL     1      41.754 -11.151   1.461  1.00  0.00    -0.287 N 
HETATM    4  O   UNL     1      42.826 -10.999   3.416  1.00  0.00    -0.247 OA
HETATM    5  H   UNL     1      41.105 -13.393   2.292  1.00  0.00     0.164 HD
HETATM    6  H   UNL     1      42.087 -10.220   1.261  1.00  0.00     0.172 HD
ENDROOT
BRANCH   1   7
HETATM    7  C   UNL     1      41.880 -13.515   4.273  1.00  0.00     0.162 C 
BRANCH   7   8
HETATM    8  C   UNL     1      42.503 -14.894   4.252  1.00  0.00    -0.040 A 
HETATM    9  C   UNL     1      42.467 -15.708   3.114  1.00  0.00     0.009 A 
HETATM   10  C   UNL     1      43.129 -16.939   3.086  1.00  0.00     0.009 A 
HETATM   11  C   UNL     1      43.863 -17.374   4.197  1.00  0.00    -0.033 A 
HETATM   12  C   UNL     1      43.900 -16.567   5.342  1.00  0.00     0.009 A 
HETATM   13  C   UNL     1      43.229 -15.340   5.365  1.00  0.00     0.009 A 
BRANCH  11  14
HETATM   14  C   UNL     1      44.650 -18.654   4.136  1.00  0.00     0.272 C 
BRANCH  14  15
HETATM   15  N   UNL     1      43.771 -19.886   4.186  1.00  0.00    -0.075 N 
HETATM   16  C   UNL     1      44.125 -20.819   5.311  1.00  0.00     0.269 C 
HETATM   17  H   UNL     1      42.819 -19.551   4.376  1.00  0.00     0.279 HD
HETATM   18  C   UNL     1      43.740 -20.600   2.867  1.00  0.00     0.269 C 
ENDBRANCH  14  15
ENDBRANCH  11  14
ENDBRANCH   7   8
ENDBRANCH   1   7
BRANCH   3  19
HETATM   19  C   UNL     1      40.915 -11.732   0.555  1.00  0.00     0.175 A 
HETATM   20  S   UNL     1      39.509 -10.836   0.223  1.00  0.00    -0.050 SA
HETATM   21  C   UNL     1      38.982 -12.086  -0.841  1.00  0.00     0.037 A 
HETATM   22  C   UNL     1      39.947 -13.098  -0.864  1.00  0.00     0.076 A 
HETATM   23  C   UNL     1      37.800 -12.166  -1.596  1.00  0.00     0.021 A 
HETATM   24  N   UNL     1      41.060 -12.877  -0.062  1.00  0.00    -0.223 NA
HETATM   25  C   UNL     1      39.719 -14.232  -1.670  1.00  0.00     0.033 A 
HETATM   26  C   UNL     1      38.543 -14.323  -2.424  1.00  0.00     0.002 A 
HETATM   27  C   UNL     1      37.598 -13.303  -2.386  1.00  0.00     0.002 A 
ENDBRANCH   3  19
TORSDOF 5
ENDMDL
MODEL 6
REMARK VINA RESULT:      -7.2      3.869      7.286
REMARK  5 active torsions:
REMARK  status: ('A' for Active; 'I' for Inactive)
REMARK    1  A    between atoms: N_2  and  C_4 
REMARK    2  A    between atoms: C_4  and  C_5 
REMARK    3  A    between atoms: C_8  and  C_9 
REMARK    4  A    between atoms: C_9  and  N_10 
REMARK       I    between atoms: N_10  and  C_11 
REMARK       I    between atoms: C_11  and  N_12 
REMARK    5  A    between atoms: N_12  and  C_13 
ROOT
HETATM    1  N   UNL     1      42.075 -12.683   3.854  1.00  0.00    -0.339 N 
HETATM    2  C   UNL     1      40.809 -13.035   4.198  1.00  0.00     0.322 C 
HETATM    3  N   UNL     1      40.501 -14.358   4.224  1.00  0.00    -0.287 N 
HETATM    4  O   UNL     1      39.938 -12.209   4.465  1.00  0.00    -0.247 OA
HETATM    5  H   UNL     1      42.732 -13.436   3.667  1.00  0.00     0.164 HD
HETATM    6  H   UNL     1      39.552 -14.585   4.477  1.00  0.00     0.172 HD
ENDROOT
BRANCH   1   7
HETATM    7  C   UNL     1      42.569 -11.331   3.951  1.00  0.00     0.162 C 
BRANCH   7   8
HETATM    8  C   UNL     1      43.155 -10.977   5.301  1.00  0.00    -0.040 A 
HETATM    9  C   UNL     1      42.431 -10.258   6.260  1.00  0.00     0.009 A 
HETATM   10  C   UNL     1      42.956 -10.023   7.533  1.00  0.00     0.009 A 
HETATM   11  C   UNL     1      44.217 -10.523   7.883  1.00  0.00    -0.033 A 
HETATM   12  C   UNL     1      44.951 -11.239   6.928  1.00  0.00     0.009 A 
HETATM   13  C   UNL     1      44.422 -11.464   5.653  1.00  0.00     0.009 A 
BRANCH  11  14
HETATM   14  C   UNL     1      44.744 -10.349   9.281  1.00  0.00     0.272 C 
BRANCH  14  15
HETATM   15  N   UNL     1      43.659 -10.001  10.279  1.00  0.00    -0.075 N 
HETATM   16  C   UNL     1      43.654  -8.548  10.663  1.00  0.00     0.269 C 
HETATM   17  H   UNL     1      42.766 -10.179   9.803  1.00  0.00     0.279 HD
HETATM   18  C   UNL     1      43.709 -10.892  11.485  1.00  0.00     0.269 C 
ENDBRANCH  14  15
ENDBRANCH  11  14
ENDBRANCH   7   8
ENDBRANCH   1   7
BRANCH   3  19
HETATM   19  C   UNL     1      41.370 -15.392   4.031  1.00  0.00     0.175 A 
HETATM   20  S   UNL     1      41.195 -16.191   2.541  1.00  0.00    -0.050 SA
HETATM   21  C   UNL     1      42.450 -17.283   2.995  1.00  0.00     0.037 A 
HETATM   22  C   UNL     1      42.915 -16.933   4.267  1.00  0.00     0.076 A 
HETATM   23  C   UNL     1      42.979 -18.369   2.281  1.00  0.00     0.021 A 
HETATM   24  N   UNL     1      42.291 -15.837   4.849  1.00  0.00    -0.223 NA
HETATM   25  C   UNL     1      43.946 -17.702   4.844  1.00  0.00     0.033 A 
HETATM   26  C   UNL     1      44.479 -18.788   4.142  1.00  0.00     0.002 A 
HETATM   27  C   UNL     1      44.001 -19.116   2.878  1.00  0.00     0.002 A 
ENDBRANCH   3  19
TORSDOF 5
ENDMDL
MODEL 7
REMARK VINA RESULT:      -7.0     14.214     17.907
REMARK  5 active torsions:
REMARK  status: ('A' for Active; 'I' for Inactive)
REMARK    1  A    between atoms: N_2  and  C_4 
REMARK    2  A    between atoms: C_4  and  C_5 
REMARK    3  A    between atoms: C_8  and  C_9 
REMARK    4  A    between atoms: C_9  and  N_10 
REMARK       I    between atoms: N_10  and  C_11 
REMARK       I    between atoms: C_11  and  N_12 
REMARK    5  A    between atoms: N_12  and  C_13 
ROOT
HETATM    1  N   UNL     1      48.791 -29.476   1.260  1.00  0.00    -0.339 N 
HETATM    2  C   UNL     1      48.035 -28.832   2.189  1.00  0.00     0.322 C 
HETATM    3  N   UNL     1      46.837 -28.328   1.795  1.00  0.00    -0.287 N 
HETATM    4  O   UNL     1      48.402 -28.676   3.352  1.00  0.00    -0.247 OA
HETATM    5  H   UNL     1      48.397 -29.572   0.327  1.00  0.00     0.164 HD
HETATM    6  H   UNL     1      46.304 -27.851   2.506  1.00  0.00     0.172 HD
ENDROOT
BRANCH   1   7
HETATM    7  C   UNL     1      49.996 -30.195   1.590  1.00  0.00     0.162 C 
BRANCH   7   8
HETATM    8  C   UNL     1      50.720 -30.781   0.396  1.00  0.00    -0.040 A 
HETATM    9  C   UNL     1      51.496 -31.942   0.493  1.00  0.00     0.009 A 
HETATM   10  C   UNL     1      52.078 -32.517  -0.639  1.00  0.00     0.009 A 
HETATM   11  C   UNL     1      51.877 -31.951  -1.905  1.00  0.00    -0.033 A 
HETATM   12  C   UNL     1      51.105 -30.786  -2.011  1.00  0.00     0.009 A 
HETATM   13  C   UNL     1      50.532 -30.211  -0.871  1.00  0.00     0.009 A 
BRANCH  11  14
HETATM   14  C   UNL     1      52.427 -32.620  -3.134  1.00  0.00     0.272 C 
BRANCH  14  15
HETATM   15  N   UNL     1      53.827 -32.156  -3.479  1.00  0.00    -0.075 N 
HETATM   16  C   UNL     1      54.038 -31.962  -4.955  1.00  0.00     0.269 C 
HETATM   17  H   UNL     1      53.936 -31.231  -3.046  1.00  0.00     0.279 HD
HETATM   18  C   UNL     1      54.871 -33.055  -2.885  1.00  0.00     0.269 C 
ENDBRANCH  14  15
ENDBRANCH  11  14
ENDBRANCH   7   8
ENDBRANCH   1   7
BRANCH   3  19
HETATM   19  C   UNL     1      46.258 -28.486   0.569  1.00  0.00     0.175 A 
HETATM   20  S   UNL     1      45.000 -29.628   0.527  1.00  0.00    -0.050 SA
HETATM   21  C   UNL     1      44.821 -29.347  -1.165  1.00  0.00     0.037 A 
HETATM   22  C   UNL     1      45.748 -28.378  -1.562  1.00  0.00     0.076 A 
HETATM   23  C   UNL     1      43.931 -29.943  -2.072  1.00  0.00     0.021 A 
HETATM   24  N   UNL     1      46.563 -27.883  -0.552  1.00  0.00    -0.223 NA
HETATM   25  C   UNL     1      45.784 -27.994  -2.918  1.00  0.00     0.033 A 
HETATM   26  C   UNL     1      44.902 -28.584  -3.831  1.00  0.00     0.002 A 
HETATM   27  C   UNL     1      43.989 -29.545  -3.411  1.00  0.00     0.002 A 
ENDBRANCH   3  19
TORSDOF 5
ENDMDL
MODEL 8
REMARK VINA RESULT:      -6.9      5.282      8.001
REMARK  5 active torsions:
REMARK  status: ('A' for Active; 'I' for Inactive)
REMARK    1  A    between atoms: N_2  and  C_4 
REMARK    2  A    between atoms: C_4  and  C_5 
REMARK    3  A    between atoms: C_8  and  C_9 
REMARK    4  A    between atoms: C_9  and  N_10 
REMARK       I    between atoms: N_10  and  C_11 
REMARK       I    between atoms: C_11  and  N_12 
REMARK    5  A    between atoms: N_12  and  C_13 
ROOT
HETATM    1  N   UNL     1      43.708 -12.466   7.552  1.00  0.00    -0.339 N 
HETATM    2  C   UNL     1      44.699 -11.658   7.093  1.00  0.00     0.322 C 
HETATM    3  N   UNL     1      44.957 -10.516   7.781  1.00  0.00    -0.287 N 
HETATM    4  O   UNL     1      45.348 -11.911   6.080  1.00  0.00    -0.247 OA
HETATM    5  H   UNL     1      43.237 -12.184   8.409  1.00  0.00     0.164 HD
HETATM    6  H   UNL     1      45.695  -9.935   7.411  1.00  0.00     0.172 HD
ENDROOT
BRANCH   1   7
HETATM    7  C   UNL     1      43.451 -13.778   7.012  1.00  0.00     0.162 C 
BRANCH   7   8
HETATM    8  C   UNL     1      42.474 -13.796   5.856  1.00  0.00    -0.040 A 
HETATM    9  C   UNL     1      41.277 -13.071   5.882  1.00  0.00     0.009 A 
HETATM   10  C   UNL     1      40.435 -13.027   4.767  1.00  0.00     0.009 A 
HETATM   11  C   UNL     1      40.786 -13.696   3.587  1.00  0.00    -0.033 A 
HETATM   12  C   UNL     1      41.980 -14.429   3.554  1.00  0.00     0.009 A 
HETATM   13  C   UNL     1      42.813 -14.475   4.676  1.00  0.00     0.009 A 
BRANCH  11  14
HETATM   14  C   UNL     1      39.927 -13.575   2.360  1.00  0.00     0.272 C 
BRANCH  14  15
HETATM   15  N   UNL     1      40.726 -13.635   1.075  1.00  0.00    -0.075 N 
HETATM   16  C   UNL     1      41.033 -12.277   0.507  1.00  0.00     0.269 C 
HETATM   17  H   UNL     1      41.629 -14.057   1.320  1.00  0.00     0.279 HD
HETATM   18  C   UNL     1      40.076 -14.526   0.057  1.00  0.00     0.269 C 
ENDBRANCH  14  15
ENDBRANCH  11  14
ENDBRANCH   7   8
ENDBRANCH   1   7
BRANCH   3  19
HETATM   19  C   UNL     1      44.383 -10.135   8.959  1.00  0.00     0.175 A 
HETATM   20  S   UNL     1      44.122  -8.462   9.107  1.00  0.00    -0.050 SA
HETATM   21  C   UNL     1      43.493  -8.715  10.693  1.00  0.00     0.037 A 
HETATM   22  C   UNL     1      43.526 -10.084  10.979  1.00  0.00     0.076 A 
HETATM   23  C   UNL     1      43.012  -7.773  11.615  1.00  0.00     0.021 A 
HETATM   24  N   UNL     1      44.032 -10.892   9.968  1.00  0.00    -0.223 NA
HETATM   25  C   UNL     1      43.061 -10.523  12.235  1.00  0.00     0.033 A 
HETATM   26  C   UNL     1      42.581  -9.591  13.163  1.00  0.00     0.002 A 
HETATM   27  C   UNL     1      42.558  -8.235  12.855  1.00  0.00     0.002 A 
ENDBRANCH   3  19
TORSDOF 5
ENDMDL
MODEL 9
REMARK VINA RESULT:      -6.7      4.336      7.619
REMARK  5 active torsions:
REMARK  status: ('A' for Active; 'I' for Inactive)
REMARK    1  A    between atoms: N_2  and  C_4 
REMARK    2  A    between atoms: C_4  and  C_5 
REMARK    3  A    between atoms: C_8  and  C_9 
REMARK    4  A    between atoms: C_9  and  N_10 
REMARK       I    between atoms: N_10  and  C_11 
REMARK       I    between atoms: C_11  and  N_12 
REMARK    5  A    between atoms: N_12  and  C_13 
ROOT
HETATM    1  N   UNL     1      41.365 -11.864   4.101  1.00  0.00    -0.339 N 
HETATM    2  C   UNL     1      40.074 -12.288   4.097  1.00  0.00     0.322 C 
HETATM    3  N   UNL     1      39.842 -13.617   3.941  1.00  0.00    -0.287 N 
HETATM    4  O   UNL     1      39.120 -11.520   4.210  1.00  0.00    -0.247 OA
HETATM    5  H   UNL     1      42.088 -12.574   4.020  1.00  0.00     0.164 HD
HETATM    6  H   UNL     1      38.873 -13.899   3.937  1.00  0.00     0.172 HD
ENDROOT
BRANCH   1   7
HETATM    7  C   UNL     1      41.746 -10.511   4.423  1.00  0.00     0.162 C 
BRANCH   7   8
HETATM    8  C   UNL     1      41.933 -10.251   5.903  1.00  0.00    -0.040 A 
HETATM    9  C   UNL     1      43.099 -10.624   6.582  1.00  0.00     0.009 A 
HETATM   10  C   UNL     1      43.289 -10.291   7.925  1.00  0.00     0.009 A 
HETATM   11  C   UNL     1      42.319  -9.555   8.618  1.00  0.00    -0.033 A 
HETATM   12  C   UNL     1      41.146  -9.182   7.947  1.00  0.00     0.009 A 
HETATM   13  C   UNL     1      40.960  -9.526   6.604  1.00  0.00     0.009 A 
BRANCH  11  14
HETATM   14  C   UNL     1      42.563  -9.118  10.036  1.00  0.00     0.272 C 
BRANCH  14  15
HETATM   15  N   UNL     1      42.058 -10.119  11.054  1.00  0.00    -0.075 N 
HETATM   16  C   UNL     1      40.686  -9.790  11.574  1.00  0.00     0.269 C 
HETATM   17  H   UNL     1      41.972 -11.014  10.557  1.00  0.00     0.279 HD
HETATM   18  C   UNL     1      43.039 -10.319  12.170  1.00  0.00     0.269 C 
ENDBRANCH  14  15
ENDBRANCH  11  14
ENDBRANCH   7   8
ENDBRANCH   1   7
BRANCH   3  19
HETATM   19  C   UNL     1      40.787 -14.600   3.883  1.00  0.00     0.175 A 
HETATM   20  S   UNL     1      40.725 -15.554   2.478  1.00  0.00    -0.050 SA
HETATM   21  C   UNL     1      42.034 -16.501   3.081  1.00  0.00     0.037 A 
HETATM   22  C   UNL     1      42.424 -15.993   4.325  1.00  0.00     0.076 A 
HETATM   23  C   UNL     1      42.664 -17.613   2.499  1.00  0.00     0.021 A 
HETATM   24  N   UNL     1      41.704 -14.893   4.771  1.00  0.00    -0.223 NA
HETATM   25  C   UNL     1      43.483 -16.623   5.009  1.00  0.00     0.033 A 
HETATM   26  C   UNL     1      44.116 -17.733   4.439  1.00  0.00     0.002 A 
HETATM   27  C   UNL     1      43.711 -18.220   3.201  1.00  0.00     0.002 A 
ENDBRANCH   3  19
TORSDOF 5
ENDMDL
MODEL 10
REMARK VINA RESULT:      -6.7      5.745      9.219
REMARK  5 active torsions:
REMARK  status: ('A' for Active; 'I' for Inactive)
REMARK    1  A    between atoms: N_2  and  C_4 
REMARK    2  A    between atoms: C_4  and  C_5 
REMARK    3  A    between atoms: C_8  and  C_9 
REMARK    4  A    between atoms: C_9  and  N_10 
REMARK       I    between atoms: N_10  and  C_11 
REMARK       I    between atoms: C_11  and  N_12 
REMARK    5  A    between atoms: N_12  and  C_13 
ROOT
HETATM    1  N   UNL     1      42.865 -10.634   7.466  1.00  0.00    -0.339 N 
HETATM    2  C   UNL     1      41.877  -9.845   6.970  1.00  0.00     0.322 C 
HETATM    3  N   UNL     1      41.037  -9.247   7.853  1.00  0.00    -0.287 N 
HETATM    4  O   UNL     1      41.708  -9.670   5.764  1.00  0.00    -0.247 OA
HETATM    5  H   UNL     1      42.939 -10.705   8.478  1.00  0.00     0.164 HD
HETATM    6  H   UNL     1      40.311  -8.672   7.452  1.00  0.00     0.172 HD
ENDROOT
BRANCH   1   7
HETATM    7  C   UNL     1      43.916 -11.186   6.647  1.00  0.00     0.162 C 
BRANCH   7   8
HETATM    8  C   UNL     1      43.634 -12.579   6.126  1.00  0.00    -0.040 A 
HETATM    9  C   UNL     1      43.707 -13.710   6.947  1.00  0.00     0.009 A 
HETATM   10  C   UNL     1      43.352 -14.973   6.468  1.00  0.00     0.009 A 
HETATM   11  C   UNL     1      42.894 -15.131   5.154  1.00  0.00    -0.033 A 
HETATM   12  C   UNL     1      42.823 -14.004   4.323  1.00  0.00     0.009 A 
HETATM   13  C   UNL     1      43.187 -12.744   4.807  1.00  0.00     0.009 A 
BRANCH  11  14
HETATM   14  C   UNL     1      42.426 -16.474   4.666  1.00  0.00     0.272 C 
BRANCH  14  15
HETATM   15  N   UNL     1      43.465 -17.190   3.830  1.00  0.00    -0.075 N 
HETATM   16  C   UNL     1      42.902 -17.782   2.568  1.00  0.00     0.269 C 
HETATM   17  H   UNL     1      44.140 -16.474   3.538  1.00  0.00     0.279 HD
HETATM   18  C   UNL     1      44.215 -18.212   4.633  1.00  0.00     0.269 C 
ENDBRANCH  14  15
ENDBRANCH  11  14
ENDBRANCH   7   8
ENDBRANCH   1   7
BRANCH   3  19
HETATM   19  C   UNL     1      41.140  -9.277   9.213  1.00  0.00     0.175 A 
HETATM   20  S   UNL     1      39.656  -9.415  10.030  1.00  0.00    -0.050 SA
HETATM   21  C   UNL     1      40.493  -9.343  11.535  1.00  0.00     0.037 A 
HETATM   22  C   UNL     1      41.865  -9.229  11.284  1.00  0.00     0.076 A 
HETATM   23  C   UNL     1      39.975  -9.380  12.839  1.00  0.00     0.021 A 
HETATM   24  N   UNL     1      42.225  -9.201   9.943  1.00  0.00    -0.223 NA
HETATM   25  C   UNL     1      42.747  -9.147  12.381  1.00  0.00     0.033 A 
HETATM   26  C   UNL     1      42.241  -9.181  13.685  1.00  0.00     0.002 A 
HETATM   27  C   UNL     1      40.873  -9.296  13.909  1.00  0.00     0.002 A 
ENDBRANCH   3  19
TORSDOF 5
ENDMDL
