MODEL 1
REMARK VINA RESULT:      -8.3      0.000      0.000
REMARK  5 active torsions:
REMARK  status: ('A' for Active; 'I' for Inactive)
REMARK    1  A    between atoms: C_3  and  O_4 
REMARK    2  A    between atoms: O_4  and  C_5 
REMARK    3  A    between atoms: C_5  and  C_6 
REMARK       I    between atoms: C_6  and  N_7 
REMARK    4  A    between atoms: N_7  and  N_8 
REMARK    5  A    between atoms: C_9  and  C_10 
ROOT
HETATM    1  C   UNL     1      43.124 -16.346   6.922  1.00  0.00     0.261 C 
HETATM    2  N   UNL     1      42.764 -15.175   6.263  1.00  0.00    -0.246 N 
HETATM    3  O   UNL     1      43.549 -16.423   8.074  1.00  0.00    -0.269 OA
HETATM    4  H   UNL     1      42.182 -15.284   5.433  1.00  0.00     0.192 HD
ENDROOT
BRANCH   2   5
HETATM    5  N   UNL     1      42.717 -13.922   6.835  1.00  0.00    -0.184 NA
HETATM    6  C   UNL     1      42.922 -12.900   6.065  1.00  0.00     0.152 C 
BRANCH   6   7
HETATM    7  C   UNL     1      42.933 -11.560   6.620  1.00  0.00     0.011 A 
HETATM    8  C   UNL     1      44.057 -10.891   7.206  1.00  0.00     0.004 A 
HETATM    9  C   UNL     1      43.630  -9.623   7.601  1.00  0.00     0.043 A 
HETATM   10  C   UNL     1      45.402 -11.252   7.444  1.00  0.00     0.014 A 
HETATM   11  C   UNL     1      44.482  -8.694   8.214  1.00  0.00     0.030 A 
HETATM   12  N   UNL     1      42.298  -9.525   7.274  1.00  0.00    -0.364 N 
HETATM   13  C   UNL     1      45.809  -9.076   8.434  1.00  0.00     0.002 A 
HETATM   14  C   UNL     1      46.264 -10.336   8.057  1.00  0.00     0.001 A 
HETATM   15  H   UNL     1      41.723  -8.712   7.450  1.00  0.00     0.165 HD
HETATM   16  C   UNL     1      41.867 -10.684   6.688  1.00  0.00     0.102 A 
ENDBRANCH   6   7
ENDBRANCH   2   5
BRANCH   1  17
HETATM   17  C   UNL     1      43.013 -17.590   6.047  1.00  0.00     0.280 C 
BRANCH  17  18
HETATM   18  O   UNL     1      44.201 -17.826   5.286  1.00  0.00    -0.341 OA
BRANCH  18  19
HETATM   19  C   UNL     1      43.889 -18.584   4.182  1.00  0.00     0.081 A 
HETATM   20  C   UNL     1      43.424 -17.965   3.009  1.00  0.00    -0.028 A 
HETATM   21  C   UNL     1      43.225 -16.480   2.912  1.00  0.00     0.051 C 
HETATM   22  C   UNL     1      43.177 -18.762   1.883  1.00  0.00     0.009 A 
HETATM   23  C   UNL     1      43.333 -20.147   1.944  1.00  0.00     0.001 A 
HETATM   24  C   UNL     1      43.732 -20.754   3.133  1.00  0.00     0.009 A 
HETATM   25  C   UNL     1      44.016 -19.982   4.268  1.00  0.00    -0.028 A 
HETATM   26  C   UNL     1      44.392 -20.661   5.554  1.00  0.00     0.051 C 
ENDBRANCH  18  19
ENDBRANCH  17  18
ENDBRANCH   1  17
TORSDOF 5
ENDMDL
MODEL 2
REMARK VINA RESULT:      -8.2      5.718      9.345
REMARK  5 active torsions:
REMARK  status: ('A' for Active; 'I' for Inactive)
REMARK    1  A    between atoms: C_3  and  O_4 
REMARK    2  A    between atoms: O_4  and  C_5 
REMARK    3  A    between atoms: C_5  and  C_6 
REMARK       I    between atoms: C_6  and  N_7 
REMARK    4  A    between atoms: N_7  and  N_8 
REMARK    5  A    between atoms: C_9  and  C_10 
ROOT
HETATM    1  C   UNL     1      40.959 -14.333   0.693  1.00  0.00     0.261 C 
HETATM    2  N   UNL     1      42.288 -14.370   1.103  1.00  0.00    -0.246 N 
HETATM    3  O   UNL     1      40.158 -15.266   0.759  1.00  0.00    -0.269 OA
HETATM    4  H   UNL     1      42.743 -13.468   1.243  1.00  0.00     0.192 HD
ENDROOT
BRANCH   2   5
HETATM    5  N   UNL     1      42.890 -15.423   1.756  1.00  0.00    -0.184 NA
HETATM    6  C   UNL     1      42.570 -15.626   2.996  1.00  0.00     0.152 C 
BRANCH   6   7
HETATM    7  C   UNL     1      43.208 -16.688   3.750  1.00  0.00     0.011 A 
HETATM    8  C   UNL     1      43.334 -18.058   3.349  1.00  0.00     0.004 A 
HETATM    9  C   UNL     1      44.020 -18.729   4.363  1.00  0.00     0.043 A 
HETATM   10  C   UNL     1      42.920 -18.794   2.218  1.00  0.00     0.014 A 
HETATM   11  C   UNL     1      44.320 -20.096   4.297  1.00  0.00     0.030 A 
HETATM   12  N   UNL     1      44.296 -17.805   5.343  1.00  0.00    -0.364 N 
HETATM   13  C   UNL     1      43.901 -20.800   3.164  1.00  0.00     0.002 A 
HETATM   14  C   UNL     1      43.210 -20.161   2.138  1.00  0.00     0.001 A 
HETATM   15  H   UNL     1      44.784 -18.012   6.205  1.00  0.00     0.165 HD
HETATM   16  C   UNL     1      43.810 -16.576   4.988  1.00  0.00     0.102 A 
ENDBRANCH   6   7
ENDBRANCH   2   5
BRANCH   1  17
HETATM   17  C   UNL     1      40.559 -13.005   0.059  1.00  0.00     0.280 C 
BRANCH  17  18
HETATM   18  O   UNL     1      40.585 -13.056  -1.370  1.00  0.00    -0.341 OA
BRANCH  18  19
HETATM   19  C   UNL     1      39.350 -12.697  -1.859  1.00  0.00     0.081 A 
HETATM   20  C   UNL     1      38.471 -13.679  -2.346  1.00  0.00    -0.028 A 
HETATM   21  C   UNL     1      38.835 -15.135  -2.379  1.00  0.00     0.051 C 
HETATM   22  C   UNL     1      37.197 -13.284  -2.775  1.00  0.00     0.009 A 
HETATM   23  C   UNL     1      36.833 -11.937  -2.776  1.00  0.00     0.001 A 
HETATM   24  C   UNL     1      37.739 -10.967  -2.352  1.00  0.00     0.009 A 
HETATM   25  C   UNL     1      39.010 -11.333  -1.887  1.00  0.00    -0.028 A 
HETATM   26  C   UNL     1      39.990 -10.268  -1.486  1.00  0.00     0.051 C 
ENDBRANCH  18  19
ENDBRANCH  17  18
ENDBRANCH   1  17
TORSDOF 5
ENDMDL
MODEL 3
REMARK VINA RESULT:      -8.2      1.793      2.702
REMARK  5 active torsions:
REMARK  status: ('A' for Active; 'I' for Inactive)
REMARK    1  A    between atoms: C_3  and  O_4 
REMARK    2  A    between atoms: O_4  and  C_5 
REMARK    3  A    between atoms: C_5  and  C_6 
REMARK       I    between atoms: C_6  and  N_7 
REMARK    4  A    between atoms: N_7  and  N_8 
REMARK    5  A    between atoms: C_9  and  C_10 
ROOT
HETATM    1  C   UNL     1      42.135 -15.932   2.691  1.00  0.00     0.261 C 
HETATM    2  N   UNL     1      41.877 -15.700   4.038  1.00  0.00    -0.246 N 
HETATM    3  O   UNL     1      42.105 -15.087   1.796  1.00  0.00    -0.269 OA
HETATM    4  H   UNL     1      42.201 -16.414   4.690  1.00  0.00     0.192 HD
ENDROOT
BRANCH   2   5
HETATM    5  N   UNL     1      41.659 -14.463   4.605  1.00  0.00    -0.184 NA
HETATM    6  C   UNL     1      42.649 -13.903   5.227  1.00  0.00     0.152 C 
BRANCH   6   7
HETATM    7  C   UNL     1      42.465 -12.624   5.887  1.00  0.00     0.011 A 
HETATM    8  C   UNL     1      43.477 -11.856   6.550  1.00  0.00     0.004 A 
HETATM    9  C   UNL     1      42.871 -10.695   7.034  1.00  0.00     0.043 A 
HETATM   10  C   UNL     1      44.855 -12.044   6.791  1.00  0.00     0.014 A 
HETATM   11  C   UNL     1      43.575  -9.710   7.738  1.00  0.00     0.030 A 
HETATM   12  N   UNL     1      41.542 -10.757   6.683  1.00  0.00    -0.364 N 
HETATM   13  C   UNL     1      44.940  -9.921   7.960  1.00  0.00     0.002 A 
HETATM   14  C   UNL     1      45.572 -11.070   7.495  1.00  0.00     0.001 A 
HETATM   15  H   UNL     1      40.857 -10.049   6.908  1.00  0.00     0.165 HD
HETATM   16  C   UNL     1      41.286 -11.913   5.997  1.00  0.00     0.102 A 
ENDBRANCH   6   7
ENDBRANCH   2   5
BRANCH   1  17
HETATM   17  C   UNL     1      42.406 -17.398   2.371  1.00  0.00     0.280 C 
BRANCH  17  18
HETATM   18  O   UNL     1      43.778 -17.751   2.566  1.00  0.00    -0.341 OA
BRANCH  18  19
HETATM   19  C   UNL     1      43.854 -18.808   3.444  1.00  0.00     0.081 A 
HETATM   20  C   UNL     1      44.131 -18.578   4.802  1.00  0.00    -0.028 A 
HETATM   21  C   UNL     1      44.376 -17.202   5.348  1.00  0.00     0.051 C 
HETATM   22  C   UNL     1      44.136 -19.672   5.678  1.00  0.00     0.009 A 
HETATM   23  C   UNL     1      43.931 -20.967   5.201  1.00  0.00     0.001 A 
HETATM   24  C   UNL     1      43.723 -21.186   3.841  1.00  0.00     0.009 A 
HETATM   25  C   UNL     1      43.681 -20.110   2.944  1.00  0.00    -0.028 A 
HETATM   26  C   UNL     1      43.509 -20.374   1.475  1.00  0.00     0.051 C 
ENDBRANCH  18  19
ENDBRANCH  17  18
ENDBRANCH   1  17
TORSDOF 5
ENDMDL
MODEL 4
REMARK VINA RESULT:      -8.2      5.191      7.595
REMARK  5 active torsions:
REMARK  status: ('A' for Active; 'I' for Inactive)
REMARK    1  A    between atoms: C_3  and  O_4 
REMARK    2  A    between atoms: O_4  and  C_5 
REMARK    3  A    between atoms: C_5  and  C_6 
REMARK       I    between atoms: C_6  and  N_7 
REMARK    4  A    between atoms: N_7  and  N_8 
REMARK    5  A    between atoms: C_9  and  C_10 
ROOT
HETATM    1  C   UNL     1      40.926 -15.112   3.948  1.00  0.00     0.261 C 
HETATM    2  N   UNL     1      40.776 -13.890   3.300  1.00  0.00    -0.246 N 
HETATM    3  O   UNL     1      40.179 -16.084   3.835  1.00  0.00    -0.269 OA
HETATM    4  H   UNL     1      41.599 -13.289   3.272  1.00  0.00     0.192 HD
ENDROOT
BRANCH   2   5
HETATM    5  N   UNL     1      39.829 -13.610   2.338  1.00  0.00    -0.184 NA
HETATM    6  C   UNL     1      40.213 -12.952   1.289  1.00  0.00     0.152 C 
BRANCH   6   7
HETATM    7  C   UNL     1      39.251 -12.586   0.267  1.00  0.00     0.011 A 
HETATM    8  C   UNL     1      38.937 -13.336  -0.913  1.00  0.00     0.004 A 
HETATM    9  C   UNL     1      37.958 -12.627  -1.611  1.00  0.00     0.043 A 
HETATM   10  C   UNL     1      39.401 -14.553  -1.457  1.00  0.00     0.014 A 
HETATM   11  C   UNL     1      37.414 -13.078  -2.820  1.00  0.00     0.030 A 
HETATM   12  N   UNL     1      37.691 -11.488  -0.887  1.00  0.00    -0.364 N 
HETATM   13  C   UNL     1      37.889 -14.289  -3.335  1.00  0.00     0.002 A 
HETATM   14  C   UNL     1      38.868 -15.017  -2.666  1.00  0.00     0.001 A 
HETATM   15  H   UNL     1      37.022 -10.780  -1.159  1.00  0.00     0.165 HD
HETATM   16  C   UNL     1      38.465 -11.450   0.241  1.00  0.00     0.102 A 
ENDBRANCH   6   7
ENDBRANCH   2   5
BRANCH   1  17
HETATM   17  C   UNL     1      42.107 -15.143   4.912  1.00  0.00     0.280 C 
BRANCH  17  18
HETATM   18  O   UNL     1      43.355 -15.317   4.236  1.00  0.00    -0.341 OA
BRANCH  18  19
HETATM   19  C   UNL     1      43.589 -16.660   4.054  1.00  0.00     0.081 A 
HETATM   20  C   UNL     1      43.981 -17.461   5.140  1.00  0.00    -0.028 A 
HETATM   21  C   UNL     1      44.184 -16.901   6.517  1.00  0.00     0.051 C 
HETATM   22  C   UNL     1      44.148 -18.837   4.931  1.00  0.00     0.009 A 
HETATM   23  C   UNL     1      43.985 -19.388   3.659  1.00  0.00     0.001 A 
HETATM   24  C   UNL     1      43.660 -18.570   2.578  1.00  0.00     0.009 A 
HETATM   25  C   UNL     1      43.457 -17.196   2.761  1.00  0.00    -0.028 A 
HETATM   26  C   UNL     1      43.160 -16.324   1.573  1.00  0.00     0.051 C 
ENDBRANCH  18  19
ENDBRANCH  17  18
ENDBRANCH   1  17
TORSDOF 5
ENDMDL
MODEL 5
REMARK VINA RESULT:      -8.1      2.681      9.566
REMARK  5 active torsions:
REMARK  status: ('A' for Active; 'I' for Inactive)
REMARK    1  A    between atoms: C_3  and  O_4 
REMARK    2  A    between atoms: O_4  and  C_5 
REMARK    3  A    between atoms: C_5  and  C_6 
REMARK       I    between atoms: C_6  and  N_7 
REMARK    4  A    between atoms: N_7  and  N_8 
REMARK    5  A    between atoms: C_9  and  C_10 
ROOT
HETATM    1  C   UNL     1      44.055 -11.400   7.365  1.00  0.00     0.261 C 
HETATM    2  N   UNL     1      43.142 -12.450   7.373  1.00  0.00    -0.246 N 
HETATM    3  O   UNL     1      45.276 -11.509   7.250  1.00  0.00    -0.269 OA
HETATM    4  H   UNL     1      42.168 -12.203   7.200  1.00  0.00     0.192 HD
ENDROOT
BRANCH   2   5
HETATM    5  N   UNL     1      43.448 -13.773   7.137  1.00  0.00    -0.184 NA
HETATM    6  C   UNL     1      43.260 -14.231   5.939  1.00  0.00     0.152 C 
BRANCH   6   7
HETATM    7  C   UNL     1      43.517 -15.627   5.644  1.00  0.00     0.011 A 
HETATM    8  C   UNL     1      43.394 -16.263   4.366  1.00  0.00     0.004 A 
HETATM    9  C   UNL     1      43.744 -17.605   4.530  1.00  0.00     0.043 A 
HETATM   10  C   UNL     1      43.010 -15.822   3.080  1.00  0.00     0.014 A 
HETATM   11  C   UNL     1      43.737 -18.524   3.473  1.00  0.00     0.030 A 
HETATM   12  N   UNL     1      44.061 -17.779   5.857  1.00  0.00    -0.364 N 
HETATM   13  C   UNL     1      43.355 -18.059   2.210  1.00  0.00     0.002 A 
HETATM   14  C   UNL     1      42.996 -16.729   2.014  1.00  0.00     0.001 A 
HETATM   15  H   UNL     1      44.348 -18.658   6.266  1.00  0.00     0.165 HD
HETATM   16  C   UNL     1      43.924 -16.599   6.537  1.00  0.00     0.102 A 
ENDBRANCH   6   7
ENDBRANCH   2   5
BRANCH   1  17
HETATM   17  C   UNL     1      43.410 -10.037   7.588  1.00  0.00     0.280 C 
BRANCH  17  18
HETATM   18  O   UNL     1      44.331  -9.082   8.124  1.00  0.00    -0.341 OA
BRANCH  18  19
HETATM   19  C   UNL     1      43.836  -8.592   9.310  1.00  0.00     0.081 A 
HETATM   20  C   UNL     1      42.930  -7.517   9.306  1.00  0.00    -0.028 A 
HETATM   21  C   UNL     1      42.485  -6.849   8.038  1.00  0.00     0.051 C 
HETATM   22  C   UNL     1      42.398  -7.086  10.529  1.00  0.00     0.009 A 
HETATM   23  C   UNL     1      42.804  -7.672  11.728  1.00  0.00     0.001 A 
HETATM   24  C   UNL     1      43.753  -8.693  11.721  1.00  0.00     0.009 A 
HETATM   25  C   UNL     1      44.282  -9.167  10.513  1.00  0.00    -0.028 A 
HETATM   26  C   UNL     1      45.342 -10.231  10.532  1.00  0.00     0.051 C 
ENDBRANCH  18  19
ENDBRANCH  17  18
ENDBRANCH   1  17
TORSDOF 5
ENDMDL
MODEL 6
REMARK VINA RESULT:      -8.1      4.776      7.211
REMARK  5 active torsions:
REMARK  status: ('A' for Active; 'I' for Inactive)
REMARK    1  A    between atoms: C_3  and  O_4 
REMARK    2  A    between atoms: O_4  and  C_5 
REMARK    3  A    between atoms: C_5  and  C_6 
REMARK       I    between atoms: C_6  and  N_7 
REMARK    4  A    between atoms: N_7  and  N_8 
REMARK    5  A    between atoms: C_9  and  C_10 
ROOT
HETATM    1  C   UNL     1      41.447 -15.297   4.352  1.00  0.00     0.261 C 
HETATM    2  N   UNL     1      40.637 -15.730   3.307  1.00  0.00    -0.246 N 
HETATM    3  O   UNL     1      41.734 -14.127   4.604  1.00  0.00    -0.269 OA
HETATM    4  H   UNL     1      40.269 -16.677   3.382  1.00  0.00     0.192 HD
ENDROOT
BRANCH   2   5
HETATM    5  N   UNL     1      39.933 -14.908   2.453  1.00  0.00    -0.184 NA
HETATM    6  C   UNL     1      40.515 -14.537   1.356  1.00  0.00     0.152 C 
BRANCH   6   7
HETATM    7  C   UNL     1      39.842 -13.633   0.443  1.00  0.00     0.011 A 
HETATM    8  C   UNL     1      39.307 -13.966  -0.844  1.00  0.00     0.004 A 
HETATM    9  C   UNL     1      38.743 -12.806  -1.376  1.00  0.00     0.043 A 
HETATM   10  C   UNL     1      39.257 -15.150  -1.612  1.00  0.00     0.014 A 
HETATM   11  C   UNL     1      38.123 -12.772  -2.632  1.00  0.00     0.030 A 
HETATM   12  N   UNL     1      38.932 -11.805  -0.451  1.00  0.00    -0.364 N 
HETATM   13  C   UNL     1      38.084 -13.959  -3.369  1.00  0.00     0.002 A 
HETATM   14  C   UNL     1      38.643 -15.132  -2.870  1.00  0.00     0.001 A 
HETATM   15  H   UNL     1      38.627 -10.848  -0.572  1.00  0.00     0.165 HD
HETATM   16  C   UNL     1      39.595 -12.289   0.644  1.00  0.00     0.102 A 
ENDBRANCH   6   7
ENDBRANCH   2   5
BRANCH   1  17
HETATM   17  C   UNL     1      42.040 -16.440   5.169  1.00  0.00     0.280 C 
BRANCH  17  18
HETATM   18  O   UNL     1      43.413 -16.681   4.847  1.00  0.00    -0.341 OA
BRANCH  18  19
HETATM   19  C   UNL     1      43.571 -18.000   4.494  1.00  0.00     0.081 A 
HETATM   20  C   UNL     1      43.575 -18.373   3.139  1.00  0.00    -0.028 A 
HETATM   21  C   UNL     1      43.388 -17.375   2.034  1.00  0.00     0.051 C 
HETATM   22  C   UNL     1      43.803 -19.717   2.815  1.00  0.00     0.009 A 
HETATM   23  C   UNL     1      43.962 -20.674   3.818  1.00  0.00     0.001 A 
HETATM   24  C   UNL     1      43.890 -20.300   5.159  1.00  0.00     0.009 A 
HETATM   25  C   UNL     1      43.694 -18.959   5.515  1.00  0.00    -0.028 A 
HETATM   26  C   UNL     1      43.565 -18.587   6.965  1.00  0.00     0.051 C 
ENDBRANCH  18  19
ENDBRANCH  17  18
ENDBRANCH   1  17
TORSDOF 5
ENDMDL
MODEL 7
REMARK VINA RESULT:      -7.8      2.401      9.006
REMARK  5 active torsions:
REMARK  status: ('A' for Active; 'I' for Inactive)
REMARK    1  A    between atoms: C_3  and  O_4 
REMARK    2  A    between atoms: O_4  and  C_5 
REMARK    3  A    between atoms: C_5  and  C_6 
REMARK       I    between atoms: C_6  and  N_7 
REMARK    4  A    between atoms: N_7  and  N_8 
REMARK    5  A    between atoms: C_9  and  C_10 
ROOT
HETATM    1  C   UNL     1      42.657 -11.763   4.388  1.00  0.00     0.261 C 
HETATM    2  N   UNL     1      42.938 -13.062   4.800  1.00  0.00    -0.246 N 
HETATM    3  O   UNL     1      42.503 -11.394   3.224  1.00  0.00    -0.269 OA
HETATM    4  H   UNL     1      42.767 -13.271   5.783  1.00  0.00     0.192 HD
ENDROOT
BRANCH   2   5
HETATM    5  N   UNL     1      42.975 -14.167   3.978  1.00  0.00    -0.184 NA
HETATM    6  C   UNL     1      43.176 -15.323   4.530  1.00  0.00     0.152 C 
BRANCH   6   7
HETATM    7  C   UNL     1      43.275 -16.515   3.711  1.00  0.00     0.011 A 
HETATM    8  C   UNL     1      43.532 -17.847   4.173  1.00  0.00     0.004 A 
HETATM    9  C   UNL     1      43.536 -18.684   3.056  1.00  0.00     0.043 A 
HETATM   10  C   UNL     1      43.770 -18.418   5.442  1.00  0.00     0.014 A 
HETATM   11  C   UNL     1      43.756 -20.065   3.147  1.00  0.00     0.030 A 
HETATM   12  N   UNL     1      43.296 -17.893   1.958  1.00  0.00    -0.364 N 
HETATM   13  C   UNL     1      43.986 -20.605   4.416  1.00  0.00     0.002 A 
HETATM   14  C   UNL     1      43.994 -19.796   5.548  1.00  0.00     0.001 A 
HETATM   15  H   UNL     1      43.247 -18.233   1.006  1.00  0.00     0.165 HD
HETATM   16  C   UNL     1      43.142 -16.587   2.337  1.00  0.00     0.102 A 
ENDBRANCH   6   7
ENDBRANCH   2   5
BRANCH   1  17
HETATM   17  C   UNL     1      42.616 -10.761   5.536  1.00  0.00     0.280 C 
BRANCH  17  18
HETATM   18  O   UNL     1      43.030 -11.339   6.777  1.00  0.00    -0.341 OA
BRANCH  18  19
HETATM   19  C   UNL     1      43.826 -10.444   7.452  1.00  0.00     0.081 A 
HETATM   20  C   UNL     1      43.243  -9.447   8.253  1.00  0.00    -0.028 A 
HETATM   21  C   UNL     1      41.757  -9.297   8.392  1.00  0.00     0.051 C 
HETATM   22  C   UNL     1      44.086  -8.592   8.978  1.00  0.00     0.009 A 
HETATM   23  C   UNL     1      45.473  -8.692   8.858  1.00  0.00     0.001 A 
HETATM   24  C   UNL     1      46.035  -9.643   8.008  1.00  0.00     0.009 A 
HETATM   25  C   UNL     1      45.220 -10.531   7.294  1.00  0.00    -0.028 A 
HETATM   26  C   UNL     1      45.845 -11.513   6.344  1.00  0.00     0.051 C 
ENDBRANCH  18  19
ENDBRANCH  17  18
ENDBRANCH   1  17
TORSDOF 5
ENDMDL
MODEL 8
REMARK VINA RESULT:      -7.7      5.485      7.537
REMARK  5 active torsions:
REMARK  status: ('A' for Active; 'I' for Inactive)
REMARK    1  A    between atoms: C_3  and  O_4 
REMARK    2  A    between atoms: O_4  and  C_5 
REMARK    3  A    between atoms: C_5  and  C_6 
REMARK       I    between atoms: C_6  and  N_7 
REMARK    4  A    between atoms: N_7  and  N_8 
REMARK    5  A    between atoms: C_9  and  C_10 
ROOT
HETATM    1  C   UNL     1      41.939 -15.985   1.749  1.00  0.00     0.261 C 
HETATM    2  N   UNL     1      40.589 -15.744   1.515  1.00  0.00    -0.246 N 
HETATM    3  O   UNL     1      42.879 -15.389   1.222  1.00  0.00    -0.269 OA
HETATM    4  H   UNL     1      39.937 -16.110   2.208  1.00  0.00     0.192 HD
ENDROOT
BRANCH   2   5
HETATM    5  N   UNL     1      40.086 -14.720   0.740  1.00  0.00    -0.184 NA
HETATM    6  C   UNL     1      39.769 -14.993  -0.487  1.00  0.00     0.152 C 
BRANCH   6   7
HETATM    7  C   UNL     1      39.282 -13.945  -1.364  1.00  0.00     0.011 A 
HETATM    8  C   UNL     1      38.785 -12.662  -0.962  1.00  0.00     0.004 A 
HETATM    9  C   UNL     1      38.432 -11.969  -2.121  1.00  0.00     0.043 A 
HETATM   10  C   UNL     1      38.596 -12.027   0.284  1.00  0.00     0.014 A 
HETATM   11  C   UNL     1      37.908 -10.670  -2.096  1.00  0.00     0.030 A 
HETATM   12  N   UNL     1      38.698 -12.799  -3.185  1.00  0.00    -0.364 N 
HETATM   13  C   UNL     1      37.734 -10.063  -0.848  1.00  0.00     0.002 A 
HETATM   14  C   UNL     1      38.071 -10.730   0.326  1.00  0.00     0.001 A 
HETATM   15  H   UNL     1      38.535 -12.559  -4.154  1.00  0.00     0.165 HD
HETATM   16  C   UNL     1      39.205 -13.990  -2.742  1.00  0.00     0.102 A 
ENDBRANCH   6   7
ENDBRANCH   2   5
BRANCH   1  17
HETATM   17  C   UNL     1      42.187 -17.146   2.705  1.00  0.00     0.280 C 
BRANCH  17  18
HETATM   18  O   UNL     1      43.537 -17.617   2.647  1.00  0.00    -0.341 OA
BRANCH  18  19
HETATM   19  C   UNL     1      43.691 -18.660   3.530  1.00  0.00     0.081 A 
HETATM   20  C   UNL     1      43.875 -18.404   4.899  1.00  0.00    -0.028 A 
HETATM   21  C   UNL     1      43.937 -17.010   5.452  1.00  0.00     0.051 C 
HETATM   22  C   UNL     1      43.964 -19.492   5.779  1.00  0.00     0.009 A 
HETATM   23  C   UNL     1      43.929 -20.800   5.297  1.00  0.00     0.001 A 
HETATM   24  C   UNL     1      43.811 -21.039   3.928  1.00  0.00     0.009 A 
HETATM   25  C   UNL     1      43.690 -19.973   3.027  1.00  0.00    -0.028 A 
HETATM   26  C   UNL     1      43.618 -20.251   1.552  1.00  0.00     0.051 C 
ENDBRANCH  18  19
ENDBRANCH  17  18
ENDBRANCH   1  17
TORSDOF 5
ENDMDL
MODEL 9
REMARK VINA RESULT:      -7.7      2.637      8.765
REMARK  5 active torsions:
REMARK  status: ('A' for Active; 'I' for Inactive)
REMARK    1  A    between atoms: C_3  and  O_4 
REMARK    2  A    between atoms: O_4  and  C_5 
REMARK    3  A    between atoms: C_5  and  C_6 
REMARK       I    between atoms: C_6  and  N_7 
REMARK    4  A    between atoms: N_7  and  N_8 
REMARK    5  A    between atoms: C_9  and  C_10 
ROOT
HETATM    1  C   UNL     1      41.666 -11.048   5.391  1.00  0.00     0.261 C 
HETATM    2  N   UNL     1      42.521 -11.226   4.308  1.00  0.00    -0.246 N 
HETATM    3  O   UNL     1      40.695 -11.753   5.666  1.00  0.00    -0.269 OA
HETATM    4  H   UNL     1      43.421 -10.749   4.360  1.00  0.00     0.192 HD
ENDROOT
BRANCH   2   5
HETATM    5  N   UNL     1      42.486 -12.290   3.433  1.00  0.00    -0.184 NA
HETATM    6  C   UNL     1      42.959 -13.425   3.844  1.00  0.00     0.152 C 
BRANCH   6   7
HETATM    7  C   UNL     1      42.994 -14.567   2.951  1.00  0.00     0.011 A 
HETATM    8  C   UNL     1      43.268 -15.925   3.316  1.00  0.00     0.004 A 
HETATM    9  C   UNL     1      43.191 -16.694   2.154  1.00  0.00     0.043 A 
HETATM   10  C   UNL     1      43.582 -16.573   4.531  1.00  0.00     0.014 A 
HETATM   11  C   UNL     1      43.405 -18.079   2.147  1.00  0.00     0.030 A 
HETATM   12  N   UNL     1      42.888 -15.837   1.122  1.00  0.00    -0.364 N 
HETATM   13  C   UNL     1      43.711 -18.695   3.365  1.00  0.00     0.002 A 
HETATM   14  C   UNL     1      43.799 -17.955   4.540  1.00  0.00     0.001 A 
HETATM   15  H   UNL     1      42.776 -16.120   0.157  1.00  0.00     0.165 HD
HETATM   16  C   UNL     1      42.771 -14.556   1.587  1.00  0.00     0.102 A 
ENDBRANCH   6   7
ENDBRANCH   2   5
BRANCH   1  17
HETATM   17  C   UNL     1      41.994  -9.813   6.222  1.00  0.00     0.280 C 
BRANCH  17  18
HETATM   18  O   UNL     1      42.290 -10.137   7.584  1.00  0.00    -0.341 OA
BRANCH  18  19
HETATM   19  C   UNL     1      43.628  -9.921   7.820  1.00  0.00     0.081 A 
HETATM   20  C   UNL     1      44.552 -10.964   7.640  1.00  0.00    -0.028 A 
HETATM   21  C   UNL     1      44.135 -12.341   7.214  1.00  0.00     0.051 C 
HETATM   22  C   UNL     1      45.914 -10.690   7.828  1.00  0.00     0.009 A 
HETATM   23  C   UNL     1      46.336  -9.427   8.242  1.00  0.00     0.001 A 
HETATM   24  C   UNL     1      45.401  -8.421   8.481  1.00  0.00     0.009 A 
HETATM   25  C   UNL     1      44.035  -8.654   8.273  1.00  0.00    -0.028 A 
HETATM   26  C   UNL     1      43.040  -7.572   8.587  1.00  0.00     0.051 C 
ENDBRANCH  18  19
ENDBRANCH  17  18
ENDBRANCH   1  17
TORSDOF 5
ENDMDL
MODEL 10
REMARK VINA RESULT:      -7.7      1.845      3.129
REMARK  5 active torsions:
REMARK  status: ('A' for Active; 'I' for Inactive)
REMARK    1  A    between atoms: C_3  and  O_4 
REMARK    2  A    between atoms: O_4  and  C_5 
REMARK    3  A    between atoms: C_5  and  C_6 
REMARK       I    between atoms: C_6  and  N_7 
REMARK    4  A    between atoms: N_7  and  N_8 
REMARK    5  A    between atoms: C_9  and  C_10 
ROOT
HETATM    1  C   UNL     1      41.913 -14.049   5.730  1.00  0.00     0.261 C 
HETATM    2  N   UNL     1      43.169 -13.520   6.006  1.00  0.00    -0.246 N 
HETATM    3  O   UNL     1      40.851 -13.686   6.236  1.00  0.00    -0.269 OA
HETATM    4  H   UNL     1      43.904 -13.721   5.327  1.00  0.00     0.192 HD
ENDROOT
BRANCH   2   5
HETATM    5  N   UNL     1      43.413 -12.424   6.805  1.00  0.00    -0.184 NA
HETATM    6  C   UNL     1      44.473 -11.720   6.557  1.00  0.00     0.152 C 
BRANCH   6   7
HETATM    7  C   UNL     1      44.808 -10.586   7.395  1.00  0.00     0.011 A 
HETATM    8  C   UNL     1      43.905  -9.575   7.861  1.00  0.00     0.004 A 
HETATM    9  C   UNL     1      44.641  -8.683   8.642  1.00  0.00     0.043 A 
HETATM   10  C   UNL     1      42.525  -9.333   7.684  1.00  0.00     0.014 A 
HETATM   11  C   UNL     1      44.065  -7.566   9.261  1.00  0.00     0.030 A 
HETATM   12  N   UNL     1      45.942  -9.129   8.647  1.00  0.00    -0.364 N 
HETATM   13  C   UNL     1      42.696  -7.351   9.071  1.00  0.00     0.002 A 
HETATM   14  C   UNL     1      41.936  -8.220   8.294  1.00  0.00     0.001 A 
HETATM   15  H   UNL     1      46.703  -8.672   9.131  1.00  0.00     0.165 HD
HETATM   16  C   UNL     1      46.056 -10.269   7.898  1.00  0.00     0.102 A 
ENDBRANCH   6   7
ENDBRANCH   2   5
BRANCH   1  17
HETATM   17  C   UNL     1      41.952 -15.220   4.754  1.00  0.00     0.280 C 
BRANCH  17  18
HETATM   18  O   UNL     1      43.234 -15.371   4.138  1.00  0.00    -0.341 OA
BRANCH  18  19
HETATM   19  C   UNL     1      43.496 -16.710   3.960  1.00  0.00     0.081 A 
HETATM   20  C   UNL     1      44.015 -17.474   5.019  1.00  0.00    -0.028 A 
HETATM   21  C   UNL     1      44.325 -16.879   6.361  1.00  0.00     0.051 C 
HETATM   22  C   UNL     1      44.208 -18.849   4.820  1.00  0.00     0.009 A 
HETATM   23  C   UNL     1      43.948 -19.431   3.580  1.00  0.00     0.001 A 
HETATM   24  C   UNL     1      43.496 -18.648   2.519  1.00  0.00     0.009 A 
HETATM   25  C   UNL     1      43.264 -17.277   2.695  1.00  0.00    -0.028 A 
HETATM   26  C   UNL     1      42.828 -16.442   1.524  1.00  0.00     0.051 C 
ENDBRANCH  18  19
ENDBRANCH  17  18
ENDBRANCH   1  17
TORSDOF 5
ENDMDL
