MODEL 1
REMARK VINA RESULT:      -9.0      0.000      0.000
REMARK  9 active torsions:
REMARK  status: ('A' for Active; 'I' for Inactive)
REMARK    1  A    between atoms: O_2  and  C_3 
REMARK    2  A    between atoms: C_6  and  N_7 
REMARK    3  A    between atoms: N_10  and  C_12 
REMARK    4  A    between atoms: C_12  and  C_13 
REMARK    5  A    between atoms: C_13  and  C_14 
REMARK    6  A    between atoms: C_14  and  N_15 
REMARK       I    between atoms: N_15  and  C_16 
REMARK    7  A    between atoms: C_16  and  C_17 
REMARK    8  A    between atoms: C_17  and  C_18 
REMARK    9  A    between atoms: C_18  and  C_19 
ROOT
HETATM    1  N   UNL     1      45.015 -10.554   8.302  1.00  0.00    -0.361 N 
HETATM    2  C   UNL     1      45.447  -9.412   8.946  1.00  0.00     0.217 C 
HETATM    3  O   UNL     1      46.119  -8.551   8.384  1.00  0.00    -0.274 OA
HETATM    4  H   UNL     1      44.670 -11.304   8.899  1.00  0.00     0.162 HD
ENDROOT
BRANCH   1   5
HETATM    5  C   UNL     1      45.514 -10.895   6.987  1.00  0.00     0.124 C 
BRANCH   5   6
HETATM    6  C   UNL     1      44.684 -11.977   6.288  1.00  0.00     0.047 C 
BRANCH   6   7
HETATM    7  C   UNL     1      43.197 -11.735   6.517  1.00  0.00     0.236 C 
BRANCH   7   8
HETATM    8  N   UNL     1      42.476 -13.036   6.806  1.00  0.00    -0.068 N 
HETATM    9  C   UNL     1      41.562 -13.477   5.645  1.00  0.00     0.254 C 
HETATM   10  C   UNL     1      40.876 -14.824   5.965  1.00  0.00     0.150 C 
HETATM   11  N   UNL     1      41.860 -15.858   6.340  1.00  0.00    -0.378 N 
HETATM   12  C   UNL     1      42.719 -15.466   7.477  1.00  0.00     0.150 C 
HETATM   13  C   UNL     1      43.468 -14.155   7.157  1.00  0.00     0.254 C 
HETATM   14  H   UNL     1      41.875 -12.903   7.629  1.00  0.00     0.280 HD
BRANCH  11  15
HETATM   15  C   UNL     1      42.433 -16.688   5.371  1.00  0.00     0.030 A 
HETATM   16  C   UNL     1      43.408 -17.656   5.657  1.00  0.00     0.032 A 
HETATM   17  C   UNL     1      43.950 -18.486   4.660  1.00  0.00     0.039 A 
HETATM   18  C   UNL     1      43.545 -18.355   3.337  1.00  0.00     0.068 A 
HETATM   19  C   UNL     1      42.612 -17.375   3.023  1.00  0.00     0.039 A 
HETATM   20  C   UNL     1      42.074 -16.552   4.020  1.00  0.00     0.032 A 
BRANCH  18  21
HETATM   21  O   UNL     1      43.983 -19.095   2.277  1.00  0.00    -0.356 OA
HETATM   22  C   UNL     1      43.743 -20.496   2.320  1.00  0.00     0.210 C 
ENDBRANCH  18  21
ENDBRANCH  11  15
ENDBRANCH   7   8
ENDBRANCH   6   7
ENDBRANCH   5   6
ENDBRANCH   1   5
BRANCH   2  23
HETATM   23  C   UNL     1      45.030  -9.305  10.396  1.00  0.00     0.105 C 
BRANCH  23  24
HETATM   24  C   UNL     1      44.270 -10.527  10.909  1.00  0.00     0.046 C 
BRANCH  24  25
HETATM   25  C   UNL     1      42.815 -10.269  11.297  1.00  0.00     0.203 A 
HETATM   26  N   UNL     1      42.747  -9.650  12.646  1.00  0.00    -0.257 NA
HETATM   27  C   UNL     1      42.225  -8.478  12.432  1.00  0.00     0.147 A 
HETATM   28  N   UNL     1      41.868  -8.161  11.152  1.00  0.00    -0.239 N 
HETATM   29  C   UNL     1      42.001  -7.482  13.487  1.00  0.00     0.037 A 
HETATM   30  C   UNL     1      41.295  -6.941  10.770  1.00  0.00     0.187 A 
HETATM   31  C   UNL     1      42.180  -9.251  10.369  1.00  0.00     0.257 A 
HETATM   32  S   UNL     1      40.830  -6.477   9.233  1.00  0.00    -0.040 SA
HETATM   33  N   UNL     1      41.098  -6.028  11.783  1.00  0.00    -0.332 N 
HETATM   34  C   UNL     1      41.435  -6.263  13.118  1.00  0.00     0.048 A 
HETATM   35  H   UNL     1      40.688  -5.137  11.518  1.00  0.00     0.168 HD
HETATM   36  C   UNL     1      41.209  -5.278  14.078  1.00  0.00     0.030 A 
HETATM   37  C   UNL     1      41.557  -5.521  15.409  1.00  0.00     0.002 A 
HETATM   38  C   UNL     1      42.127  -6.742  15.777  1.00  0.00     0.001 A 
HETATM   39  C   UNL     1      42.351  -7.728  14.816  1.00  0.00     0.017 A 
HETATM   40  O   UNL     1      42.004  -9.447   9.177  1.00  0.00    -0.270 OA
ENDBRANCH  24  25
ENDBRANCH  23  24
ENDBRANCH   2  23
TORSDOF 9
ENDMDL
MODEL 2
REMARK VINA RESULT:      -9.0      1.804      2.418
REMARK  9 active torsions:
REMARK  status: ('A' for Active; 'I' for Inactive)
REMARK    1  A    between atoms: O_2  and  C_3 
REMARK    2  A    between atoms: C_6  and  N_7 
REMARK    3  A    between atoms: N_10  and  C_12 
REMARK    4  A    between atoms: C_12  and  C_13 
REMARK    5  A    between atoms: C_13  and  C_14 
REMARK    6  A    between atoms: C_14  and  N_15 
REMARK       I    between atoms: N_15  and  C_16 
REMARK    7  A    between atoms: C_16  and  C_17 
REMARK    8  A    between atoms: C_17  and  C_18 
REMARK    9  A    between atoms: C_18  and  C_19 
ROOT
HETATM    1  N   UNL     1      44.157 -12.010   7.338  1.00  0.00    -0.361 N 
HETATM    2  C   UNL     1      45.215 -11.159   7.088  1.00  0.00     0.217 C 
HETATM    3  O   UNL     1      45.611 -10.913   5.952  1.00  0.00    -0.274 OA
HETATM    4  H   UNL     1      44.052 -12.328   8.300  1.00  0.00     0.162 HD
ENDROOT
BRANCH   1   5
HETATM    5  C   UNL     1      43.595 -12.821   6.279  1.00  0.00     0.124 C 
BRANCH   5   6
HETATM    6  C   UNL     1      42.140 -12.465   5.953  1.00  0.00     0.047 C 
BRANCH   6   7
HETATM    7  C   UNL     1      42.043 -11.859   4.558  1.00  0.00     0.236 C 
BRANCH   7   8
HETATM    8  N   UNL     1      41.830 -12.938   3.516  1.00  0.00    -0.068 N 
HETATM    9  C   UNL     1      43.147 -13.394   2.858  1.00  0.00     0.254 C 
HETATM   10  C   UNL     1      42.890 -14.518   1.829  1.00  0.00     0.150 C 
HETATM   11  N   UNL     1      42.134 -15.636   2.426  1.00  0.00    -0.378 N 
HETATM   12  C   UNL     1      40.850 -15.221   3.027  1.00  0.00     0.150 C 
HETATM   13  C   UNL     1      41.085 -14.144   4.107  1.00  0.00     0.254 C 
HETATM   14  H   UNL     1      41.235 -12.559   2.768  1.00  0.00     0.280 HD
BRANCH  11  15
HETATM   15  C   UNL     1      42.798 -16.709   3.029  1.00  0.00     0.030 A 
HETATM   16  C   UNL     1      43.312 -16.669   4.334  1.00  0.00     0.032 A 
HETATM   17  C   UNL     1      43.959 -17.773   4.916  1.00  0.00     0.039 A 
HETATM   18  C   UNL     1      44.128 -18.950   4.196  1.00  0.00     0.068 A 
HETATM   19  C   UNL     1      43.666 -19.000   2.886  1.00  0.00     0.039 A 
HETATM   20  C   UNL     1      43.020 -17.896   2.313  1.00  0.00     0.032 A 
BRANCH  18  21
HETATM   21  O   UNL     1      44.729 -20.093   4.638  1.00  0.00    -0.356 OA
HETATM   22  C   UNL     1      43.948 -20.967   5.444  1.00  0.00     0.210 C 
ENDBRANCH  18  21
ENDBRANCH  11  15
ENDBRANCH   7   8
ENDBRANCH   6   7
ENDBRANCH   5   6
ENDBRANCH   1   5
BRANCH   2  23
HETATM   23  C   UNL     1      45.849 -10.556   8.322  1.00  0.00     0.105 C 
BRANCH  23  24
HETATM   24  C   UNL     1      45.021  -9.438   8.954  1.00  0.00     0.046 C 
BRANCH  24  25
HETATM   25  C   UNL     1      43.833  -9.908   9.793  1.00  0.00     0.203 A 
HETATM   26  N   UNL     1      43.904  -9.319  11.155  1.00  0.00    -0.257 NA
HETATM   27  C   UNL     1      42.840  -8.574  11.235  1.00  0.00     0.147 A 
HETATM   28  N   UNL     1      41.989  -8.558  10.165  1.00  0.00    -0.239 N 
HETATM   29  C   UNL     1      42.506  -7.754  12.405  1.00  0.00     0.037 A 
HETATM   30  C   UNL     1      40.808  -7.809  10.106  1.00  0.00     0.187 A 
HETATM   31  C   UNL     1      42.526  -9.399   9.215  1.00  0.00     0.257 A 
HETATM   32  S   UNL     1      39.716  -7.735   8.842  1.00  0.00    -0.040 SA
HETATM   33  N   UNL     1      40.523  -7.050  11.220  1.00  0.00    -0.332 N 
HETATM   34  C   UNL     1      41.335  -7.001  12.357  1.00  0.00     0.048 A 
HETATM   35  H   UNL     1      39.671  -6.497  11.188  1.00  0.00     0.168 HD
HETATM   36  C   UNL     1      40.974  -6.197  13.437  1.00  0.00     0.030 A 
HETATM   37  C   UNL     1      41.797  -6.150  14.564  1.00  0.00     0.002 A 
HETATM   38  C   UNL     1      42.973  -6.904  14.612  1.00  0.00     0.001 A 
HETATM   39  C   UNL     1      43.332  -7.709  13.530  1.00  0.00     0.017 A 
HETATM   40  O   UNL     1      42.102  -9.732   8.120  1.00  0.00    -0.270 OA
ENDBRANCH  24  25
ENDBRANCH  23  24
ENDBRANCH   2  23
TORSDOF 9
ENDMDL
MODEL 3
REMARK VINA RESULT:      -8.8      3.244      5.224
REMARK  9 active torsions:
REMARK  status: ('A' for Active; 'I' for Inactive)
REMARK    1  A    between atoms: O_2  and  C_3 
REMARK    2  A    between atoms: C_6  and  N_7 
REMARK    3  A    between atoms: N_10  and  C_12 
REMARK    4  A    between atoms: C_12  and  C_13 
REMARK    5  A    between atoms: C_13  and  C_14 
REMARK    6  A    between atoms: C_14  and  N_15 
REMARK       I    between atoms: N_15  and  C_16 
REMARK    7  A    between atoms: C_16  and  C_17 
REMARK    8  A    between atoms: C_17  and  C_18 
REMARK    9  A    between atoms: C_18  and  C_19 
ROOT
HETATM    1  N   UNL     1      41.367 -12.903   6.260  1.00  0.00    -0.361 N 
HETATM    2  C   UNL     1      42.176 -13.918   6.731  1.00  0.00     0.217 C 
HETATM    3  O   UNL     1      41.808 -15.088   6.778  1.00  0.00    -0.274 OA
HETATM    4  H   UNL     1      41.668 -11.953   6.472  1.00  0.00     0.162 HD
ENDROOT
BRANCH   1   5
HETATM    5  C   UNL     1      39.964 -13.139   5.996  1.00  0.00     0.124 C 
BRANCH   5   6
HETATM    6  C   UNL     1      39.580 -12.920   4.528  1.00  0.00     0.047 C 
BRANCH   6   7
HETATM    7  C   UNL     1      40.731 -12.267   3.772  1.00  0.00     0.236 C 
BRANCH   7   8
HETATM    8  N   UNL     1      41.327 -13.227   2.763  1.00  0.00    -0.068 N 
HETATM    9  C   UNL     1      42.856 -13.369   2.913  1.00  0.00     0.254 C 
HETATM   10  C   UNL     1      43.418 -14.384   1.891  1.00  0.00     0.150 C 
HETATM   11  N   UNL     1      42.714 -15.678   1.970  1.00  0.00    -0.378 N 
HETATM   12  C   UNL     1      41.252 -15.564   1.790  1.00  0.00     0.150 C 
HETATM   13  C   UNL     1      40.655 -14.606   2.842  1.00  0.00     0.254 C 
HETATM   14  H   UNL     1      41.150 -12.864   1.819  1.00  0.00     0.280 HD
BRANCH  11  15
HETATM   15  C   UNL     1      43.170 -16.691   2.820  1.00  0.00     0.030 A 
HETATM   16  C   UNL     1      43.554 -16.473   4.152  1.00  0.00     0.032 A 
HETATM   17  C   UNL     1      43.991 -17.518   4.984  1.00  0.00     0.039 A 
HETATM   18  C   UNL     1      44.076 -18.817   4.497  1.00  0.00     0.068 A 
HETATM   19  C   UNL     1      43.742 -19.052   3.169  1.00  0.00     0.039 A 
HETATM   20  C   UNL     1      43.306 -18.006   2.345  1.00  0.00     0.032 A 
BRANCH  18  21
HETATM   21  O   UNL     1      44.476 -19.921   5.193  1.00  0.00    -0.356 OA
HETATM   22  C   UNL     1      43.848 -21.155   4.871  1.00  0.00     0.210 C 
ENDBRANCH  18  21
ENDBRANCH  11  15
ENDBRANCH   7   8
ENDBRANCH   6   7
ENDBRANCH   5   6
ENDBRANCH   1   5
BRANCH   2  23
HETATM   23  C   UNL     1      43.550 -13.476   7.184  1.00  0.00     0.105 C 
BRANCH  23  24
HETATM   24  C   UNL     1      44.341 -12.729   6.109  1.00  0.00     0.046 C 
BRANCH  24  25
HETATM   25  C   UNL     1      44.441 -11.218   6.313  1.00  0.00     0.203 A 
HETATM   26  N   UNL     1      43.165 -10.564   5.928  1.00  0.00    -0.257 NA
HETATM   27  C   UNL     1      42.731 -10.035   7.035  1.00  0.00     0.147 A 
HETATM   28  N   UNL     1      43.506 -10.168   8.153  1.00  0.00    -0.239 N 
HETATM   29  C   UNL     1      41.461  -9.310   7.148  1.00  0.00     0.037 A 
HETATM   30  C   UNL     1      43.172  -9.654   9.411  1.00  0.00     0.187 A 
HETATM   31  C   UNL     1      44.625 -10.881   7.781  1.00  0.00     0.257 A 
HETATM   32  S   UNL     1      44.061  -9.770  10.823  1.00  0.00    -0.040 SA
HETATM   33  N   UNL     1      41.973  -8.977   9.484  1.00  0.00    -0.332 N 
HETATM   34  C   UNL     1      41.116  -8.796   8.396  1.00  0.00     0.048 A 
HETATM   35  H   UNL     1      41.717  -8.604  10.393  1.00  0.00     0.168 HD
HETATM   36  C   UNL     1      39.916  -8.106   8.562  1.00  0.00     0.030 A 
HETATM   37  C   UNL     1      39.063  -7.937   7.469  1.00  0.00     0.002 A 
HETATM   38  C   UNL     1      39.408  -8.454   6.218  1.00  0.00     0.001 A 
HETATM   39  C   UNL     1      40.610  -9.143   6.053  1.00  0.00     0.017 A 
HETATM   40  O   UNL     1      45.610 -11.203   8.425  1.00  0.00    -0.270 OA
ENDBRANCH  24  25
ENDBRANCH  23  24
ENDBRANCH   2  23
TORSDOF 9
ENDMDL
MODEL 4
REMARK VINA RESULT:      -8.7      4.423     11.516
REMARK  9 active torsions:
REMARK  status: ('A' for Active; 'I' for Inactive)
REMARK    1  A    between atoms: O_2  and  C_3 
REMARK    2  A    between atoms: C_6  and  N_7 
REMARK    3  A    between atoms: N_10  and  C_12 
REMARK    4  A    between atoms: C_12  and  C_13 
REMARK    5  A    between atoms: C_13  and  C_14 
REMARK    6  A    between atoms: C_14  and  N_15 
REMARK       I    between atoms: N_15  and  C_16 
REMARK    7  A    between atoms: C_16  and  C_17 
REMARK    8  A    between atoms: C_17  and  C_18 
REMARK    9  A    between atoms: C_18  and  C_19 
ROOT
HETATM    1  N   UNL     1      42.875 -16.615   4.668  1.00  0.00    -0.361 N 
HETATM    2  C   UNL     1      43.168 -17.424   3.588  1.00  0.00     0.217 C 
HETATM    3  O   UNL     1      44.068 -18.259   3.613  1.00  0.00    -0.274 OA
HETATM    4  H   UNL     1      42.279 -15.811   4.479  1.00  0.00     0.162 HD
ENDROOT
BRANCH   1   5
HETATM    5  C   UNL     1      43.756 -16.566   5.815  1.00  0.00     0.124 C 
BRANCH   5   6
HETATM    6  C   UNL     1      43.923 -15.154   6.388  1.00  0.00     0.047 C 
BRANCH   6   7
HETATM    7  C   UNL     1      42.815 -14.241   5.878  1.00  0.00     0.236 C 
BRANCH   7   8
HETATM    8  N   UNL     1      43.271 -12.797   5.860  1.00  0.00    -0.068 N 
HETATM    9  C   UNL     1      42.156 -11.818   6.281  1.00  0.00     0.254 C 
HETATM   10  C   UNL     1      42.674 -10.362   6.284  1.00  0.00     0.150 C 
HETATM   11  N   UNL     1      43.894 -10.222   7.102  1.00  0.00    -0.378 N 
HETATM   12  C   UNL     1      44.986 -11.126   6.685  1.00  0.00     0.150 C 
HETATM   13  C   UNL     1      44.516 -12.595   6.737  1.00  0.00     0.254 C 
HETATM   14  H   UNL     1      43.541 -12.550   4.899  1.00  0.00     0.280 HD
BRANCH  11  15
HETATM   15  C   UNL     1      43.813  -9.911   8.463  1.00  0.00     0.030 A 
HETATM   16  C   UNL     1      44.907  -9.978   9.340  1.00  0.00     0.032 A 
HETATM   17  C   UNL     1      44.795  -9.641  10.700  1.00  0.00     0.039 A 
HETATM   18  C   UNL     1      43.572  -9.246  11.229  1.00  0.00     0.068 A 
HETATM   19  C   UNL     1      42.465  -9.214  10.390  1.00  0.00     0.039 A 
HETATM   20  C   UNL     1      42.583  -9.549   9.035  1.00  0.00     0.032 A 
BRANCH  18  21
HETATM   21  O   UNL     1      43.324  -8.888  12.523  1.00  0.00    -0.356 OA
HETATM   22  C   UNL     1      42.919  -7.546  12.759  1.00  0.00     0.210 C 
ENDBRANCH  18  21
ENDBRANCH  11  15
ENDBRANCH   7   8
ENDBRANCH   6   7
ENDBRANCH   5   6
ENDBRANCH   1   5
BRANCH   2  23
HETATM   23  C   UNL     1      42.295 -17.201   2.373  1.00  0.00     0.105 C 
BRANCH  23  24
HETATM   24  C   UNL     1      41.303 -16.049   2.532  1.00  0.00     0.046 C 
BRANCH  24  25
HETATM   25  C   UNL     1      41.583 -14.829   1.654  1.00  0.00     0.203 A 
HETATM   26  N   UNL     1      41.012 -15.031   0.299  1.00  0.00    -0.257 NA
HETATM   27  C   UNL     1      40.110 -14.099   0.190  1.00  0.00     0.147 A 
HETATM   28  N   UNL     1      39.962 -13.229   1.234  1.00  0.00    -0.239 N 
HETATM   29  C   UNL     1      39.248 -13.933  -0.985  1.00  0.00     0.037 A 
HETATM   30  C   UNL     1      39.038 -12.178   1.261  1.00  0.00     0.187 A 
HETATM   31  C   UNL     1      40.877 -13.600   2.196  1.00  0.00     0.257 A 
HETATM   32  S   UNL     1      38.795 -11.073   2.492  1.00  0.00    -0.040 SA
HETATM   33  N   UNL     1      38.243 -12.049   0.142  1.00  0.00    -0.332 N 
HETATM   34  C   UNL     1      38.322 -12.893  -0.969  1.00  0.00     0.048 A 
HETATM   35  H   UNL     1      37.565 -11.293   0.152  1.00  0.00     0.168 HD
HETATM   36  C   UNL     1      37.471 -12.695  -2.055  1.00  0.00     0.030 A 
HETATM   37  C   UNL     1      37.553 -13.549  -3.157  1.00  0.00     0.002 A 
HETATM   38  C   UNL     1      38.480 -14.593  -3.173  1.00  0.00     0.001 A 
HETATM   39  C   UNL     1      39.332 -14.789  -2.085  1.00  0.00     0.017 A 
HETATM   40  O   UNL     1      41.140 -13.095   3.276  1.00  0.00    -0.270 OA
ENDBRANCH  24  25
ENDBRANCH  23  24
ENDBRANCH   2  23
TORSDOF 9
ENDMDL
MODEL 5
REMARK VINA RESULT:      -8.7      2.964     11.418
REMARK  9 active torsions:
REMARK  status: ('A' for Active; 'I' for Inactive)
REMARK    1  A    between atoms: O_2  and  C_3 
REMARK    2  A    between atoms: C_6  and  N_7 
REMARK    3  A    between atoms: N_10  and  C_12 
REMARK    4  A    between atoms: C_12  and  C_13 
REMARK    5  A    between atoms: C_13  and  C_14 
REMARK    6  A    between atoms: C_14  and  N_15 
REMARK       I    between atoms: N_15  and  C_16 
REMARK    7  A    between atoms: C_16  and  C_17 
REMARK    8  A    between atoms: C_17  and  C_18 
REMARK    9  A    between atoms: C_18  and  C_19 
ROOT
HETATM    1  N   UNL     1      41.969 -11.294   4.062  1.00  0.00    -0.361 N 
HETATM    2  C   UNL     1      43.089 -11.812   3.442  1.00  0.00     0.217 C 
HETATM    3  O   UNL     1      44.156 -11.206   3.392  1.00  0.00    -0.274 OA
HETATM    4  H   UNL     1      41.086 -11.757   3.855  1.00  0.00     0.162 HD
ENDROOT
BRANCH   1   5
HETATM    5  C   UNL     1      41.939  -9.915   4.500  1.00  0.00     0.124 C 
BRANCH   5   6
HETATM    6  C   UNL     1      41.809  -9.767   6.021  1.00  0.00     0.047 C 
BRANCH   6   7
HETATM    7  C   UNL     1      42.849 -10.628   6.727  1.00  0.00     0.236 C 
BRANCH   7   8
HETATM    8  N   UNL     1      43.688  -9.793   7.673  1.00  0.00    -0.068 N 
HETATM    9  C   UNL     1      43.070  -8.407   7.945  1.00  0.00     0.254 C 
HETATM   10  C   UNL     1      43.937  -7.603   8.941  1.00  0.00     0.150 C 
HETATM   11  N   UNL     1      44.190  -8.367  10.177  1.00  0.00    -0.378 N 
HETATM   12  C   UNL     1      44.817  -9.683   9.936  1.00  0.00     0.150 C 
HETATM   13  C   UNL     1      43.938 -10.533   8.996  1.00  0.00     0.254 C 
HETATM   14  H   UNL     1      44.607  -9.634   7.243  1.00  0.00     0.280 HD
BRANCH  11  15
HETATM   15  C   UNL     1      43.323  -8.270  11.270  1.00  0.00     0.030 A 
HETATM   16  C   UNL     1      43.214  -9.255  12.265  1.00  0.00     0.032 A 
HETATM   17  C   UNL     1      42.344  -9.117  13.360  1.00  0.00     0.039 A 
HETATM   18  C   UNL     1      41.537  -7.992  13.481  1.00  0.00     0.068 A 
HETATM   19  C   UNL     1      41.595  -7.023  12.487  1.00  0.00     0.039 A 
HETATM   20  C   UNL     1      42.466  -7.165  11.399  1.00  0.00     0.032 A 
BRANCH  18  21
HETATM   21  O   UNL     1      40.657  -7.729  14.491  1.00  0.00    -0.356 OA
HETATM   22  C   UNL     1      41.109  -7.949  15.821  1.00  0.00     0.210 C 
ENDBRANCH  18  21
ENDBRANCH  11  15
ENDBRANCH   7   8
ENDBRANCH   6   7
ENDBRANCH   5   6
ENDBRANCH   1   5
BRANCH   2  23
HETATM   23  C   UNL     1      42.899 -13.182   2.830  1.00  0.00     0.105 C 
BRANCH  23  24
HETATM   24  C   UNL     1      41.449 -13.495   2.463  1.00  0.00     0.046 C 
BRANCH  24  25
HETATM   25  C   UNL     1      40.843 -14.696   3.188  1.00  0.00     0.203 A 
HETATM   26  N   UNL     1      41.348 -15.960   2.595  1.00  0.00    -0.257 NA
HETATM   27  C   UNL     1      42.008 -16.525   3.564  1.00  0.00     0.147 A 
HETATM   28  N   UNL     1      42.031 -15.892   4.775  1.00  0.00    -0.239 N 
HETATM   29  C   UNL     1      42.726 -17.797   3.426  1.00  0.00     0.037 A 
HETATM   30  C   UNL     1      42.697 -16.378   5.907  1.00  0.00     0.187 A 
HETATM   31  C   UNL     1      41.293 -14.737   4.636  1.00  0.00     0.257 A 
HETATM   32  S   UNL     1      42.773 -15.669   7.420  1.00  0.00    -0.040 SA
HETATM   33  N   UNL     1      43.361 -17.574   5.746  1.00  0.00    -0.332 N 
HETATM   34  C   UNL     1      43.395 -18.289   4.545  1.00  0.00     0.048 A 
HETATM   35  H   UNL     1      43.853 -17.934   6.558  1.00  0.00     0.168 HD
HETATM   36  C   UNL     1      44.101 -19.488   4.468  1.00  0.00     0.030 A 
HETATM   37  C   UNL     1      44.135 -20.191   3.261  1.00  0.00     0.002 A 
HETATM   38  C   UNL     1      43.465 -19.697   2.139  1.00  0.00     0.001 A 
HETATM   39  C   UNL     1      42.758 -18.496   2.218  1.00  0.00     0.017 A 
HETATM   40  O   UNL     1      41.001 -13.880   5.455  1.00  0.00    -0.270 OA
ENDBRANCH  24  25
ENDBRANCH  23  24
ENDBRANCH   2  23
TORSDOF 9
ENDMDL
MODEL 6
REMARK VINA RESULT:      -8.6      2.758      4.718
REMARK  9 active torsions:
REMARK  status: ('A' for Active; 'I' for Inactive)
REMARK    1  A    between atoms: O_2  and  C_3 
REMARK    2  A    between atoms: C_6  and  N_7 
REMARK    3  A    between atoms: N_10  and  C_12 
REMARK    4  A    between atoms: C_12  and  C_13 
REMARK    5  A    between atoms: C_13  and  C_14 
REMARK    6  A    between atoms: C_14  and  N_15 
REMARK       I    between atoms: N_15  and  C_16 
REMARK    7  A    between atoms: C_16  and  C_17 
REMARK    8  A    between atoms: C_17  and  C_18 
REMARK    9  A    between atoms: C_18  and  C_19 
ROOT
HETATM    1  N   UNL     1      45.091  -9.910   7.849  1.00  0.00    -0.361 N 
HETATM    2  C   UNL     1      45.080  -9.971   9.228  1.00  0.00     0.217 C 
HETATM    3  O   UNL     1      45.693 -10.830   9.857  1.00  0.00    -0.274 OA
HETATM    4  H   UNL     1      44.382  -9.320   7.418  1.00  0.00     0.162 HD
ENDROOT
BRANCH   1   5
HETATM    5  C   UNL     1      45.658 -10.988   7.067  1.00  0.00     0.124 C 
BRANCH   5   6
HETATM    6  C   UNL     1      44.668 -11.591   6.063  1.00  0.00     0.047 C 
BRANCH   6   7
HETATM    7  C   UNL     1      43.530 -12.290   6.797  1.00  0.00     0.236 C 
BRANCH   7   8
HETATM    8  N   UNL     1      42.567 -12.928   5.817  1.00  0.00    -0.068 N 
HETATM    9  C   UNL     1      43.176 -13.089   4.409  1.00  0.00     0.254 C 
HETATM   10  C   UNL     1      42.177 -13.776   3.451  1.00  0.00     0.150 C 
HETATM   11  N   UNL     1      41.682 -15.050   4.007  1.00  0.00    -0.378 N 
HETATM   12  C   UNL     1      41.060 -14.906   5.340  1.00  0.00     0.150 C 
HETATM   13  C   UNL     1      42.061 -14.283   6.335  1.00  0.00     0.254 C 
HETATM   14  H   UNL     1      41.745 -12.320   5.721  1.00  0.00     0.280 HD
BRANCH  11  15
HETATM   15  C   UNL     1      42.345 -16.252   3.744  1.00  0.00     0.030 A 
HETATM   16  C   UNL     1      43.325 -16.799   4.588  1.00  0.00     0.032 A 
HETATM   17  C   UNL     1      43.960 -18.020   4.301  1.00  0.00     0.039 A 
HETATM   18  C   UNL     1      43.644 -18.724   3.145  1.00  0.00     0.068 A 
HETATM   19  C   UNL     1      42.708 -18.182   2.273  1.00  0.00     0.039 A 
HETATM   20  C   UNL     1      42.078 -16.966   2.565  1.00  0.00     0.032 A 
BRANCH  18  21
HETATM   21  O   UNL     1      44.176 -19.917   2.750  1.00  0.00    -0.356 OA
HETATM   22  C   UNL     1      43.574 -20.559   1.633  1.00  0.00     0.210 C 
ENDBRANCH  18  21
ENDBRANCH  11  15
ENDBRANCH   7   8
ENDBRANCH   6   7
ENDBRANCH   5   6
ENDBRANCH   1   5
BRANCH   2  23
HETATM   23  C   UNL     1      44.253  -8.900   9.904  1.00  0.00     0.105 C 
BRANCH  23  24
HETATM   24  C   UNL     1      44.112  -7.621   9.078  1.00  0.00     0.046 C 
BRANCH  24  25
HETATM   25  C   UNL     1      42.684  -7.277   8.657  1.00  0.00     0.203 A 
HETATM   26  N   UNL     1      42.381  -7.884   7.335  1.00  0.00    -0.257 NA
HETATM   27  C   UNL     1      41.419  -8.724   7.584  1.00  0.00     0.147 A 
HETATM   28  N   UNL     1      40.949  -8.796   8.865  1.00  0.00    -0.239 N 
HETATM   29  C   UNL     1      40.815  -9.593   6.568  1.00  0.00     0.037 A 
HETATM   30  C   UNL     1      39.920  -9.649   9.283  1.00  0.00     0.187 A 
HETATM   31  C   UNL     1      41.676  -7.892   9.609  1.00  0.00     0.257 A 
HETATM   32  S   UNL     1      39.289  -9.798  10.824  1.00  0.00    -0.040 SA
HETATM   33  N   UNL     1      39.374 -10.453   8.306  1.00  0.00    -0.332 N 
HETATM   34  C   UNL     1      39.792 -10.449   6.972  1.00  0.00     0.048 A 
HETATM   35  H   UNL     1      38.630 -11.080   8.597  1.00  0.00     0.168 HD
HETATM   36  C   UNL     1      39.189 -11.304   6.051  1.00  0.00     0.030 A 
HETATM   37  C   UNL     1      39.620 -11.297   4.722  1.00  0.00     0.002 A 
HETATM   38  C   UNL     1      40.646 -10.441   4.318  1.00  0.00     0.001 A 
HETATM   39  C   UNL     1      41.248  -9.585   5.242  1.00  0.00     0.017 A 
HETATM   40  O   UNL     1      41.584  -7.578  10.785  1.00  0.00    -0.270 OA
ENDBRANCH  24  25
ENDBRANCH  23  24
ENDBRANCH   2  23
TORSDOF 9
ENDMDL
MODEL 7
REMARK VINA RESULT:      -8.6      1.852      2.188
REMARK  9 active torsions:
REMARK  status: ('A' for Active; 'I' for Inactive)
REMARK    1  A    between atoms: O_2  and  C_3 
REMARK    2  A    between atoms: C_6  and  N_7 
REMARK    3  A    between atoms: N_10  and  C_12 
REMARK    4  A    between atoms: C_12  and  C_13 
REMARK    5  A    between atoms: C_13  and  C_14 
REMARK    6  A    between atoms: C_14  and  N_15 
REMARK       I    between atoms: N_15  and  C_16 
REMARK    7  A    between atoms: C_16  and  C_17 
REMARK    8  A    between atoms: C_17  and  C_18 
REMARK    9  A    between atoms: C_18  and  C_19 
ROOT
HETATM    1  N   UNL     1      43.146 -10.097   8.696  1.00  0.00    -0.361 N 
HETATM    2  C   UNL     1      44.339 -10.183   9.385  1.00  0.00     0.217 C 
HETATM    3  O   UNL     1      45.426  -9.981   8.850  1.00  0.00    -0.274 OA
HETATM    4  H   UNL     1      42.331 -10.501   9.155  1.00  0.00     0.162 HD
ENDROOT
BRANCH   1   5
HETATM    5  C   UNL     1      43.132  -9.970   7.254  1.00  0.00     0.124 C 
BRANCH   5   6
HETATM    6  C   UNL     1      43.028 -11.318   6.530  1.00  0.00     0.047 C 
BRANCH   6   7
HETATM    7  C   UNL     1      43.277 -11.137   5.038  1.00  0.00     0.236 C 
BRANCH   7   8
HETATM    8  N   UNL     1      42.458 -12.124   4.231  1.00  0.00    -0.068 N 
HETATM    9  C   UNL     1      43.263 -12.760   3.080  1.00  0.00     0.254 C 
HETATM   10  C   UNL     1      42.403 -13.786   2.307  1.00  0.00     0.150 C 
HETATM   11  N   UNL     1      41.813 -14.790   3.213  1.00  0.00    -0.378 N 
HETATM   12  C   UNL     1      41.006 -14.198   4.300  1.00  0.00     0.150 C 
HETATM   13  C   UNL     1      41.860 -13.217   5.130  1.00  0.00     0.254 C 
HETATM   14  H   UNL     1      41.667 -11.625   3.805  1.00  0.00     0.280 HD
BRANCH  11  15
HETATM   15  C   UNL     1      42.489 -15.980   3.503  1.00  0.00     0.030 A 
HETATM   16  C   UNL     1      43.042 -16.272   4.759  1.00  0.00     0.032 A 
HETATM   17  C   UNL     1      43.700 -17.486   5.021  1.00  0.00     0.039 A 
HETATM   18  C   UNL     1      43.842 -18.440   4.020  1.00  0.00     0.068 A 
HETATM   19  C   UNL     1      43.341 -18.156   2.756  1.00  0.00     0.039 A 
HETATM   20  C   UNL     1      42.685 -16.945   2.502  1.00  0.00     0.032 A 
BRANCH  18  21
HETATM   21  O   UNL     1      44.450 -19.657   4.139  1.00  0.00    -0.356 OA
HETATM   22  C   UNL     1      43.865 -20.746   3.437  1.00  0.00     0.210 C 
ENDBRANCH  18  21
ENDBRANCH  11  15
ENDBRANCH   7   8
ENDBRANCH   6   7
ENDBRANCH   5   6
ENDBRANCH   1   5
BRANCH   2  23
HETATM   23  C   UNL     1      44.204 -10.547  10.846  1.00  0.00     0.105 C 
BRANCH  23  24
HETATM   24  C   UNL     1      43.561  -9.451  11.696  1.00  0.00     0.046 C 
BRANCH  24  25
HETATM   25  C   UNL     1      42.202  -9.811  12.295  1.00  0.00     0.203 A 
HETATM   26  N   UNL     1      42.130  -9.359  13.708  1.00  0.00    -0.257 NA
HETATM   27  C   UNL     1      41.175  -8.474  13.711  1.00  0.00     0.147 A 
HETATM   28  N   UNL     1      40.518  -8.239  12.536  1.00  0.00    -0.239 N 
HETATM   29  C   UNL     1      40.770  -7.718  14.901  1.00  0.00     0.037 A 
HETATM   30  C   UNL     1      39.473  -7.320  12.385  1.00  0.00     0.187 A 
HETATM   31  C   UNL     1      41.085  -9.065  11.589  1.00  0.00     0.257 A 
HETATM   32  S   UNL     1      38.619  -6.975  10.990  1.00  0.00    -0.040 SA
HETATM   33  N   UNL     1      39.116  -6.626  13.521  1.00  0.00    -0.332 N 
HETATM   34  C   UNL     1      39.733  -6.798  14.763  1.00  0.00     0.048 A 
HETATM   35  H   UNL     1      38.362  -5.952  13.424  1.00  0.00     0.168 HD
HETATM   36  C   UNL     1      39.314  -6.046  15.859  1.00  0.00     0.030 A 
HETATM   37  C   UNL     1      39.943  -6.219  17.094  1.00  0.00     0.002 A 
HETATM   38  C   UNL     1      40.984  -7.140  17.232  1.00  0.00     0.001 A 
HETATM   39  C   UNL     1      41.402  -7.894  16.133  1.00  0.00     0.017 A 
HETATM   40  O   UNL     1      40.801  -9.235  10.414  1.00  0.00    -0.270 OA
ENDBRANCH  24  25
ENDBRANCH  23  24
ENDBRANCH   2  23
TORSDOF 9
ENDMDL
MODEL 8
REMARK VINA RESULT:      -8.6      6.332     10.363
REMARK  9 active torsions:
REMARK  status: ('A' for Active; 'I' for Inactive)
REMARK    1  A    between atoms: O_2  and  C_3 
REMARK    2  A    between atoms: C_6  and  N_7 
REMARK    3  A    between atoms: N_10  and  C_12 
REMARK    4  A    between atoms: C_12  and  C_13 
REMARK    5  A    between atoms: C_13  and  C_14 
REMARK    6  A    between atoms: C_14  and  N_15 
REMARK       I    between atoms: N_15  and  C_16 
REMARK    7  A    between atoms: C_16  and  C_17 
REMARK    8  A    between atoms: C_17  and  C_18 
REMARK    9  A    between atoms: C_18  and  C_19 
ROOT
HETATM    1  N   UNL     1      40.761 -13.895   6.382  1.00  0.00    -0.361 N 
HETATM    2  C   UNL     1      40.544 -15.203   6.767  1.00  0.00     0.217 C 
HETATM    3  O   UNL     1      39.434 -15.729   6.726  1.00  0.00    -0.274 OA
HETATM    4  H   UNL     1      41.649 -13.484   6.665  1.00  0.00     0.162 HD
ENDROOT
BRANCH   1   5
HETATM    5  C   UNL     1      39.648 -13.011   6.109  1.00  0.00     0.124 C 
BRANCH   5   6
HETATM    6  C   UNL     1      40.081 -11.569   5.817  1.00  0.00     0.047 C 
BRANCH   6   7
HETATM    7  C   UNL     1      41.239 -11.554   4.826  1.00  0.00     0.236 C 
BRANCH   7   8
HETATM    8  N   UNL     1      40.869 -10.785   3.575  1.00  0.00    -0.068 N 
HETATM    9  C   UNL     1      41.853 -11.032   2.414  1.00  0.00     0.254 C 
HETATM   10  C   UNL     1      41.419 -10.259   1.148  1.00  0.00     0.150 C 
HETATM   11  N   UNL     1      40.021 -10.558   0.784  1.00  0.00    -0.378 N 
HETATM   12  C   UNL     1      39.060 -10.288   1.873  1.00  0.00     0.150 C 
HETATM   13  C   UNL     1      39.432 -11.101   3.131  1.00  0.00     0.254 C 
HETATM   14  H   UNL     1      40.900  -9.779   3.786  1.00  0.00     0.280 HD
BRANCH  11  15
HETATM   15  C   UNL     1      39.715 -11.611  -0.083  1.00  0.00     0.030 A 
HETATM   16  C   UNL     1      38.417 -11.890  -0.539  1.00  0.00     0.032 A 
HETATM   17  C   UNL     1      38.148 -12.948  -1.425  1.00  0.00     0.039 A 
HETATM   18  C   UNL     1      39.174 -13.775  -1.867  1.00  0.00     0.068 A 
HETATM   19  C   UNL     1      40.461 -13.546  -1.396  1.00  0.00     0.039 A 
HETATM   20  C   UNL     1      40.724 -12.489  -0.514  1.00  0.00     0.032 A 
BRANCH  18  21
HETATM   21  O   UNL     1      39.055 -14.828  -2.727  1.00  0.00    -0.356 OA
HETATM   22  C   UNL     1      38.056 -14.733  -3.735  1.00  0.00     0.210 C 
ENDBRANCH  18  21
ENDBRANCH  11  15
ENDBRANCH   7   8
ENDBRANCH   6   7
ENDBRANCH   5   6
ENDBRANCH   1   5
BRANCH   2  23
HETATM   23  C   UNL     1      41.777 -15.937   7.245  1.00  0.00     0.105 C 
BRANCH  23  24
HETATM   24  C   UNL     1      43.024 -15.058   7.322  1.00  0.00     0.046 C 
BRANCH  24  25
HETATM   25  C   UNL     1      44.088 -15.351   6.265  1.00  0.00     0.203 A 
HETATM   26  N   UNL     1      44.260 -16.817   6.104  1.00  0.00    -0.257 NA
HETATM   27  C   UNL     1      43.898 -17.046   4.875  1.00  0.00     0.147 A 
HETATM   28  N   UNL     1      43.528 -15.978   4.108  1.00  0.00    -0.239 N 
HETATM   29  C   UNL     1      43.864 -18.384   4.273  1.00  0.00     0.037 A 
HETATM   30  C   UNL     1      43.116 -16.069   2.773  1.00  0.00     0.187 A 
HETATM   31  C   UNL     1      43.646 -14.857   4.900  1.00  0.00     0.257 A 
HETATM   32  S   UNL     1      42.651 -14.816   1.767  1.00  0.00    -0.040 SA
HETATM   33  N   UNL     1      43.095 -17.338   2.236  1.00  0.00    -0.332 N 
HETATM   34  C   UNL     1      43.453 -18.488   2.946  1.00  0.00     0.048 A 
HETATM   35  H   UNL     1      42.793 -17.418   1.270  1.00  0.00     0.168 HD
HETATM   36  C   UNL     1      43.393 -19.735   2.326  1.00  0.00     0.030 A 
HETATM   37  C   UNL     1      43.745 -20.879   3.047  1.00  0.00     0.002 A 
HETATM   38  C   UNL     1      44.155 -20.775   4.378  1.00  0.00     0.001 A 
HETATM   39  C   UNL     1      44.216 -19.525   4.997  1.00  0.00     0.017 A 
HETATM   40  O   UNL     1      43.467 -13.678   4.638  1.00  0.00    -0.270 OA
ENDBRANCH  24  25
ENDBRANCH  23  24
ENDBRANCH   2  23
TORSDOF 9
ENDMDL
MODEL 9
REMARK VINA RESULT:      -8.6      3.249     10.090
REMARK  9 active torsions:
REMARK  status: ('A' for Active; 'I' for Inactive)
REMARK    1  A    between atoms: O_2  and  C_3 
REMARK    2  A    between atoms: C_6  and  N_7 
REMARK    3  A    between atoms: N_10  and  C_12 
REMARK    4  A    between atoms: C_12  and  C_13 
REMARK    5  A    between atoms: C_13  and  C_14 
REMARK    6  A    between atoms: C_14  and  N_15 
REMARK       I    between atoms: N_15  and  C_16 
REMARK    7  A    between atoms: C_16  and  C_17 
REMARK    8  A    between atoms: C_17  and  C_18 
REMARK    9  A    between atoms: C_18  and  C_19 
ROOT
HETATM    1  N   UNL     1      39.795  -9.676   8.185  1.00  0.00    -0.361 N 
HETATM    2  C   UNL     1      39.475 -10.592   7.203  1.00  0.00     0.217 C 
HETATM    3  O   UNL     1      38.408 -11.201   7.189  1.00  0.00    -0.274 OA
HETATM    4  H   UNL     1      40.775  -9.400   8.240  1.00  0.00     0.162 HD
ENDROOT
BRANCH   1   5
HETATM    5  C   UNL     1      38.973  -9.544   9.368  1.00  0.00     0.124 C 
BRANCH   5   6
HETATM    6  C   UNL     1      39.208  -8.230  10.123  1.00  0.00     0.047 C 
BRANCH   6   7
HETATM    7  C   UNL     1      39.297  -8.490  11.622  1.00  0.00     0.236 C 
BRANCH   7   8
HETATM    8  N   UNL     1      40.741  -8.599  12.066  1.00  0.00    -0.068 N 
HETATM    9  C   UNL     1      41.250 -10.055  12.071  1.00  0.00     0.254 C 
HETATM   10  C   UNL     1      42.736 -10.118  12.493  1.00  0.00     0.150 C 
HETATM   11  N   UNL     1      43.571  -9.225  11.669  1.00  0.00    -0.378 N 
HETATM   12  C   UNL     1      43.119  -7.818  11.685  1.00  0.00     0.150 C 
HETATM   13  C   UNL     1      41.657  -7.718  11.203  1.00  0.00     0.254 C 
HETATM   14  H   UNL     1      40.816  -8.251  13.030  1.00  0.00     0.280 HD
BRANCH  11  15
HETATM   15  C   UNL     1      44.167  -9.684  10.490  1.00  0.00     0.030 A 
HETATM   16  C   UNL     1      43.529 -10.544   9.582  1.00  0.00     0.032 A 
HETATM   17  C   UNL     1      44.151 -10.973   8.397  1.00  0.00     0.039 A 
HETATM   18  C   UNL     1      45.446 -10.568   8.095  1.00  0.00     0.068 A 
HETATM   19  C   UNL     1      46.114  -9.751   8.999  1.00  0.00     0.039 A 
HETATM   20  C   UNL     1      45.488  -9.326  10.178  1.00  0.00     0.032 A 
BRANCH  18  21
HETATM   21  O   UNL     1      46.163 -10.903   6.983  1.00  0.00    -0.356 OA
HETATM   22  C   UNL     1      45.432 -11.371   5.856  1.00  0.00     0.210 C 
ENDBRANCH  18  21
ENDBRANCH  11  15
ENDBRANCH   7   8
ENDBRANCH   6   7
ENDBRANCH   5   6
ENDBRANCH   1   5
BRANCH   2  23
HETATM   23  C   UNL     1      40.539 -10.788   6.146  1.00  0.00     0.105 C 
BRANCH  23  24
HETATM   24  C   UNL     1      40.870 -12.255   5.872  1.00  0.00     0.046 C 
BRANCH  24  25
HETATM   25  C   UNL     1      41.949 -12.488   4.815  1.00  0.00     0.203 A 
HETATM   26  N   UNL     1      42.706 -13.729   5.122  1.00  0.00    -0.257 NA
HETATM   27  C   UNL     1      42.457 -14.511   4.113  1.00  0.00     0.147 A 
HETATM   28  N   UNL     1      41.673 -14.024   3.105  1.00  0.00    -0.239 N 
HETATM   29  C   UNL     1      42.970 -15.882   3.999  1.00  0.00     0.037 A 
HETATM   30  C   UNL     1      41.321 -14.747   1.958  1.00  0.00     0.187 A 
HETATM   31  C   UNL     1      41.329 -12.737   3.453  1.00  0.00     0.257 A 
HETATM   32  S   UNL     1      40.372 -14.227   0.684  1.00  0.00    -0.040 SA
HETATM   33  N   UNL     1      41.818 -16.030   1.882  1.00  0.00    -0.332 N 
HETATM   34  C   UNL     1      42.624 -16.611   2.864  1.00  0.00     0.048 A 
HETATM   35  H   UNL     1      41.565 -16.566   1.057  1.00  0.00     0.168 HD
HETATM   36  C   UNL     1      43.075 -17.921   2.709  1.00  0.00     0.030 A 
HETATM   37  C   UNL     1      43.873 -18.496   3.701  1.00  0.00     0.002 A 
HETATM   38  C   UNL     1      44.218 -17.764   4.840  1.00  0.00     0.001 A 
HETATM   39  C   UNL     1      43.766 -16.452   4.993  1.00  0.00     0.017 A 
HETATM   40  O   UNL     1      40.679 -11.898   2.849  1.00  0.00    -0.270 OA
ENDBRANCH  24  25
ENDBRANCH  23  24
ENDBRANCH   2  23
TORSDOF 9
ENDMDL
MODEL 10
REMARK VINA RESULT:      -8.5      1.858      2.342
REMARK  9 active torsions:
REMARK  status: ('A' for Active; 'I' for Inactive)
REMARK    1  A    between atoms: O_2  and  C_3 
REMARK    2  A    between atoms: C_6  and  N_7 
REMARK    3  A    between atoms: N_10  and  C_12 
REMARK    4  A    between atoms: C_12  and  C_13 
REMARK    5  A    between atoms: C_13  and  C_14 
REMARK    6  A    between atoms: C_14  and  N_15 
REMARK       I    between atoms: N_15  and  C_16 
REMARK    7  A    between atoms: C_16  and  C_17 
REMARK    8  A    between atoms: C_17  and  C_18 
REMARK    9  A    between atoms: C_18  and  C_19 
ROOT
HETATM    1  N   UNL     1      43.843  -9.655   9.341  1.00  0.00    -0.361 N 
HETATM    2  C   UNL     1      44.364  -9.871  10.601  1.00  0.00     0.217 C 
HETATM    3  O   UNL     1      45.141 -10.791  10.846  1.00  0.00    -0.274 OA
HETATM    4  H   UNL     1      43.045  -9.025   9.287  1.00  0.00     0.162 HD
ENDROOT
BRANCH   1   5
HETATM    5  C   UNL     1      44.023 -10.634   8.290  1.00  0.00     0.124 C 
BRANCH   5   6
HETATM    6  C   UNL     1      43.034 -10.462   7.130  1.00  0.00     0.047 C 
BRANCH   6   7
HETATM    7  C   UNL     1      43.260 -11.542   6.079  1.00  0.00     0.236 C 
BRANCH   7   8
HETATM    8  N   UNL     1      42.521 -12.813   6.444  1.00  0.00    -0.068 N 
HETATM    9  C   UNL     1      41.589 -13.301   5.316  1.00  0.00     0.254 C 
HETATM   10  C   UNL     1      40.884 -14.617   5.715  1.00  0.00     0.150 C 
HETATM   11  N   UNL     1      41.854 -15.645   6.138  1.00  0.00    -0.378 N 
HETATM   12  C   UNL     1      42.729 -15.206   7.245  1.00  0.00     0.150 C 
HETATM   13  C   UNL     1      43.497 -13.928   6.848  1.00  0.00     0.254 C 
HETATM   14  H   UNL     1      41.928 -12.625   7.263  1.00  0.00     0.280 HD
BRANCH  11  15
HETATM   15  C   UNL     1      42.405 -16.536   5.211  1.00  0.00     0.030 A 
HETATM   16  C   UNL     1      42.007 -16.603   3.867  1.00  0.00     0.032 A 
HETATM   17  C   UNL     1      42.594 -17.500   2.958  1.00  0.00     0.039 A 
HETATM   18  C   UNL     1      43.590 -18.375   3.377  1.00  0.00     0.068 A 
HETATM   19  C   UNL     1      43.971 -18.358   4.713  1.00  0.00     0.039 A 
HETATM   20  C   UNL     1      43.383 -17.460   5.613  1.00  0.00     0.032 A 
BRANCH  18  21
HETATM   21  O   UNL     1      44.246 -19.288   2.602  1.00  0.00    -0.356 OA
HETATM   22  C   UNL     1      43.454 -20.266   1.940  1.00  0.00     0.210 C 
ENDBRANCH  18  21
ENDBRANCH  11  15
ENDBRANCH   7   8
ENDBRANCH   6   7
ENDBRANCH   5   6
ENDBRANCH   1   5
BRANCH   2  23
HETATM   23  C   UNL     1      43.904  -8.890  11.656  1.00  0.00     0.105 C 
BRANCH  23  24
HETATM   24  C   UNL     1      42.501  -8.336  11.409  1.00  0.00     0.046 C 
BRANCH  24  25
HETATM   25  C   UNL     1      41.418  -8.881  12.339  1.00  0.00     0.203 A 
HETATM   26  N   UNL     1      41.767  -8.595  13.754  1.00  0.00    -0.257 NA
HETATM   27  C   UNL     1      40.816  -7.806  14.163  1.00  0.00     0.147 A 
HETATM   28  N   UNL     1      39.814  -7.505  13.285  1.00  0.00    -0.239 N 
HETATM   29  C   UNL     1      40.764  -7.225  15.509  1.00  0.00     0.037 A 
HETATM   30  C   UNL     1      38.727  -6.674  13.581  1.00  0.00     0.187 A 
HETATM   31  C   UNL     1      40.099  -8.167  12.111  1.00  0.00     0.257 A 
HETATM   32  S   UNL     1      37.462  -6.258  12.569  1.00  0.00    -0.040 SA
HETATM   33  N   UNL     1      38.706  -6.144  14.853  1.00  0.00    -0.332 N 
HETATM   34  C   UNL     1      39.688  -6.393  15.815  1.00  0.00     0.048 A 
HETATM   35  H   UNL     1      37.925  -5.535  15.079  1.00  0.00     0.168 HD
HETATM   36  C   UNL     1      39.593  -5.807  17.076  1.00  0.00     0.030 A 
HETATM   37  C   UNL     1      40.584  -6.057  18.028  1.00  0.00     0.002 A 
HETATM   38  C   UNL     1      41.663  -6.889  17.720  1.00  0.00     0.001 A 
HETATM   39  C   UNL     1      41.757  -7.476  16.458  1.00  0.00     0.017 A 
HETATM   40  O   UNL     1      39.472  -8.233  11.065  1.00  0.00    -0.270 OA
ENDBRANCH  24  25
ENDBRANCH  23  24
ENDBRANCH   2  23
TORSDOF 9
ENDMDL
