MODEL 1
REMARK VINA RESULT:      -8.4      0.000      0.000
REMARK  7 active torsions:
REMARK  status: ('A' for Active; 'I' for Inactive)
REMARK    1  A    between atoms: C_2  and  O_3 
REMARK    2  A    between atoms: O_3  and  C_4 
REMARK    3  A    between atoms: C_5  and  N_6 
REMARK    4  A    between atoms: N_9  and  C_11 
REMARK    5  A    between atoms: C_11  and  C_12 
REMARK       I    between atoms: C_12  and  N_13 
REMARK    6  A    between atoms: N_13  and  C_14 
REMARK    7  A    between atoms: C_15  and  C_16 
ROOT
HETATM    1  C   UNL     1      41.206 -13.994   2.089  1.00  0.00     0.275 C 
HETATM    2  C   UNL     1      41.327 -13.407   0.688  1.00  0.00     0.050 C 
ENDROOT
BRANCH   1   3
HETATM    3  N   UNL     1      41.188 -12.877   3.153  1.00  0.00    -0.056 N 
HETATM    4  C   UNL     1      41.285 -13.355   4.608  1.00  0.00     0.255 C 
HETATM    5  C   UNL     1      41.034 -12.166   5.560  1.00  0.00     0.150 C 
HETATM    6  N   UNL     1      41.984 -11.073   5.283  1.00  0.00    -0.375 N 
HETATM    7  C   UNL     1      41.944 -10.578   3.890  1.00  0.00     0.150 C 
HETATM    8  C   UNL     1      42.154 -11.732   2.885  1.00  0.00     0.255 C 
HETATM    9  H   UNL     1      40.230 -12.495   3.088  1.00  0.00     0.281 HD
BRANCH   6  10
HETATM   10  C   UNL     1      43.181 -10.958   6.008  1.00  0.00     0.064 A 
HETATM   11  C   UNL     1      43.274 -10.214   7.219  1.00  0.00     0.095 A 
HETATM   12  C   UNL     1      44.488 -10.139   7.923  1.00  0.00     0.039 A 
HETATM   13  C   UNL     1      45.626 -10.793   7.458  1.00  0.00     0.003 A 
HETATM   14  C   UNL     1      45.557 -11.539   6.293  1.00  0.00     0.002 A 
HETATM   15  C   UNL     1      44.353 -11.624   5.589  1.00  0.00     0.032 A 
BRANCH  11  16
HETATM   16  O   UNL     1      42.114  -9.641   7.691  1.00  0.00    -0.349 OA
BRANCH  16  17
HETATM   17  C   UNL     1      42.121  -8.239   7.957  1.00  0.00     0.171 C 
HETATM   18  C   UNL     1      41.825  -7.516   6.655  1.00  0.00     0.034 C 
ENDBRANCH  16  17
ENDBRANCH  11  16
ENDBRANCH   6  10
ENDBRANCH   1   3
BRANCH   1  19
HETATM   19  C   UNL     1      42.332 -15.008   2.419  1.00  0.00     0.253 C 
HETATM   20  N   UNL     1      41.911 -16.202   2.958  1.00  0.00    -0.325 N 
HETATM   21  H   UNL     1      40.981 -16.255   3.362  1.00  0.00     0.169 HD
HETATM   22  O   UNL     1      43.498 -14.670   2.217  1.00  0.00    -0.271 OA
BRANCH  20  23
HETATM   23  C   UNL     1      42.675 -17.392   3.091  1.00  0.00     0.045 A 
HETATM   24  C   UNL     1      43.252 -17.694   4.350  1.00  0.00     0.001 A 
HETATM   25  C   UNL     1      43.926 -18.920   4.512  1.00  0.00     0.014 A 
HETATM   26  C   UNL     1      44.035 -19.826   3.458  1.00  0.00     0.001 A 
HETATM   27  C   UNL     1      43.479 -19.518   2.223  1.00  0.00     0.002 A 
HETATM   28  C   UNL     1      42.804 -18.309   2.038  1.00  0.00     0.030 A 
BRANCH  24  29
HETATM   29  C   UNL     1      43.210 -16.760   5.488  1.00  0.00    -0.024 A 
HETATM   30  C   UNL     1      44.295 -15.918   5.773  1.00  0.00     0.012 A 
HETATM   31  C   UNL     1      44.246 -15.032   6.852  1.00  0.00     0.001 A 
HETATM   32  C   UNL     1      43.111 -14.977   7.660  1.00  0.00     0.000 A 
HETATM   33  C   UNL     1      42.023 -15.804   7.388  1.00  0.00     0.001 A 
HETATM   34  C   UNL     1      42.071 -16.687   6.308  1.00  0.00     0.012 A 
ENDBRANCH  24  29
ENDBRANCH  20  23
ENDBRANCH   1  19
TORSDOF 7
ENDMDL
MODEL 2
REMARK VINA RESULT:      -8.4      2.051      4.488
REMARK  7 active torsions:
REMARK  status: ('A' for Active; 'I' for Inactive)
REMARK    1  A    between atoms: C_2  and  O_3 
REMARK    2  A    between atoms: O_3  and  C_4 
REMARK    3  A    between atoms: C_5  and  N_6 
REMARK    4  A    between atoms: N_9  and  C_11 
REMARK    5  A    between atoms: C_11  and  C_12 
REMARK       I    between atoms: C_12  and  N_13 
REMARK    6  A    between atoms: N_13  and  C_14 
REMARK    7  A    between atoms: C_15  and  C_16 
ROOT
HETATM    1  C   UNL     1      43.691 -15.501   6.729  1.00  0.00     0.275 C 
HETATM    2  C   UNL     1      43.088 -15.460   8.128  1.00  0.00     0.050 C 
ENDROOT
BRANCH   1   3
HETATM    3  N   UNL     1      43.502 -14.150   6.010  1.00  0.00    -0.056 N 
HETATM    4  C   UNL     1      42.467 -14.150   4.876  1.00  0.00     0.255 C 
HETATM    5  C   UNL     1      42.541 -12.812   4.110  1.00  0.00     0.150 C 
HETATM    6  N   UNL     1      42.338 -11.679   5.029  1.00  0.00    -0.375 N 
HETATM    7  C   UNL     1      43.300 -11.632   6.151  1.00  0.00     0.150 C 
HETATM    8  C   UNL     1      43.299 -12.961   6.938  1.00  0.00     0.255 C 
HETATM    9  H   UNL     1      44.399 -14.009   5.517  1.00  0.00     0.281 HD
BRANCH   6  10
HETATM   10  C   UNL     1      41.065 -11.113   5.206  1.00  0.00     0.064 A 
HETATM   11  C   UNL     1      40.581 -10.048   4.395  1.00  0.00     0.095 A 
HETATM   12  C   UNL     1      39.292  -9.523   4.594  1.00  0.00     0.039 A 
HETATM   13  C   UNL     1      38.458 -10.033   5.585  1.00  0.00     0.003 A 
HETATM   14  C   UNL     1      38.897 -11.082   6.375  1.00  0.00     0.002 A 
HETATM   15  C   UNL     1      40.174 -11.614   6.180  1.00  0.00     0.032 A 
BRANCH  11  16
HETATM   16  O   UNL     1      41.400  -9.615   3.376  1.00  0.00    -0.349 OA
BRANCH  16  17
HETATM   17  C   UNL     1      40.848  -9.530   2.064  1.00  0.00     0.171 C 
HETATM   18  C   UNL     1      40.717 -10.941   1.519  1.00  0.00     0.034 C 
ENDBRANCH  16  17
ENDBRANCH  11  16
ENDBRANCH   6  10
ENDBRANCH   1   3
BRANCH   1  19
HETATM   19  C   UNL     1      43.112 -16.643   5.854  1.00  0.00     0.253 C 
HETATM   20  N   UNL     1      43.965 -17.142   4.897  1.00  0.00    -0.325 N 
HETATM   21  H   UNL     1      44.772 -16.589   4.625  1.00  0.00     0.169 HD
HETATM   22  O   UNL     1      41.947 -16.989   6.046  1.00  0.00    -0.271 OA
BRANCH  20  23
HETATM   23  C   UNL     1      43.806 -18.348   4.162  1.00  0.00     0.045 A 
HETATM   24  C   UNL     1      43.210 -18.288   2.877  1.00  0.00     0.001 A 
HETATM   25  C   UNL     1      43.141 -19.464   2.105  1.00  0.00     0.014 A 
HETATM   26  C   UNL     1      43.642 -20.672   2.588  1.00  0.00     0.001 A 
HETATM   27  C   UNL     1      44.212 -20.726   3.853  1.00  0.00     0.002 A 
HETATM   28  C   UNL     1      44.294 -19.573   4.637  1.00  0.00     0.030 A 
BRANCH  24  29
HETATM   29  C   UNL     1      42.623 -17.053   2.329  1.00  0.00    -0.024 A 
HETATM   30  C   UNL     1      43.424 -16.090   1.698  1.00  0.00     0.012 A 
HETATM   31  C   UNL     1      42.860 -14.923   1.178  1.00  0.00     0.001 A 
HETATM   32  C   UNL     1      41.487 -14.703   1.283  1.00  0.00     0.000 A 
HETATM   33  C   UNL     1      40.677 -15.651   1.904  1.00  0.00     0.001 A 
HETATM   34  C   UNL     1      41.241 -16.819   2.421  1.00  0.00     0.012 A 
ENDBRANCH  24  29
ENDBRANCH  20  23
ENDBRANCH   1  19
TORSDOF 7
ENDMDL
MODEL 3
REMARK VINA RESULT:      -7.9      1.706      4.046
REMARK  7 active torsions:
REMARK  status: ('A' for Active; 'I' for Inactive)
REMARK    1  A    between atoms: C_2  and  O_3 
REMARK    2  A    between atoms: O_3  and  C_4 
REMARK    3  A    between atoms: C_5  and  N_6 
REMARK    4  A    between atoms: N_9  and  C_11 
REMARK    5  A    between atoms: C_11  and  C_12 
REMARK       I    between atoms: C_12  and  N_13 
REMARK    6  A    between atoms: N_13  and  C_14 
REMARK    7  A    between atoms: C_15  and  C_16 
ROOT
HETATM    1  C   UNL     1      43.644 -15.470   6.796  1.00  0.00     0.275 C 
HETATM    2  C   UNL     1      43.065 -15.563   8.202  1.00  0.00     0.050 C 
ENDROOT
BRANCH   1   3
HETATM    3  N   UNL     1      43.429 -14.061   6.205  1.00  0.00    -0.056 N 
HETATM    4  C   UNL     1      41.965 -13.667   5.966  1.00  0.00     0.255 C 
HETATM    5  C   UNL     1      41.911 -12.341   5.177  1.00  0.00     0.150 C 
HETATM    6  N   UNL     1      42.648 -11.284   5.891  1.00  0.00    -0.375 N 
HETATM    7  C   UNL     1      44.064 -11.613   6.161  1.00  0.00     0.150 C 
HETATM    8  C   UNL     1      44.188 -12.952   6.920  1.00  0.00     0.255 C 
HETATM    9  H   UNL     1      43.818 -14.137   5.250  1.00  0.00     0.281 HD
BRANCH   6  10
HETATM   10  C   UNL     1      41.982 -10.400   6.756  1.00  0.00     0.064 A 
HETATM   11  C   UNL     1      42.676  -9.531   7.646  1.00  0.00     0.095 A 
HETATM   12  C   UNL     1      41.971  -8.648   8.481  1.00  0.00     0.039 A 
HETATM   13  C   UNL     1      40.581  -8.597   8.457  1.00  0.00     0.003 A 
HETATM   14  C   UNL     1      39.882  -9.417   7.586  1.00  0.00     0.002 A 
HETATM   15  C   UNL     1      40.575 -10.294   6.747  1.00  0.00     0.032 A 
BRANCH  11  16
HETATM   16  O   UNL     1      44.052  -9.553   7.594  1.00  0.00    -0.349 OA
BRANCH  16  17
HETATM   17  C   UNL     1      44.769  -8.719   8.503  1.00  0.00     0.171 C 
HETATM   18  C   UNL     1      45.364  -9.607   9.581  1.00  0.00     0.034 C 
ENDBRANCH  16  17
ENDBRANCH  11  16
ENDBRANCH   6  10
ENDBRANCH   1   3
BRANCH   1  19
HETATM   19  C   UNL     1      43.059 -16.534   5.831  1.00  0.00     0.253 C 
HETATM   20  N   UNL     1      43.953 -17.070   4.932  1.00  0.00    -0.325 N 
HETATM   21  H   UNL     1      44.821 -16.574   4.753  1.00  0.00     0.169 HD
HETATM   22  O   UNL     1      41.858 -16.792   5.908  1.00  0.00    -0.271 OA
BRANCH  20  23
HETATM   23  C   UNL     1      43.769 -18.235   4.141  1.00  0.00     0.045 A 
HETATM   24  C   UNL     1      43.167 -18.102   2.864  1.00  0.00     0.001 A 
HETATM   25  C   UNL     1      43.073 -19.238   2.037  1.00  0.00     0.014 A 
HETATM   26  C   UNL     1      43.555 -20.477   2.457  1.00  0.00     0.001 A 
HETATM   27  C   UNL     1      44.130 -20.602   3.715  1.00  0.00     0.002 A 
HETATM   28  C   UNL     1      44.237 -19.490   4.553  1.00  0.00     0.030 A 
BRANCH  24  29
HETATM   29  C   UNL     1      42.600 -16.832   2.381  1.00  0.00    -0.024 A 
HETATM   30  C   UNL     1      41.213 -16.623   2.354  1.00  0.00     0.012 A 
HETATM   31  C   UNL     1      40.683 -15.414   1.897  1.00  0.00     0.001 A 
HETATM   32  C   UNL     1      41.532 -14.399   1.462  1.00  0.00     0.000 A 
HETATM   33  C   UNL     1      42.912 -14.588   1.486  1.00  0.00     0.001 A 
HETATM   34  C   UNL     1      43.442 -15.795   1.945  1.00  0.00     0.012 A 
ENDBRANCH  24  29
ENDBRANCH  20  23
ENDBRANCH   1  19
TORSDOF 7
ENDMDL
MODEL 4
REMARK VINA RESULT:      -7.9      2.569      8.563
REMARK  7 active torsions:
REMARK  status: ('A' for Active; 'I' for Inactive)
REMARK    1  A    between atoms: C_2  and  O_3 
REMARK    2  A    between atoms: O_3  and  C_4 
REMARK    3  A    between atoms: C_5  and  N_6 
REMARK    4  A    between atoms: N_9  and  C_11 
REMARK    5  A    between atoms: C_11  and  C_12 
REMARK       I    between atoms: C_12  and  N_13 
REMARK    6  A    between atoms: N_13  and  C_14 
REMARK    7  A    between atoms: C_15  and  C_16 
ROOT
HETATM    1  C   UNL     1      40.225 -10.763   6.333  1.00  0.00     0.275 C 
HETATM    2  C   UNL     1      39.053 -10.799   5.361  1.00  0.00     0.050 C 
ENDROOT
BRANCH   1   3
HETATM    3  N   UNL     1      40.954 -12.122   6.367  1.00  0.00    -0.056 N 
HETATM    4  C   UNL     1      40.200 -13.287   5.711  1.00  0.00     0.255 C 
HETATM    5  C   UNL     1      40.934 -14.611   6.010  1.00  0.00     0.150 C 
HETATM    6  N   UNL     1      42.332 -14.541   5.551  1.00  0.00    -0.375 N 
HETATM    7  C   UNL     1      43.108 -13.430   6.142  1.00  0.00     0.150 C 
HETATM    8  C   UNL     1      42.403 -12.076   5.906  1.00  0.00     0.255 C 
HETATM    9  H   UNL     1      40.956 -12.371   7.371  1.00  0.00     0.281 HD
BRANCH   6  10
HETATM   10  C   UNL     1      42.699 -15.023   4.283  1.00  0.00     0.064 A 
HETATM   11  C   UNL     1      42.946 -16.402   4.030  1.00  0.00     0.095 A 
HETATM   12  C   UNL     1      43.293 -16.844   2.742  1.00  0.00     0.039 A 
HETATM   13  C   UNL     1      43.400 -15.947   1.683  1.00  0.00     0.003 A 
HETATM   14  C   UNL     1      43.146 -14.603   1.898  1.00  0.00     0.002 A 
HETATM   15  C   UNL     1      42.794 -14.155   3.174  1.00  0.00     0.032 A 
BRANCH  11  16
HETATM   16  O   UNL     1      42.760 -17.274   5.081  1.00  0.00    -0.349 OA
BRANCH  16  17
HETATM   17  C   UNL     1      43.917 -17.863   5.674  1.00  0.00     0.171 C 
HETATM   18  C   UNL     1      43.937 -19.333   5.297  1.00  0.00     0.034 C 
ENDBRANCH  16  17
ENDBRANCH  11  16
ENDBRANCH   6  10
ENDBRANCH   1   3
BRANCH   1  19
HETATM   19  C   UNL     1      39.805 -10.361   7.771  1.00  0.00     0.253 C 
HETATM   20  N   UNL     1      40.744  -9.649   8.482  1.00  0.00    -0.325 N 
HETATM   21  H   UNL     1      41.710  -9.667   8.171  1.00  0.00     0.169 HD
HETATM   22  O   UNL     1      38.705 -10.730   8.181  1.00  0.00    -0.271 OA
BRANCH  20  23
HETATM   23  C   UNL     1      40.530  -8.926   9.686  1.00  0.00     0.045 A 
HETATM   24  C   UNL     1      41.656  -8.441  10.399  1.00  0.00     0.001 A 
HETATM   25  C   UNL     1      41.445  -7.640  11.537  1.00  0.00     0.014 A 
HETATM   26  C   UNL     1      40.157  -7.327  11.969  1.00  0.00     0.001 A 
HETATM   27  C   UNL     1      39.059  -7.816  11.275  1.00  0.00     0.002 A 
HETATM   28  C   UNL     1      39.242  -8.611  10.141  1.00  0.00     0.030 A 
BRANCH  24  29
HETATM   29  C   UNL     1      43.040  -8.774  10.019  1.00  0.00    -0.024 A 
HETATM   30  C   UNL     1      43.758  -9.765  10.704  1.00  0.00     0.012 A 
HETATM   31  C   UNL     1      45.070 -10.077  10.336  1.00  0.00     0.001 A 
HETATM   32  C   UNL     1      45.678  -9.402   9.279  1.00  0.00     0.000 A 
HETATM   33  C   UNL     1      44.977  -8.417   8.586  1.00  0.00     0.001 A 
HETATM   34  C   UNL     1      43.666  -8.108   8.953  1.00  0.00     0.012 A 
ENDBRANCH  24  29
ENDBRANCH  20  23
ENDBRANCH   1  19
TORSDOF 7
ENDMDL
MODEL 5
REMARK VINA RESULT:      -7.8      3.383      5.802
REMARK  7 active torsions:
REMARK  status: ('A' for Active; 'I' for Inactive)
REMARK    1  A    between atoms: C_2  and  O_3 
REMARK    2  A    between atoms: O_3  and  C_4 
REMARK    3  A    between atoms: C_5  and  N_6 
REMARK    4  A    between atoms: N_9  and  C_11 
REMARK    5  A    between atoms: C_11  and  C_12 
REMARK       I    between atoms: C_12  and  N_13 
REMARK    6  A    between atoms: N_13  and  C_14 
REMARK    7  A    between atoms: C_15  and  C_16 
ROOT
HETATM    1  C   UNL     1      42.542 -14.845   2.387  1.00  0.00     0.275 C 
HETATM    2  C   UNL     1      42.891 -13.955   3.574  1.00  0.00     0.050 C 
ENDROOT
BRANCH   1   3
HETATM    3  N   UNL     1      41.251 -14.359   1.697  1.00  0.00    -0.056 N 
HETATM    4  C   UNL     1      40.954 -12.860   1.841  1.00  0.00     0.255 C 
HETATM    5  C   UNL     1      39.540 -12.559   1.301  1.00  0.00     0.150 C 
HETATM    6  N   UNL     1      39.416 -13.006  -0.099  1.00  0.00    -0.375 N 
HETATM    7  C   UNL     1      39.701 -14.442  -0.301  1.00  0.00     0.150 C 
HETATM    8  C   UNL     1      41.094 -14.815   0.254  1.00  0.00     0.255 C 
HETATM    9  H   UNL     1      40.499 -14.807   2.247  1.00  0.00     0.281 HD
BRANCH   6  10
HETATM   10  C   UNL     1      39.639 -12.115  -1.161  1.00  0.00     0.064 A 
HETATM   11  C   UNL     1      38.601 -11.320  -1.725  1.00  0.00     0.095 A 
HETATM   12  C   UNL     1      38.871 -10.427  -2.776  1.00  0.00     0.039 A 
HETATM   13  C   UNL     1      40.158 -10.296  -3.289  1.00  0.00     0.003 A 
HETATM   14  C   UNL     1      41.190 -11.044  -2.746  1.00  0.00     0.002 A 
HETATM   15  C   UNL     1      40.932 -11.929  -1.697  1.00  0.00     0.032 A 
BRANCH  11  16
HETATM   16  O   UNL     1      37.355 -11.418  -1.146  1.00  0.00    -0.349 OA
BRANCH  16  17
HETATM   17  C   UNL     1      36.794 -10.243  -0.562  1.00  0.00     0.171 C 
HETATM   18  C   UNL     1      36.489 -10.545   0.894  1.00  0.00     0.034 C 
ENDBRANCH  16  17
ENDBRANCH  11  16
ENDBRANCH   6  10
ENDBRANCH   1   3
BRANCH   1  19
HETATM   19  C   UNL     1      42.394 -16.339   2.776  1.00  0.00     0.253 C 
HETATM   20  N   UNL     1      43.576 -17.017   2.971  1.00  0.00    -0.325 N 
HETATM   21  H   UNL     1      44.433 -16.623   2.595  1.00  0.00     0.169 HD
HETATM   22  O   UNL     1      41.261 -16.814   2.842  1.00  0.00    -0.271 OA
BRANCH  20  23
HETATM   23  C   UNL     1      43.737 -18.285   3.591  1.00  0.00     0.045 A 
HETATM   24  C   UNL     1      43.627 -18.370   5.002  1.00  0.00     0.001 A 
HETATM   25  C   UNL     1      43.687 -19.638   5.612  1.00  0.00     0.014 A 
HETATM   26  C   UNL     1      43.855 -20.795   4.852  1.00  0.00     0.001 A 
HETATM   27  C   UNL     1      43.977 -20.702   3.472  1.00  0.00     0.002 A 
HETATM   28  C   UNL     1      43.918 -19.456   2.844  1.00  0.00     0.030 A 
BRANCH  24  29
HETATM   29  C   UNL     1      43.492 -17.183   5.863  1.00  0.00    -0.024 A 
HETATM   30  C   UNL     1      44.596 -16.366   6.146  1.00  0.00     0.012 A 
HETATM   31  C   UNL     1      44.459 -15.239   6.961  1.00  0.00     0.001 A 
HETATM   32  C   UNL     1      43.216 -14.915   7.501  1.00  0.00     0.000 A 
HETATM   33  C   UNL     1      42.108 -15.713   7.226  1.00  0.00     0.001 A 
HETATM   34  C   UNL     1      42.245 -16.837   6.410  1.00  0.00     0.012 A 
ENDBRANCH  24  29
ENDBRANCH  20  23
ENDBRANCH   1  19
TORSDOF 7
ENDMDL
MODEL 6
REMARK VINA RESULT:      -7.8      2.090      4.362
REMARK  7 active torsions:
REMARK  status: ('A' for Active; 'I' for Inactive)
REMARK    1  A    between atoms: C_2  and  O_3 
REMARK    2  A    between atoms: O_3  and  C_4 
REMARK    3  A    between atoms: C_5  and  N_6 
REMARK    4  A    between atoms: N_9  and  C_11 
REMARK    5  A    between atoms: C_11  and  C_12 
REMARK       I    between atoms: C_12  and  N_13 
REMARK    6  A    between atoms: N_13  and  C_14 
REMARK    7  A    between atoms: C_15  and  C_16 
ROOT
HETATM    1  C   UNL     1      43.050 -15.024   6.783  1.00  0.00     0.275 C 
HETATM    2  C   UNL     1      43.124 -15.372   8.265  1.00  0.00     0.050 C 
ENDROOT
BRANCH   1   3
HETATM    3  N   UNL     1      42.095 -13.837   6.545  1.00  0.00    -0.056 N 
HETATM    4  C   UNL     1      42.778 -12.480   6.321  1.00  0.00     0.255 C 
HETATM    5  C   UNL     1      41.714 -11.362   6.317  1.00  0.00     0.150 C 
HETATM    6  N   UNL     1      40.688 -11.628   5.294  1.00  0.00    -0.375 N 
HETATM    7  C   UNL     1      40.002 -12.929   5.451  1.00  0.00     0.150 C 
HETATM    8  C   UNL     1      41.020 -14.090   5.498  1.00  0.00     0.255 C 
HETATM    9  H   UNL     1      41.620 -13.721   7.455  1.00  0.00     0.281 HD
BRANCH   6  10
HETATM   10  C   UNL     1      40.787 -11.067   4.010  1.00  0.00     0.064 A 
HETATM   11  C   UNL     1      39.869 -10.091   3.528  1.00  0.00     0.095 A 
HETATM   12  C   UNL     1      40.016  -9.541   2.243  1.00  0.00     0.039 A 
HETATM   13  C   UNL     1      41.062  -9.932   1.413  1.00  0.00     0.003 A 
HETATM   14  C   UNL     1      41.981 -10.866   1.866  1.00  0.00     0.002 A 
HETATM   15  C   UNL     1      41.846 -11.414   3.144  1.00  0.00     0.032 A 
BRANCH  11  16
HETATM   16  O   UNL     1      38.889  -9.670   4.400  1.00  0.00    -0.349 OA
BRANCH  16  17
HETATM   17  C   UNL     1      39.014  -8.367   4.968  1.00  0.00     0.171 C 
HETATM   18  C   UNL     1      39.164  -8.525   6.471  1.00  0.00     0.034 C 
ENDBRANCH  16  17
ENDBRANCH  11  16
ENDBRANCH   6  10
ENDBRANCH   1   3
BRANCH   1  19
HETATM   19  C   UNL     1      42.619 -16.225   5.902  1.00  0.00     0.253 C 
HETATM   20  N   UNL     1      43.516 -16.590   4.924  1.00  0.00    -0.325 N 
HETATM   21  H   UNL     1      44.234 -15.928   4.648  1.00  0.00     0.169 HD
HETATM   22  O   UNL     1      41.516 -16.731   6.106  1.00  0.00    -0.271 OA
BRANCH  20  23
HETATM   23  C   UNL     1      43.513 -17.797   4.175  1.00  0.00     0.045 A 
HETATM   24  C   UNL     1      42.938 -17.792   2.878  1.00  0.00     0.001 A 
HETATM   25  C   UNL     1      43.021 -18.959   2.095  1.00  0.00     0.014 A 
HETATM   26  C   UNL     1      43.650 -20.106   2.576  1.00  0.00     0.001 A 
HETATM   27  C   UNL     1      44.198 -20.109   3.852  1.00  0.00     0.002 A 
HETATM   28  C   UNL     1      44.130 -18.963   4.648  1.00  0.00     0.030 A 
BRANCH  24  29
HETATM   29  C   UNL     1      42.223 -16.627   2.331  1.00  0.00    -0.024 A 
HETATM   30  C   UNL     1      42.901 -15.638   1.604  1.00  0.00     0.012 A 
HETATM   31  C   UNL     1      42.215 -14.538   1.084  1.00  0.00     0.001 A 
HETATM   32  C   UNL     1      40.841 -14.413   1.286  1.00  0.00     0.000 A 
HETATM   33  C   UNL     1      40.151 -15.388   2.002  1.00  0.00     0.001 A 
HETATM   34  C   UNL     1      40.837 -16.489   2.518  1.00  0.00     0.012 A 
ENDBRANCH  24  29
ENDBRANCH  20  23
ENDBRANCH   1  19
TORSDOF 7
ENDMDL
MODEL 7
REMARK VINA RESULT:      -7.8      2.627      5.435
REMARK  7 active torsions:
REMARK  status: ('A' for Active; 'I' for Inactive)
REMARK    1  A    between atoms: C_2  and  O_3 
REMARK    2  A    between atoms: O_3  and  C_4 
REMARK    3  A    between atoms: C_5  and  N_6 
REMARK    4  A    between atoms: N_9  and  C_11 
REMARK    5  A    between atoms: C_11  and  C_12 
REMARK       I    between atoms: C_12  and  N_13 
REMARK    6  A    between atoms: N_13  and  C_14 
REMARK    7  A    between atoms: C_15  and  C_16 
ROOT
HETATM    1  C   UNL     1      41.690 -13.347   6.086  1.00  0.00     0.275 C 
HETATM    2  C   UNL     1      40.236 -13.799   6.152  1.00  0.00     0.050 C 
ENDROOT
BRANCH   1   3
HETATM    3  N   UNL     1      41.882 -12.269   4.999  1.00  0.00    -0.056 N 
HETATM    4  C   UNL     1      42.226 -12.802   3.601  1.00  0.00     0.255 C 
HETATM    5  C   UNL     1      42.604 -11.623   2.679  1.00  0.00     0.150 C 
HETATM    6  N   UNL     1      41.511 -10.635   2.629  1.00  0.00    -0.375 N 
HETATM    7  C   UNL     1      41.127 -10.094   3.951  1.00  0.00     0.150 C 
HETATM    8  C   UNL     1      40.771 -11.231   4.934  1.00  0.00     0.255 C 
HETATM    9  H   UNL     1      42.745 -11.781   5.291  1.00  0.00     0.281 HD
BRANCH   6  10
HETATM   10  C   UNL     1      40.547 -10.678   1.609  1.00  0.00     0.064 A 
HETATM   11  C   UNL     1      40.774 -10.121   0.318  1.00  0.00     0.095 A 
HETATM   12  C   UNL     1      39.788 -10.201  -0.680  1.00  0.00     0.039 A 
HETATM   13  C   UNL     1      38.570 -10.829  -0.434  1.00  0.00     0.003 A 
HETATM   14  C   UNL     1      38.332 -11.396   0.807  1.00  0.00     0.002 A 
HETATM   15  C   UNL     1      39.309 -11.326   1.804  1.00  0.00     0.032 A 
BRANCH  11  16
HETATM   16  O   UNL     1      42.015  -9.572   0.083  1.00  0.00    -0.349 OA
BRANCH  16  17
HETATM   17  C   UNL     1      42.308  -9.124  -1.240  1.00  0.00     0.171 C 
HETATM   18  C   UNL     1      42.933  -7.745  -1.138  1.00  0.00     0.034 C 
ENDBRANCH  16  17
ENDBRANCH  11  16
ENDBRANCH   6  10
ENDBRANCH   1   3
BRANCH   1  19
HETATM   19  C   UNL     1      42.676 -14.518   5.838  1.00  0.00     0.253 C 
HETATM   20  N   UNL     1      42.098 -15.699   5.431  1.00  0.00    -0.325 N 
HETATM   21  H   UNL     1      41.103 -15.833   5.581  1.00  0.00     0.169 HD
HETATM   22  O   UNL     1      43.872 -14.328   6.055  1.00  0.00    -0.271 OA
BRANCH  20  23
HETATM   23  C   UNL     1      42.764 -16.824   4.874  1.00  0.00     0.045 A 
HETATM   24  C   UNL     1      42.678 -17.042   3.476  1.00  0.00     0.001 A 
HETATM   25  C   UNL     1      43.417 -18.097   2.907  1.00  0.00     0.014 A 
HETATM   26  C   UNL     1      44.218 -18.922   3.695  1.00  0.00     0.001 A 
HETATM   27  C   UNL     1      44.286 -18.712   5.066  1.00  0.00     0.002 A 
HETATM   28  C   UNL     1      43.564 -17.670   5.654  1.00  0.00     0.030 A 
BRANCH  24  29
HETATM   29  C   UNL     1      41.816 -16.233   2.597  1.00  0.00    -0.024 A 
HETATM   30  C   UNL     1      42.339 -15.589   1.466  1.00  0.00     0.012 A 
HETATM   31  C   UNL     1      41.514 -14.827   0.635  1.00  0.00     0.001 A 
HETATM   32  C   UNL     1      40.157 -14.699   0.924  1.00  0.00     0.000 A 
HETATM   33  C   UNL     1      39.621 -15.336   2.041  1.00  0.00     0.001 A 
HETATM   34  C   UNL     1      40.445 -16.100   2.870  1.00  0.00     0.012 A 
ENDBRANCH  24  29
ENDBRANCH  20  23
ENDBRANCH   1  19
TORSDOF 7
ENDMDL
MODEL 8
REMARK VINA RESULT:      -7.7      3.105      7.272
REMARK  7 active torsions:
REMARK  status: ('A' for Active; 'I' for Inactive)
REMARK    1  A    between atoms: C_2  and  O_3 
REMARK    2  A    between atoms: O_3  and  C_4 
REMARK    3  A    between atoms: C_5  and  N_6 
REMARK    4  A    between atoms: N_9  and  C_11 
REMARK    5  A    between atoms: C_11  and  C_12 
REMARK       I    between atoms: C_12  and  N_13 
REMARK    6  A    between atoms: N_13  and  C_14 
REMARK    7  A    between atoms: C_15  and  C_16 
ROOT
HETATM    1  C   UNL     1      40.634 -14.324   0.106  1.00  0.00     0.275 C 
HETATM    2  C   UNL     1      39.513 -15.256  -0.335  1.00  0.00     0.050 C 
ENDROOT
BRANCH   1   3
HETATM    3  N   UNL     1      41.263 -14.807   1.429  1.00  0.00    -0.056 N 
HETATM    4  C   UNL     1      40.526 -15.962   2.122  1.00  0.00     0.255 C 
HETATM    5  C   UNL     1      41.129 -16.190   3.525  1.00  0.00     0.150 C 
HETATM    6  N   UNL     1      42.576 -16.449   3.429  1.00  0.00    -0.375 N 
HETATM    7  C   UNL     1      43.339 -15.374   2.760  1.00  0.00     0.150 C 
HETATM    8  C   UNL     1      42.760 -15.073   1.359  1.00  0.00     0.255 C 
HETATM    9  H   UNL     1      41.119 -14.010   2.071  1.00  0.00     0.281 HD
BRANCH   6  10
HETATM   10  C   UNL     1      43.071 -17.763   3.378  1.00  0.00     0.064 A 
HETATM   11  C   UNL     1      43.837 -18.334   4.435  1.00  0.00     0.095 A 
HETATM   12  C   UNL     1      44.298 -19.659   4.351  1.00  0.00     0.039 A 
HETATM   13  C   UNL     1      44.015 -20.445   3.238  1.00  0.00     0.003 A 
HETATM   14  C   UNL     1      43.256 -19.920   2.205  1.00  0.00     0.002 A 
HETATM   15  C   UNL     1      42.788 -18.605   2.282  1.00  0.00     0.032 A 
BRANCH  11  16
HETATM   16  O   UNL     1      44.036 -17.556   5.553  1.00  0.00    -0.349 OA
BRANCH  16  17
HETATM   17  C   UNL     1      43.217 -17.803   6.695  1.00  0.00     0.171 C 
HETATM   18  C   UNL     1      42.522 -16.505   7.062  1.00  0.00     0.034 C 
ENDBRANCH  16  17
ENDBRANCH  11  16
ENDBRANCH   6  10
ENDBRANCH   1   3
BRANCH   1  19
HETATM   19  C   UNL     1      40.172 -12.851   0.256  1.00  0.00     0.253 C 
HETATM   20  N   UNL     1      39.030 -12.665   1.002  1.00  0.00    -0.325 N 
HETATM   21  H   UNL     1      38.418 -13.459   1.165  1.00  0.00     0.169 HD
HETATM   22  O   UNL     1      40.818 -11.976  -0.320  1.00  0.00    -0.271 OA
BRANCH  20  23
HETATM   23  C   UNL     1      38.548 -11.436   1.527  1.00  0.00     0.045 A 
HETATM   24  C   UNL     1      39.093 -10.957   2.745  1.00  0.00     0.001 A 
HETATM   25  C   UNL     1      38.691  -9.693   3.217  1.00  0.00     0.014 A 
HETATM   26  C   UNL     1      37.770  -8.920   2.511  1.00  0.00     0.001 A 
HETATM   27  C   UNL     1      37.230  -9.402   1.326  1.00  0.00     0.002 A 
HETATM   28  C   UNL     1      37.615 -10.652   0.835  1.00  0.00     0.030 A 
BRANCH  24  29
HETATM   29  C   UNL     1      40.035 -11.744   3.559  1.00  0.00    -0.024 A 
HETATM   30  C   UNL     1      41.421 -11.615   3.387  1.00  0.00     0.012 A 
HETATM   31  C   UNL     1      42.308 -12.363   4.165  1.00  0.00     0.001 A 
HETATM   32  C   UNL     1      41.821 -13.248   5.125  1.00  0.00     0.000 A 
HETATM   33  C   UNL     1      40.447 -13.384   5.312  1.00  0.00     0.001 A 
HETATM   34  C   UNL     1      39.560 -12.635   4.536  1.00  0.00     0.012 A 
ENDBRANCH  24  29
ENDBRANCH  20  23
ENDBRANCH   1  19
TORSDOF 7
ENDMDL
MODEL 9
REMARK VINA RESULT:      -7.7      2.632      5.491
REMARK  7 active torsions:
REMARK  status: ('A' for Active; 'I' for Inactive)
REMARK    1  A    between atoms: C_2  and  O_3 
REMARK    2  A    between atoms: O_3  and  C_4 
REMARK    3  A    between atoms: C_5  and  N_6 
REMARK    4  A    between atoms: N_9  and  C_11 
REMARK    5  A    between atoms: C_11  and  C_12 
REMARK       I    between atoms: C_12  and  N_13 
REMARK    6  A    between atoms: N_13  and  C_14 
REMARK    7  A    between atoms: C_15  and  C_16 
ROOT
HETATM    1  C   UNL     1      44.261 -12.120   5.938  1.00  0.00     0.275 C 
HETATM    2  C   UNL     1      43.831 -13.290   6.815  1.00  0.00     0.050 C 
ENDROOT
BRANCH   1   3
HETATM    3  N   UNL     1      44.291 -10.808   6.749  1.00  0.00    -0.056 N 
HETATM    4  C   UNL     1      42.921 -10.284   7.199  1.00  0.00     0.255 C 
HETATM    5  C   UNL     1      43.080  -8.870   7.798  1.00  0.00     0.150 C 
HETATM    6  N   UNL     1      44.048  -8.887   8.910  1.00  0.00    -0.375 N 
HETATM    7  C   UNL     1      45.386  -9.393   8.538  1.00  0.00     0.150 C 
HETATM    8  C   UNL     1      45.290 -10.796   7.898  1.00  0.00     0.255 C 
HETATM    9  H   UNL     1      44.604 -10.104   6.059  1.00  0.00     0.281 HD
BRANCH   6  10
HETATM   10  C   UNL     1      43.616  -9.028  10.239  1.00  0.00     0.064 A 
HETATM   11  C   UNL     1      43.167  -7.925  11.020  1.00  0.00     0.095 A 
HETATM   12  C   UNL     1      42.726  -8.114  12.341  1.00  0.00     0.039 A 
HETATM   13  C   UNL     1      42.713  -9.381  12.916  1.00  0.00     0.003 A 
HETATM   14  C   UNL     1      43.127 -10.474  12.172  1.00  0.00     0.002 A 
HETATM   15  C   UNL     1      43.561 -10.297  10.856  1.00  0.00     0.032 A 
BRANCH  11  16
HETATM   16  O   UNL     1      43.121  -6.697  10.398  1.00  0.00    -0.349 OA
BRANCH  16  17
HETATM   17  C   UNL     1      41.948  -5.903  10.570  1.00  0.00     0.171 C 
HETATM   18  C   UNL     1      40.906  -6.389   9.579  1.00  0.00     0.034 C 
ENDBRANCH  16  17
ENDBRANCH  11  16
ENDBRANCH   6  10
ENDBRANCH   1   3
BRANCH   1  19
HETATM   19  C   UNL     1      43.363 -11.940   4.688  1.00  0.00     0.253 C 
HETATM   20  N   UNL     1      42.186 -12.652   4.699  1.00  0.00    -0.325 N 
HETATM   21  H   UNL     1      42.095 -13.434   5.340  1.00  0.00     0.169 HD
HETATM   22  O   UNL     1      43.772 -11.221   3.776  1.00  0.00    -0.271 OA
BRANCH  20  23
HETATM   23  C   UNL     1      41.070 -12.466   3.840  1.00  0.00     0.045 A 
HETATM   24  C   UNL     1      40.758 -13.480   2.900  1.00  0.00     0.001 A 
HETATM   25  C   UNL     1      39.597 -13.345   2.115  1.00  0.00     0.014 A 
HETATM   26  C   UNL     1      38.764 -12.235   2.248  1.00  0.00     0.001 A 
HETATM   27  C   UNL     1      39.083 -11.238   3.160  1.00  0.00     0.002 A 
HETATM   28  C   UNL     1      40.229 -11.351   3.952  1.00  0.00     0.030 A 
BRANCH  24  29
HETATM   29  C   UNL     1      41.621 -14.654   2.681  1.00  0.00    -0.024 A 
HETATM   30  C   UNL     1      42.704 -14.600   1.792  1.00  0.00     0.012 A 
HETATM   31  C   UNL     1      43.519 -15.717   1.592  1.00  0.00     0.001 A 
HETATM   32  C   UNL     1      43.262 -16.901   2.280  1.00  0.00     0.000 A 
HETATM   33  C   UNL     1      42.193 -16.971   3.171  1.00  0.00     0.001 A 
HETATM   34  C   UNL     1      41.380 -15.854   3.372  1.00  0.00     0.012 A 
ENDBRANCH  24  29
ENDBRANCH  20  23
ENDBRANCH   1  19
TORSDOF 7
ENDMDL
MODEL 10
REMARK VINA RESULT:      -7.7      3.673      8.736
REMARK  7 active torsions:
REMARK  status: ('A' for Active; 'I' for Inactive)
REMARK    1  A    between atoms: C_2  and  O_3 
REMARK    2  A    between atoms: O_3  and  C_4 
REMARK    3  A    between atoms: C_5  and  N_6 
REMARK    4  A    between atoms: N_9  and  C_11 
REMARK    5  A    between atoms: C_11  and  C_12 
REMARK       I    between atoms: C_12  and  N_13 
REMARK    6  A    between atoms: N_13  and  C_14 
REMARK    7  A    between atoms: C_15  and  C_16 
ROOT
HETATM    1  C   UNL     1      39.095 -12.637   2.818  1.00  0.00     0.275 C 
HETATM    2  C   UNL     1      39.435 -11.929   4.124  1.00  0.00     0.050 C 
ENDROOT
BRANCH   1   3
HETATM    3  N   UNL     1      40.217 -13.616   2.415  1.00  0.00    -0.056 N 
HETATM    4  C   UNL     1      41.628 -13.220   2.872  1.00  0.00     0.255 C 
HETATM    5  C   UNL     1      42.664 -14.159   2.218  1.00  0.00     0.150 C 
HETATM    6  N   UNL     1      42.363 -15.565   2.540  1.00  0.00    -0.375 N 
HETATM    7  C   UNL     1      41.010 -16.001   2.133  1.00  0.00     0.150 C 
HETATM    8  C   UNL     1      39.926 -15.076   2.729  1.00  0.00     0.255 C 
HETATM    9  H   UNL     1      40.261 -13.523   1.387  1.00  0.00     0.281 HD
BRANCH   6  10
HETATM   10  C   UNL     1      42.981 -16.203   3.628  1.00  0.00     0.064 A 
HETATM   11  C   UNL     1      43.537 -17.510   3.534  1.00  0.00     0.095 A 
HETATM   12  C   UNL     1      44.162 -18.105   4.644  1.00  0.00     0.039 A 
HETATM   13  C   UNL     1      44.258 -17.431   5.858  1.00  0.00     0.003 A 
HETATM   14  C   UNL     1      43.742 -16.150   5.970  1.00  0.00     0.002 A 
HETATM   15  C   UNL     1      43.123 -15.548   4.871  1.00  0.00     0.032 A 
BRANCH  11  16
HETATM   16  O   UNL     1      43.492 -18.121   2.301  1.00  0.00    -0.349 OA
BRANCH  16  17
HETATM   17  C   UNL     1      42.798 -19.363   2.194  1.00  0.00     0.171 C 
HETATM   18  C   UNL     1      43.804 -20.428   1.794  1.00  0.00     0.034 C 
ENDBRANCH  16  17
ENDBRANCH  11  16
ENDBRANCH   6  10
ENDBRANCH   1   3
BRANCH   1  19
HETATM   19  C   UNL     1      38.817 -11.653   1.652  1.00  0.00     0.253 C 
HETATM   20  N   UNL     1      37.684 -11.915   0.917  1.00  0.00    -0.325 N 
HETATM   21  H   UNL     1      37.265 -12.838   0.976  1.00  0.00     0.169 HD
HETATM   22  O   UNL     1      39.630 -10.752   1.444  1.00  0.00    -0.271 OA
BRANCH  20  23
HETATM   23  C   UNL     1      37.047 -11.042  -0.005  1.00  0.00     0.045 A 
HETATM   24  C   UNL     1      37.324 -11.193  -1.388  1.00  0.00     0.001 A 
HETATM   25  C   UNL     1      36.621 -10.396  -2.311  1.00  0.00     0.014 A 
HETATM   26  C   UNL     1      35.672  -9.468  -1.886  1.00  0.00     0.001 A 
HETATM   27  C   UNL     1      35.416  -9.315  -0.530  1.00  0.00     0.002 A 
HETATM   28  C   UNL     1      36.099 -10.095   0.407  1.00  0.00     0.030 A 
BRANCH  24  29
HETATM   29  C   UNL     1      38.346 -12.123  -1.897  1.00  0.00    -0.024 A 
HETATM   30  C   UNL     1      39.678 -11.716  -2.058  1.00  0.00     0.012 A 
HETATM   31  C   UNL     1      40.643 -12.605  -2.538  1.00  0.00     0.001 A 
HETATM   32  C   UNL     1      40.287 -13.913  -2.863  1.00  0.00     0.000 A 
HETATM   33  C   UNL     1      38.969 -14.335  -2.705  1.00  0.00     0.001 A 
HETATM   34  C   UNL     1      38.006 -13.447  -2.222  1.00  0.00     0.012 A 
ENDBRANCH  24  29
ENDBRANCH  20  23
ENDBRANCH   1  19
TORSDOF 7
ENDMDL
