MODEL 1
REMARK VINA RESULT:      -9.3      0.000      0.000
REMARK  7 active torsions:
REMARK  status: ('A' for Active; 'I' for Inactive)
REMARK    1  A    between atoms: C_5  and  C_6 
REMARK       I    between atoms: C_6  and  N_7 
REMARK    2  A    between atoms: N_7  and  C_8 
REMARK    3  A    between atoms: C_8  and  C_9 
REMARK    4  A    between atoms: C_9  and  C_10 
REMARK    5  A    between atoms: N_15  and  C_17 
REMARK    6  A    between atoms: C_17  and  C_18 
REMARK    7  A    between atoms: C_21  and  C_22 
ROOT
HETATM    1  C   UNL     1      43.610  -8.537   8.214  1.00  0.00     0.131 A 
HETATM    2  N   UNL     1      43.738  -9.604   7.351  1.00  0.00    -0.319 N 
HETATM    3  C   UNL     1      45.027 -10.059   7.499  1.00  0.00     0.131 A 
HETATM    4  C   UNL     1      45.640 -11.240   6.834  1.00  0.00     0.108 C 
HETATM    5  C   UNL     1      44.706 -12.443   6.823  1.00  0.00     0.243 C 
HETATM    6  N   UNL     1      43.670 -12.370   5.700  1.00  0.00    -0.065 N 
HETATM    7  H   UNL     1      44.160 -12.726   4.867  1.00  0.00     0.280 HD
HETATM    8  C   UNL     1      43.182 -10.982   5.324  1.00  0.00     0.255 C 
HETATM    9  C   UNL     1      42.696 -10.152   6.512  1.00  0.00     0.159 C 
HETATM   10  N   UNL     1      45.646  -9.291   8.364  1.00  0.00    -0.135 NA
HETATM   11  N   UNL     1      44.766  -8.351   8.812  1.00  0.00    -0.135 NA
ENDROOT
BRANCH   1  12
HETATM   12  C   UNL     1      42.366  -7.751   8.471  1.00  0.00     0.100 C 
BRANCH  12  13
HETATM   13  C   UNL     1      42.519  -6.854   9.707  1.00  0.00     0.130 C 
BRANCH  13  14
HETATM   14  N   UNL     1      42.818  -7.581  10.935  1.00  0.00    -0.360 N 
HETATM   15  C   UNL     1      42.572  -7.058  12.179  1.00  0.00     0.223 C 
HETATM   16  O   UNL     1      41.871  -6.068  12.385  1.00  0.00    -0.273 OA
HETATM   17  H   UNL     1      43.488  -8.339  10.844  1.00  0.00     0.162 HD
BRANCH  15  18
HETATM   18  C   UNL     1      43.160  -7.858  13.334  1.00  0.00     0.103 C 
HETATM   19  C   UNL     1      43.112  -7.023  14.615  1.00  0.00     0.248 C 
HETATM   20  N   UNL     1      41.685  -6.850  15.088  1.00  0.00    -0.074 N 
HETATM   21  C   UNL     1      41.588  -5.921  16.264  1.00  0.00     0.269 C 
HETATM   22  H   UNL     1      41.196  -6.376  14.304  1.00  0.00     0.279 HD
HETATM   23  C   UNL     1      40.999  -8.165  15.344  1.00  0.00     0.234 C 
HETATM   24  C   UNL     1      41.009  -9.001  14.072  1.00  0.00     0.029 C 
HETATM   25  C   UNL     1      42.418  -9.188  13.506  1.00  0.00     0.017 C 
ENDBRANCH  15  18
ENDBRANCH  13  14
ENDBRANCH  12  13
ENDBRANCH   1  12
BRANCH   6  26
HETATM   26  C   UNL     1      42.528 -13.357   5.910  1.00  0.00     0.273 C 
BRANCH  26  27
HETATM   27  C   UNL     1      42.773 -14.690   5.263  1.00  0.00    -0.033 A 
HETATM   28  C   UNL     1      42.818 -14.807   3.868  1.00  0.00     0.010 A 
HETATM   29  C   UNL     1      43.017 -16.054   3.268  1.00  0.00     0.015 A 
HETATM   30  C   UNL     1      43.182 -17.212   4.038  1.00  0.00    -0.002 A 
HETATM   31  C   UNL     1      43.142 -17.088   5.433  1.00  0.00     0.015 A 
HETATM   32  C   UNL     1      42.937 -15.844   6.042  1.00  0.00     0.010 A 
BRANCH  30  33
HETATM   33  C   UNL     1      43.397 -18.513   3.409  1.00  0.00     0.085 A 
HETATM   34  O   UNL     1      43.868 -19.505   4.225  1.00  0.00    -0.322 OA
HETATM   35  C   UNL     1      44.005 -20.624   3.470  1.00  0.00     0.142 A 
HETATM   36  C   UNL     1      43.631 -20.374   2.173  1.00  0.00     0.027 A 
HETATM   37  C   UNL     1      43.241 -19.013   2.130  1.00  0.00     0.040 A 
ENDBRANCH  30  33
ENDBRANCH  26  27
ENDBRANCH   6  26
TORSDOF 7
ENDMDL
MODEL 2
REMARK VINA RESULT:      -8.7      1.696      2.572
REMARK  7 active torsions:
REMARK  status: ('A' for Active; 'I' for Inactive)
REMARK    1  A    between atoms: C_5  and  C_6 
REMARK       I    between atoms: C_6  and  N_7 
REMARK    2  A    between atoms: N_7  and  C_8 
REMARK    3  A    between atoms: C_8  and  C_9 
REMARK    4  A    between atoms: C_9  and  C_10 
REMARK    5  A    between atoms: N_15  and  C_17 
REMARK    6  A    between atoms: C_17  and  C_18 
REMARK    7  A    between atoms: C_21  and  C_22 
ROOT
HETATM    1  C   UNL     1      43.132  -9.607   7.753  1.00  0.00     0.131 A 
HETATM    2  N   UNL     1      42.590 -10.474   6.828  1.00  0.00    -0.319 N 
HETATM    3  C   UNL     1      41.446  -9.869   6.367  1.00  0.00     0.131 A 
HETATM    4  C   UNL     1      40.534 -10.373   5.303  1.00  0.00     0.108 C 
HETATM    5  C   UNL     1      41.298 -10.928   4.108  1.00  0.00     0.243 C 
HETATM    6  N   UNL     1      41.790 -12.357   4.340  1.00  0.00    -0.065 N 
HETATM    7  H   UNL     1      40.980 -12.953   4.116  1.00  0.00     0.280 HD
HETATM    8  C   UNL     1      42.177 -12.713   5.765  1.00  0.00     0.255 C 
HETATM    9  C   UNL     1      43.161 -11.733   6.404  1.00  0.00     0.159 C 
HETATM   10  N   UNL     1      41.287  -8.732   7.002  1.00  0.00    -0.135 NA
HETATM   11  N   UNL     1      42.335  -8.566   7.857  1.00  0.00    -0.135 NA
ENDROOT
BRANCH   1  12
HETATM   12  C   UNL     1      44.424  -9.784   8.482  1.00  0.00     0.100 C 
BRANCH  12  13
HETATM   13  C   UNL     1      44.190 -10.240   9.928  1.00  0.00     0.130 C 
BRANCH  13  14
HETATM   14  N   UNL     1      43.926  -9.149  10.859  1.00  0.00    -0.360 N 
HETATM   15  C   UNL     1      42.661  -8.837  11.288  1.00  0.00     0.223 C 
HETATM   16  O   UNL     1      41.682  -9.567  11.138  1.00  0.00    -0.273 OA
HETATM   17  H   UNL     1      44.657  -8.448  10.932  1.00  0.00     0.162 HD
BRANCH  15  18
HETATM   18  C   UNL     1      42.556  -7.533  12.068  1.00  0.00     0.103 C 
HETATM   19  C   UNL     1      41.097  -7.076  12.112  1.00  0.00     0.248 C 
HETATM   20  N   UNL     1      40.275  -7.996  12.989  1.00  0.00    -0.074 N 
HETATM   21  C   UNL     1      38.812  -7.660  12.946  1.00  0.00     0.269 C 
HETATM   22  H   UNL     1      40.368  -8.935  12.556  1.00  0.00     0.279 HD
HETATM   23  C   UNL     1      40.799  -8.072  14.397  1.00  0.00     0.234 C 
HETATM   24  C   UNL     1      42.244  -8.554  14.378  1.00  0.00     0.029 C 
HETATM   25  C   UNL     1      43.134  -7.696  13.477  1.00  0.00     0.017 C 
ENDBRANCH  15  18
ENDBRANCH  13  14
ENDBRANCH  12  13
ENDBRANCH   1  12
BRANCH   6  26
HETATM   26  C   UNL     1      42.847 -12.770   3.323  1.00  0.00     0.273 C 
BRANCH  26  27
HETATM   27  C   UNL     1      43.021 -14.258   3.223  1.00  0.00    -0.033 A 
HETATM   28  C   UNL     1      43.249 -14.866   1.982  1.00  0.00     0.010 A 
HETATM   29  C   UNL     1      43.383 -16.255   1.888  1.00  0.00     0.015 A 
HETATM   30  C   UNL     1      43.300 -17.071   3.024  1.00  0.00    -0.002 A 
HETATM   31  C   UNL     1      43.079 -16.456   4.263  1.00  0.00     0.015 A 
HETATM   32  C   UNL     1      42.937 -15.067   4.365  1.00  0.00     0.010 A 
BRANCH  30  33
HETATM   33  C   UNL     1      43.448 -18.521   2.924  1.00  0.00     0.085 A 
HETATM   34  O   UNL     1      43.923 -19.155   4.039  1.00  0.00    -0.322 OA
HETATM   35  C   UNL     1      43.992 -20.480   3.757  1.00  0.00     0.142 A 
HETATM   36  C   UNL     1      43.570 -20.718   2.473  1.00  0.00     0.027 A 
HETATM   37  C   UNL     1      43.220 -19.456   1.932  1.00  0.00     0.040 A 
ENDBRANCH  30  33
ENDBRANCH  26  27
ENDBRANCH   6  26
TORSDOF 7
ENDMDL
MODEL 3
REMARK VINA RESULT:      -8.5      2.325     12.065
REMARK  7 active torsions:
REMARK  status: ('A' for Active; 'I' for Inactive)
REMARK    1  A    between atoms: C_5  and  C_6 
REMARK       I    between atoms: C_6  and  N_7 
REMARK    2  A    between atoms: N_7  and  C_8 
REMARK    3  A    between atoms: C_8  and  C_9 
REMARK    4  A    between atoms: C_9  and  C_10 
REMARK    5  A    between atoms: N_15  and  C_17 
REMARK    6  A    between atoms: C_17  and  C_18 
REMARK    7  A    between atoms: C_21  and  C_22 
ROOT
HETATM    1  C   UNL     1      43.306 -11.298   6.370  1.00  0.00     0.131 A 
HETATM    2  N   UNL     1      43.435 -10.480   7.472  1.00  0.00    -0.319 N 
HETATM    3  C   UNL     1      42.549  -9.446   7.282  1.00  0.00     0.131 A 
HETATM    4  C   UNL     1      42.260  -8.332   8.225  1.00  0.00     0.108 C 
HETATM    5  C   UNL     1      42.131  -8.815   9.664  1.00  0.00     0.243 C 
HETATM    6  N   UNL     1      43.489  -9.013  10.339  1.00  0.00    -0.065 N 
HETATM    7  H   UNL     1      43.759  -8.073  10.665  1.00  0.00     0.280 HD
HETATM    8  C   UNL     1      44.626  -9.476   9.444  1.00  0.00     0.255 C 
HETATM    9  C   UNL     1      44.294 -10.714   8.611  1.00  0.00     0.159 C 
HETATM   10  N   UNL     1      41.956  -9.609   6.123  1.00  0.00    -0.135 NA
HETATM   11  N   UNL     1      42.421 -10.760   5.559  1.00  0.00    -0.135 NA
ENDROOT
BRANCH   1  12
HETATM   12  C   UNL     1      44.009 -12.597   6.144  1.00  0.00     0.100 C 
BRANCH  12  13
HETATM   13  C   UNL     1      43.222 -13.768   6.748  1.00  0.00     0.130 C 
BRANCH  13  14
HETATM   14  N   UNL     1      42.936 -14.841   5.804  1.00  0.00    -0.360 N 
HETATM   15  C   UNL     1      41.806 -14.856   5.026  1.00  0.00     0.223 C 
HETATM   16  O   UNL     1      41.068 -13.886   4.864  1.00  0.00    -0.273 OA
HETATM   17  H   UNL     1      43.434 -15.712   5.965  1.00  0.00     0.162 HD
BRANCH  15  18
HETATM   18  C   UNL     1      41.565 -16.161   4.278  1.00  0.00     0.103 C 
HETATM   19  C   UNL     1      40.519 -15.941   3.183  1.00  0.00     0.248 C 
HETATM   20  N   UNL     1      41.082 -15.078   2.074  1.00  0.00    -0.074 N 
HETATM   21  C   UNL     1      40.042 -14.727   1.049  1.00  0.00     0.269 C 
HETATM   22  H   UNL     1      41.348 -14.186   2.533  1.00  0.00     0.279 HD
HETATM   23  C   UNL     1      42.316 -15.672   1.450  1.00  0.00     0.234 C 
HETATM   24  C   UNL     1      43.381 -15.874   2.519  1.00  0.00     0.029 C 
HETATM   25  C   UNL     1      42.875 -16.705   3.699  1.00  0.00     0.017 C 
ENDBRANCH  15  18
ENDBRANCH  13  14
ENDBRANCH  12  13
ENDBRANCH   1  12
BRANCH   6  26
HETATM   26  C   UNL     1      43.377  -9.832  11.619  1.00  0.00     0.273 C 
BRANCH  26  27
HETATM   27  C   UNL     1      42.826  -9.050  12.777  1.00  0.00    -0.033 A 
HETATM   28  C   UNL     1      43.421  -7.845  13.169  1.00  0.00     0.010 A 
HETATM   29  C   UNL     1      42.923  -7.132  14.264  1.00  0.00     0.015 A 
HETATM   30  C   UNL     1      41.819  -7.598  14.992  1.00  0.00    -0.002 A 
HETATM   31  C   UNL     1      41.224  -8.801  14.590  1.00  0.00     0.015 A 
HETATM   32  C   UNL     1      41.721  -9.523  13.498  1.00  0.00     0.010 A 
BRANCH  30  33
HETATM   33  C   UNL     1      41.296  -6.848  16.131  1.00  0.00     0.085 A 
HETATM   34  O   UNL     1      41.630  -5.523  16.184  1.00  0.00    -0.322 OA
HETATM   35  C   UNL     1      41.061  -5.002  17.299  1.00  0.00     0.142 A 
HETATM   36  C   UNL     1      40.362  -5.971  17.976  1.00  0.00     0.027 A 
HETATM   37  C   UNL     1      40.513  -7.163  17.226  1.00  0.00     0.040 A 
ENDBRANCH  30  33
ENDBRANCH  26  27
ENDBRANCH   6  26
TORSDOF 7
ENDMDL
MODEL 4
REMARK VINA RESULT:      -8.5      1.866      2.525
REMARK  7 active torsions:
REMARK  status: ('A' for Active; 'I' for Inactive)
REMARK    1  A    between atoms: C_5  and  C_6 
REMARK       I    between atoms: C_6  and  N_7 
REMARK    2  A    between atoms: N_7  and  C_8 
REMARK    3  A    between atoms: C_8  and  C_9 
REMARK    4  A    between atoms: C_9  and  C_10 
REMARK    5  A    between atoms: N_15  and  C_17 
REMARK    6  A    between atoms: C_17  and  C_18 
REMARK    7  A    between atoms: C_21  and  C_22 
ROOT
HETATM    1  C   UNL     1      44.439 -11.122   7.464  1.00  0.00     0.131 A 
HETATM    2  N   UNL     1      43.656 -11.280   6.340  1.00  0.00    -0.319 N 
HETATM    3  C   UNL     1      44.526 -11.361   5.280  1.00  0.00     0.131 A 
HETATM    4  C   UNL     1      44.178 -11.601   3.853  1.00  0.00     0.108 C 
HETATM    5  C   UNL     1      43.127 -12.693   3.694  1.00  0.00     0.243 C 
HETATM    6  N   UNL     1      41.707 -12.178   3.937  1.00  0.00    -0.065 N 
HETATM    7  H   UNL     1      41.424 -11.757   3.040  1.00  0.00     0.280 HD
HETATM    8  C   UNL     1      41.558 -11.076   4.971  1.00  0.00     0.255 C 
HETATM    9  C   UNL     1      42.214 -11.393   6.315  1.00  0.00     0.159 C 
HETATM   10  N   UNL     1      45.750 -11.220   5.730  1.00  0.00    -0.135 NA
HETATM   11  N   UNL     1      45.697 -11.077   7.085  1.00  0.00    -0.135 NA
ENDROOT
BRANCH   1  12
HETATM   12  C   UNL     1      43.957 -11.060   8.877  1.00  0.00     0.100 C 
BRANCH  12  13
HETATM   13  C   UNL     1      44.826 -10.117   9.720  1.00  0.00     0.130 C 
BRANCH  13  14
HETATM   14  N   UNL     1      44.216  -9.718  10.983  1.00  0.00    -0.360 N 
HETATM   15  C   UNL     1      43.537  -8.535  11.130  1.00  0.00     0.223 C 
HETATM   16  O   UNL     1      43.167  -7.830  10.193  1.00  0.00    -0.273 OA
HETATM   17  H   UNL     1      44.573 -10.187  11.810  1.00  0.00     0.162 HD
BRANCH  15  18
HETATM   18  C   UNL     1      43.174  -8.184  12.568  1.00  0.00     0.103 C 
HETATM   19  C   UNL     1      42.217  -6.990  12.580  1.00  0.00     0.248 C 
HETATM   20  N   UNL     1      40.862  -7.387  12.036  1.00  0.00    -0.074 N 
HETATM   21  C   UNL     1      39.939  -6.209  11.904  1.00  0.00     0.269 C 
HETATM   22  H   UNL     1      41.046  -7.719  11.069  1.00  0.00     0.279 HD
HETATM   23  C   UNL     1      40.236  -8.515  12.810  1.00  0.00     0.234 C 
HETATM   24  C   UNL     1      41.161  -9.724  12.786  1.00  0.00     0.029 C 
HETATM   25  C   UNL     1      42.569  -9.394  13.286  1.00  0.00     0.017 C 
ENDBRANCH  15  18
ENDBRANCH  13  14
ENDBRANCH  12  13
ENDBRANCH   1  12
BRANCH   6  26
HETATM   26  C   UNL     1      40.714 -13.316   4.142  1.00  0.00     0.273 C 
BRANCH  26  27
HETATM   27  C   UNL     1      41.302 -14.671   3.874  1.00  0.00    -0.033 A 
HETATM   28  C   UNL     1      41.870 -15.419   4.912  1.00  0.00     0.010 A 
HETATM   29  C   UNL     1      42.443 -16.668   4.654  1.00  0.00     0.015 A 
HETATM   30  C   UNL     1      42.460 -17.206   3.360  1.00  0.00    -0.002 A 
HETATM   31  C   UNL     1      41.885 -16.455   2.326  1.00  0.00     0.015 A 
HETATM   32  C   UNL     1      41.315 -15.201   2.576  1.00  0.00     0.010 A 
BRANCH  30  33
HETATM   33  C   UNL     1      43.052 -18.514   3.094  1.00  0.00     0.085 A 
HETATM   34  O   UNL     1      43.712 -19.099   4.139  1.00  0.00    -0.322 OA
HETATM   35  C   UNL     1      44.189 -20.293   3.705  1.00  0.00     0.142 A 
HETATM   36  C   UNL     1      43.851 -20.493   2.389  1.00  0.00     0.027 A 
HETATM   37  C   UNL     1      43.119 -19.346   1.992  1.00  0.00     0.040 A 
ENDBRANCH  30  33
ENDBRANCH  26  27
ENDBRANCH   6  26
TORSDOF 7
ENDMDL
MODEL 5
REMARK VINA RESULT:      -8.4      2.063      3.133
REMARK  7 active torsions:
REMARK  status: ('A' for Active; 'I' for Inactive)
REMARK    1  A    between atoms: C_5  and  C_6 
REMARK       I    between atoms: C_6  and  N_7 
REMARK    2  A    between atoms: N_7  and  C_8 
REMARK    3  A    between atoms: C_8  and  C_9 
REMARK    4  A    between atoms: C_9  and  C_10 
REMARK    5  A    between atoms: N_15  and  C_17 
REMARK    6  A    between atoms: C_17  and  C_18 
REMARK    7  A    between atoms: C_21  and  C_22 
ROOT
HETATM    1  C   UNL     1      40.955  -8.362   6.602  1.00  0.00     0.131 A 
HETATM    2  N   UNL     1      41.128  -9.715   6.409  1.00  0.00    -0.319 N 
HETATM    3  C   UNL     1      39.871 -10.269   6.454  1.00  0.00     0.131 A 
HETATM    4  C   UNL     1      39.514 -11.696   6.234  1.00  0.00     0.108 C 
HETATM    5  C   UNL     1      40.260 -12.299   5.050  1.00  0.00     0.243 C 
HETATM    6  N   UNL     1      41.682 -12.728   5.411  1.00  0.00    -0.065 N 
HETATM    7  H   UNL     1      41.575 -13.661   5.836  1.00  0.00     0.280 HD
HETATM    8  C   UNL     1      42.396 -11.886   6.454  1.00  0.00     0.255 C 
HETATM    9  C   UNL     1      42.384 -10.386   6.154  1.00  0.00     0.159 C 
HETATM   10  N   UNL     1      39.002  -9.316   6.700  1.00  0.00    -0.135 NA
HETATM   11  N   UNL     1      39.674  -8.133   6.786  1.00  0.00    -0.135 NA
ENDROOT
BRANCH   1  12
HETATM   12  C   UNL     1      42.024  -7.318   6.564  1.00  0.00     0.100 C 
BRANCH  12  13
HETATM   13  C   UNL     1      41.954  -6.404   7.794  1.00  0.00     0.130 C 
BRANCH  13  14
HETATM   14  N   UNL     1      42.721  -6.885   8.937  1.00  0.00    -0.360 N 
HETATM   15  C   UNL     1      42.124  -7.394  10.063  1.00  0.00     0.223 C 
HETATM   16  O   UNL     1      40.940  -7.719  10.129  1.00  0.00    -0.273 OA
HETATM   17  H   UNL     1      43.677  -6.548   8.996  1.00  0.00     0.162 HD
BRANCH  15  18
HETATM   18  C   UNL     1      43.070  -7.627  11.234  1.00  0.00     0.103 C 
HETATM   19  C   UNL     1      42.259  -7.859  12.511  1.00  0.00     0.248 C 
HETATM   20  N   UNL     1      41.543  -9.191  12.456  1.00  0.00    -0.074 N 
HETATM   21  C   UNL     1      40.629  -9.390  13.630  1.00  0.00     0.269 C 
HETATM   22  H   UNL     1      40.931  -9.133  11.619  1.00  0.00     0.279 HD
HETATM   23  C   UNL     1      42.488 -10.347  12.269  1.00  0.00     0.234 C 
HETATM   24  C   UNL     1      43.286 -10.151  10.987  1.00  0.00     0.029 C 
HETATM   25  C   UNL     1      44.009  -8.803  10.948  1.00  0.00     0.017 C 
ENDBRANCH  15  18
ENDBRANCH  13  14
ENDBRANCH  12  13
ENDBRANCH   1  12
BRANCH   6  26
HETATM   26  C   UNL     1      42.536 -12.979   4.174  1.00  0.00     0.273 C 
BRANCH  26  27
HETATM   27  C   UNL     1      42.758 -14.438   3.894  1.00  0.00    -0.033 A 
HETATM   28  C   UNL     1      43.161 -15.304   4.917  1.00  0.00     0.010 A 
HETATM   29  C   UNL     1      43.395 -16.657   4.648  1.00  0.00     0.015 A 
HETATM   30  C   UNL     1      43.229 -17.180   3.359  1.00  0.00    -0.002 A 
HETATM   31  C   UNL     1      42.820 -16.308   2.341  1.00  0.00     0.015 A 
HETATM   32  C   UNL     1      42.590 -14.952   2.601  1.00  0.00     0.010 A 
BRANCH  30  33
HETATM   33  C   UNL     1      43.467 -18.594   3.082  1.00  0.00     0.085 A 
HETATM   34  O   UNL     1      43.921 -19.344   4.131  1.00  0.00    -0.322 OA
HETATM   35  C   UNL     1      44.083 -20.616   3.685  1.00  0.00     0.142 A 
HETATM   36  C   UNL     1      43.743 -20.703   2.358  1.00  0.00     0.027 A 
HETATM   37  C   UNL     1      43.347 -19.400   1.965  1.00  0.00     0.040 A 
ENDBRANCH  30  33
ENDBRANCH  26  27
ENDBRANCH   6  26
TORSDOF 7
ENDMDL
MODEL 6
REMARK VINA RESULT:      -8.4      4.672     12.323
REMARK  7 active torsions:
REMARK  status: ('A' for Active; 'I' for Inactive)
REMARK    1  A    between atoms: C_5  and  C_6 
REMARK       I    between atoms: C_6  and  N_7 
REMARK    2  A    between atoms: N_7  and  C_8 
REMARK    3  A    between atoms: C_8  and  C_9 
REMARK    4  A    between atoms: C_9  and  C_10 
REMARK    5  A    between atoms: N_15  and  C_17 
REMARK    6  A    between atoms: C_17  and  C_18 
REMARK    7  A    between atoms: C_21  and  C_22 
ROOT
HETATM    1  C   UNL     1      42.777 -14.721   3.043  1.00  0.00     0.131 A 
HETATM    2  N   UNL     1      42.655 -14.090   4.263  1.00  0.00    -0.319 N 
HETATM    3  C   UNL     1      43.079 -14.998   5.204  1.00  0.00     0.131 A 
HETATM    4  C   UNL     1      43.202 -14.775   6.670  1.00  0.00     0.108 C 
HETATM    5  C   UNL     1      43.825 -13.423   6.995  1.00  0.00     0.243 C 
HETATM    6  N   UNL     1      42.812 -12.280   6.923  1.00  0.00    -0.065 N 
HETATM    7  H   UNL     1      42.334 -12.294   7.836  1.00  0.00     0.280 HD
HETATM    8  C   UNL     1      41.711 -12.419   5.886  1.00  0.00     0.255 C 
HETATM    9  C   UNL     1      42.222 -12.727   4.478  1.00  0.00     0.159 C 
HETATM   10  N   UNL     1      43.396 -16.116   4.594  1.00  0.00    -0.135 NA
HETATM   11  N   UNL     1      43.214 -15.943   3.254  1.00  0.00    -0.135 NA
ENDROOT
BRANCH   1  12
HETATM   12  C   UNL     1      42.509 -14.117   1.703  1.00  0.00     0.100 C 
BRANCH  12  13
HETATM   13  C   UNL     1      41.159 -14.584   1.142  1.00  0.00     0.130 C 
BRANCH  13  14
HETATM   14  N   UNL     1      40.982 -14.317  -0.280  1.00  0.00    -0.360 N 
HETATM   15  C   UNL     1      39.903 -13.626  -0.770  1.00  0.00     0.223 C 
HETATM   16  O   UNL     1      39.131 -12.968  -0.075  1.00  0.00    -0.273 OA
HETATM   17  H   UNL     1      41.509 -14.916  -0.908  1.00  0.00     0.162 HD
BRANCH  15  18
HETATM   18  C   UNL     1      39.770 -13.647  -2.288  1.00  0.00     0.103 C 
HETATM   19  C   UNL     1      38.410 -13.073  -2.693  1.00  0.00     0.248 C 
HETATM   20  N   UNL     1      38.357 -11.585  -2.424  1.00  0.00    -0.074 N 
HETATM   21  C   UNL     1      36.991 -11.013  -2.680  1.00  0.00     0.269 C 
HETATM   22  H   UNL     1      38.524 -11.488  -1.404  1.00  0.00     0.279 HD
HETATM   23  C   UNL     1      39.435 -10.828  -3.152  1.00  0.00     0.234 C 
HETATM   24  C   UNL     1      40.799 -11.364  -2.741  1.00  0.00     0.029 C 
HETATM   25  C   UNL     1      40.920 -12.876  -2.944  1.00  0.00     0.017 C 
ENDBRANCH  15  18
ENDBRANCH  13  14
ENDBRANCH  12  13
ENDBRANCH   1  12
BRANCH   6  26
HETATM   26  C   UNL     1      43.491 -10.916   6.881  1.00  0.00     0.273 C 
BRANCH  26  27
HETATM   27  C   UNL     1      43.345 -10.143   8.160  1.00  0.00    -0.033 A 
HETATM   28  C   UNL     1      42.180  -9.412   8.421  1.00  0.00     0.010 A 
HETATM   29  C   UNL     1      42.059  -8.670   9.600  1.00  0.00     0.015 A 
HETATM   30  C   UNL     1      43.089  -8.642  10.549  1.00  0.00    -0.002 A 
HETATM   31  C   UNL     1      44.249  -9.381  10.286  1.00  0.00     0.015 A 
HETATM   32  C   UNL     1      44.381 -10.121   9.105  1.00  0.00     0.010 A 
BRANCH  30  33
HETATM   33  C   UNL     1      42.957  -7.872  11.784  1.00  0.00     0.085 A 
HETATM   34  O   UNL     1      42.438  -6.613  11.655  1.00  0.00    -0.322 OA
HETATM   35  C   UNL     1      42.395  -6.060  12.893  1.00  0.00     0.142 A 
HETATM   36  C   UNL     1      42.880  -6.941  13.827  1.00  0.00     0.027 A 
HETATM   37  C   UNL     1      43.245  -8.110  13.115  1.00  0.00     0.040 A 
ENDBRANCH  30  33
ENDBRANCH  26  27
ENDBRANCH   6  26
TORSDOF 7
ENDMDL
MODEL 7
REMARK VINA RESULT:      -8.2      3.609      4.346
REMARK  7 active torsions:
REMARK  status: ('A' for Active; 'I' for Inactive)
REMARK    1  A    between atoms: C_5  and  C_6 
REMARK       I    between atoms: C_6  and  N_7 
REMARK    2  A    between atoms: N_7  and  C_8 
REMARK    3  A    between atoms: C_8  and  C_9 
REMARK    4  A    between atoms: C_9  and  C_10 
REMARK    5  A    between atoms: N_15  and  C_17 
REMARK    6  A    between atoms: C_17  and  C_18 
REMARK    7  A    between atoms: C_21  and  C_22 
ROOT
HETATM    1  C   UNL     1      43.492  -9.593   7.828  1.00  0.00     0.131 A 
HETATM    2  N   UNL     1      43.304 -10.567   6.872  1.00  0.00    -0.319 N 
HETATM    3  C   UNL     1      44.084 -11.631   7.256  1.00  0.00     0.131 A 
HETATM    4  C   UNL     1      44.179 -12.958   6.589  1.00  0.00     0.108 C 
HETATM    5  C   UNL     1      42.814 -13.491   6.173  1.00  0.00     0.243 C 
HETATM    6  N   UNL     1      42.325 -12.884   4.858  1.00  0.00    -0.065 N 
HETATM    7  H   UNL     1      42.782 -13.444   4.124  1.00  0.00     0.280 HD
HETATM    8  C   UNL     1      42.733 -11.446   4.587  1.00  0.00     0.255 C 
HETATM    9  C   UNL     1      42.416 -10.485   5.733  1.00  0.00     0.159 C 
HETATM   10  N   UNL     1      44.731 -11.303   8.350  1.00  0.00    -0.135 NA
HETATM   11  N   UNL     1      44.359 -10.042   8.708  1.00  0.00    -0.135 NA
ENDROOT
BRANCH   1  12
HETATM   12  C   UNL     1      42.800  -8.270   7.892  1.00  0.00     0.100 C 
BRANCH  12  13
HETATM   13  C   UNL     1      41.713  -8.262   8.975  1.00  0.00     0.130 C 
BRANCH  13  14
HETATM   14  N   UNL     1      42.176  -8.701  10.285  1.00  0.00    -0.360 N 
HETATM   15  C   UNL     1      42.586  -7.821  11.255  1.00  0.00     0.223 C 
HETATM   16  O   UNL     1      42.380  -6.610  11.218  1.00  0.00    -0.273 OA
HETATM   17  H   UNL     1      42.474  -9.670  10.343  1.00  0.00     0.162 HD
BRANCH  15  18
HETATM   18  C   UNL     1      43.250  -8.469  12.463  1.00  0.00     0.103 C 
HETATM   19  C   UNL     1      43.240  -7.492  13.641  1.00  0.00     0.248 C 
HETATM   20  N   UNL     1      41.833  -7.298  14.162  1.00  0.00    -0.074 N 
HETATM   21  C   UNL     1      41.765  -6.241  15.227  1.00  0.00     0.269 C 
HETATM   22  H   UNL     1      41.294  -6.929  13.354  1.00  0.00     0.279 HD
HETATM   23  C   UNL     1      41.197  -8.589  14.601  1.00  0.00     0.234 C 
HETATM   24  C   UNL     1      41.170  -9.567  13.434  1.00  0.00     0.029 C 
HETATM   25  C   UNL     1      42.556  -9.786  12.823  1.00  0.00     0.017 C 
ENDBRANCH  15  18
ENDBRANCH  13  14
ENDBRANCH  12  13
ENDBRANCH   1  12
BRANCH   6  26
HETATM   26  C   UNL     1      40.836 -13.124   4.636  1.00  0.00     0.273 C 
BRANCH  26  27
HETATM   27  C   UNL     1      40.464 -13.227   3.185  1.00  0.00    -0.033 A 
HETATM   28  C   UNL     1      39.655 -12.252   2.587  1.00  0.00     0.010 A 
HETATM   29  C   UNL     1      39.286 -12.365   1.243  1.00  0.00     0.015 A 
HETATM   30  C   UNL     1      39.717 -13.444   0.460  1.00  0.00    -0.002 A 
HETATM   31  C   UNL     1      40.531 -14.412   1.062  1.00  0.00     0.015 A 
HETATM   32  C   UNL     1      40.900 -14.310   2.409  1.00  0.00     0.010 A 
BRANCH  30  33
HETATM   33  C   UNL     1      39.336 -13.556  -0.946  1.00  0.00     0.085 A 
HETATM   34  O   UNL     1      38.159 -12.956  -1.300  1.00  0.00    -0.322 OA
HETATM   35  C   UNL     1      37.977 -13.166  -2.628  1.00  0.00     0.142 A 
HETATM   36  C   UNL     1      39.018 -13.897  -3.144  1.00  0.00     0.027 A 
HETATM   37  C   UNL     1      39.896 -14.152  -2.061  1.00  0.00     0.040 A 
ENDBRANCH  30  33
ENDBRANCH  26  27
ENDBRANCH   6  26
TORSDOF 7
ENDMDL
MODEL 8
REMARK VINA RESULT:      -8.0      3.063      4.749
REMARK  7 active torsions:
REMARK  status: ('A' for Active; 'I' for Inactive)
REMARK    1  A    between atoms: C_5  and  C_6 
REMARK       I    between atoms: C_6  and  N_7 
REMARK    2  A    between atoms: N_7  and  C_8 
REMARK    3  A    between atoms: C_8  and  C_9 
REMARK    4  A    between atoms: C_9  and  C_10 
REMARK    5  A    between atoms: N_15  and  C_17 
REMARK    6  A    between atoms: C_17  and  C_18 
REMARK    7  A    between atoms: C_21  and  C_22 
ROOT
HETATM    1  C   UNL     1      39.744 -10.489   5.394  1.00  0.00     0.131 A 
HETATM    2  N   UNL     1      39.870 -11.433   4.398  1.00  0.00    -0.319 N 
HETATM    3  C   UNL     1      39.174 -10.943   3.320  1.00  0.00     0.131 A 
HETATM    4  C   UNL     1      39.061 -11.562   1.971  1.00  0.00     0.108 C 
HETATM    5  C   UNL     1      40.396 -12.101   1.474  1.00  0.00     0.243 C 
HETATM    6  N   UNL     1      40.727 -13.475   2.058  1.00  0.00    -0.065 N 
HETATM    7  H   UNL     1      40.219 -14.143   1.460  1.00  0.00     0.280 HD
HETATM    8  C   UNL     1      40.240 -13.740   3.472  1.00  0.00     0.255 C 
HETATM    9  C   UNL     1      40.635 -12.658   4.477  1.00  0.00     0.159 C 
HETATM   10  N   UNL     1      38.629  -9.798   3.658  1.00  0.00    -0.135 NA
HETATM   11  N   UNL     1      38.988  -9.513   4.942  1.00  0.00    -0.135 NA
ENDROOT
BRANCH   1  12
HETATM   12  C   UNL     1      40.389 -10.531   6.741  1.00  0.00     0.100 C 
BRANCH  12  13
HETATM   13  C   UNL     1      41.912 -10.677   6.625  1.00  0.00     0.130 C 
BRANCH  13  14
HETATM   14  N   UNL     1      42.662  -9.825   7.541  1.00  0.00    -0.360 N 
HETATM   15  C   UNL     1      43.663 -10.310   8.344  1.00  0.00     0.223 C 
HETATM   16  O   UNL     1      44.185 -11.415   8.205  1.00  0.00    -0.273 OA
HETATM   17  H   UNL     1      42.217  -8.946   7.786  1.00  0.00     0.162 HD
BRANCH  15  18
HETATM   18  C   UNL     1      44.169  -9.329   9.394  1.00  0.00     0.103 C 
HETATM   19  C   UNL     1      43.012  -8.454   9.881  1.00  0.00     0.248 C 
HETATM   20  N   UNL     1      42.036  -9.269  10.703  1.00  0.00    -0.074 N 
HETATM   21  C   UNL     1      40.818  -8.476  11.082  1.00  0.00     0.269 C 
HETATM   22  H   UNL     1      41.706 -10.019  10.065  1.00  0.00     0.279 HD
HETATM   23  C   UNL     1      42.686  -9.917  11.896  1.00  0.00     0.234 C 
HETATM   24  C   UNL     1      43.824 -10.815  11.430  1.00  0.00     0.029 C 
HETATM   25  C   UNL     1      44.836 -10.072  10.556  1.00  0.00     0.017 C 
ENDBRANCH  15  18
ENDBRANCH  13  14
ENDBRANCH  12  13
ENDBRANCH   1  12
BRANCH   6  26
HETATM   26  C   UNL     1      42.193 -13.842   1.862  1.00  0.00     0.273 C 
BRANCH  26  27
HETATM   27  C   UNL     1      42.553 -15.175   2.452  1.00  0.00    -0.033 A 
HETATM   28  C   UNL     1      43.225 -15.252   3.678  1.00  0.00     0.010 A 
HETATM   29  C   UNL     1      43.584 -16.494   4.211  1.00  0.00     0.015 A 
HETATM   30  C   UNL     1      43.280 -17.687   3.541  1.00  0.00    -0.002 A 
HETATM   31  C   UNL     1      42.602 -17.603   2.319  1.00  0.00     0.015 A 
HETATM   32  C   UNL     1      42.244 -16.363   1.775  1.00  0.00     0.010 A 
BRANCH  30  33
HETATM   33  C   UNL     1      43.649 -18.984   4.104  1.00  0.00     0.085 A 
HETATM   34  O   UNL     1      43.701 -20.029   3.223  1.00  0.00    -0.322 OA
HETATM   35  C   UNL     1      44.056 -21.136   3.922  1.00  0.00     0.142 A 
HETATM   36  C   UNL     1      44.234 -20.827   5.248  1.00  0.00     0.027 A 
HETATM   37  C   UNL     1      43.971 -19.440   5.369  1.00  0.00     0.040 A 
ENDBRANCH  30  33
ENDBRANCH  26  27
ENDBRANCH   6  26
TORSDOF 7
ENDMDL
MODEL 9
REMARK VINA RESULT:      -8.0      3.501      4.832
REMARK  7 active torsions:
REMARK  status: ('A' for Active; 'I' for Inactive)
REMARK    1  A    between atoms: C_5  and  C_6 
REMARK       I    between atoms: C_6  and  N_7 
REMARK    2  A    between atoms: N_7  and  C_8 
REMARK    3  A    between atoms: C_8  and  C_9 
REMARK    4  A    between atoms: C_9  and  C_10 
REMARK    5  A    between atoms: N_15  and  C_17 
REMARK    6  A    between atoms: C_17  and  C_18 
REMARK    7  A    between atoms: C_21  and  C_22 
ROOT
HETATM    1  C   UNL     1      39.161  -9.149   3.985  1.00  0.00     0.131 A 
HETATM    2  N   UNL     1      39.459 -10.435   3.589  1.00  0.00    -0.319 N 
HETATM    3  C   UNL     1      38.770 -10.640   2.418  1.00  0.00     0.131 A 
HETATM    4  C   UNL     1      38.811 -11.853   1.556  1.00  0.00     0.108 C 
HETATM    5  C   UNL     1      40.228 -12.382   1.377  1.00  0.00     0.243 C 
HETATM    6  N   UNL     1      40.692 -13.228   2.562  1.00  0.00    -0.065 N 
HETATM    7  H   UNL     1      40.306 -14.166   2.382  1.00  0.00     0.280 HD
HETATM    8  C   UNL     1      40.163 -12.824   3.927  1.00  0.00     0.255 C 
HETATM    9  C   UNL     1      40.363 -11.345   4.257  1.00  0.00     0.159 C 
HETATM   10  N   UNL     1      38.070  -9.563   2.148  1.00  0.00    -0.135 NA
HETATM   11  N   UNL     1      38.317  -8.636   3.117  1.00  0.00    -0.135 NA
ENDROOT
BRANCH   1  12
HETATM   12  C   UNL     1      39.729  -8.432   5.167  1.00  0.00     0.100 C 
BRANCH  12  13
HETATM   13  C   UNL     1      39.072  -8.902   6.471  1.00  0.00     0.130 C 
BRANCH  13  14
HETATM   14  N   UNL     1      39.692  -8.364   7.676  1.00  0.00    -0.360 N 
HETATM   15  C   UNL     1      39.379  -8.821   8.931  1.00  0.00     0.223 C 
HETATM   16  O   UNL     1      38.758  -9.859   9.153  1.00  0.00    -0.273 OA
HETATM   17  H   UNL     1      40.119  -7.448   7.578  1.00  0.00     0.162 HD
BRANCH  15  18
HETATM   18  C   UNL     1      39.949  -7.988  10.073  1.00  0.00     0.103 C 
HETATM   19  C   UNL     1      39.479  -8.560  11.412  1.00  0.00     0.248 C 
HETATM   20  N   UNL     1      40.136  -9.897  11.682  1.00  0.00    -0.074 N 
HETATM   21  C   UNL     1      39.595 -10.552  12.920  1.00  0.00     0.269 C 
HETATM   22  H   UNL     1      39.853 -10.502  10.887  1.00  0.00     0.279 HD
HETATM   23  C   UNL     1      41.639  -9.809  11.696  1.00  0.00     0.234 C 
HETATM   24  C   UNL     1      42.130  -9.268  10.360  1.00  0.00     0.029 C 
HETATM   25  C   UNL     1      41.478  -7.933   9.994  1.00  0.00     0.017 C 
ENDBRANCH  15  18
ENDBRANCH  13  14
ENDBRANCH  12  13
ENDBRANCH   1  12
BRANCH   6  26
HETATM   26  C   UNL     1      42.201 -13.442   2.557  1.00  0.00     0.273 C 
BRANCH  26  27
HETATM   27  C   UNL     1      42.598 -14.869   2.806  1.00  0.00    -0.033 A 
HETATM   28  C   UNL     1      42.676 -15.781   1.747  1.00  0.00     0.010 A 
HETATM   29  C   UNL     1      43.018 -17.116   1.986  1.00  0.00     0.015 A 
HETATM   30  C   UNL     1      43.295 -17.573   3.281  1.00  0.00    -0.002 A 
HETATM   31  C   UNL     1      43.222 -16.654   4.336  1.00  0.00     0.015 A 
HETATM   32  C   UNL     1      42.874 -15.318   4.105  1.00  0.00     0.010 A 
BRANCH  30  33
HETATM   33  C   UNL     1      43.659 -18.966   3.528  1.00  0.00     0.085 A 
HETATM   34  O   UNL     1      44.073 -19.264   4.797  1.00  0.00    -0.322 OA
HETATM   35  C   UNL     1      44.365 -20.589   4.831  1.00  0.00     0.142 A 
HETATM   36  C   UNL     1      44.150 -21.158   3.600  1.00  0.00     0.027 A 
HETATM   37  C   UNL     1      43.696 -20.113   2.757  1.00  0.00     0.040 A 
ENDBRANCH  30  33
ENDBRANCH  26  27
ENDBRANCH   6  26
TORSDOF 7
ENDMDL
MODEL 10
REMARK VINA RESULT:      -7.9      2.213      2.842
REMARK  7 active torsions:
REMARK  status: ('A' for Active; 'I' for Inactive)
REMARK    1  A    between atoms: C_5  and  C_6 
REMARK       I    between atoms: C_6  and  N_7 
REMARK    2  A    between atoms: N_7  and  C_8 
REMARK    3  A    between atoms: C_8  and  C_9 
REMARK    4  A    between atoms: C_9  and  C_10 
REMARK    5  A    between atoms: N_15  and  C_17 
REMARK    6  A    between atoms: C_17  and  C_18 
REMARK    7  A    between atoms: C_21  and  C_22 
ROOT
HETATM    1  C   UNL     1      41.457  -7.201   7.117  1.00  0.00     0.131 A 
HETATM    2  N   UNL     1      41.951  -8.411   6.678  1.00  0.00    -0.319 N 
HETATM    3  C   UNL     1      43.099  -8.636   7.400  1.00  0.00     0.131 A 
HETATM    4  C   UNL     1      43.969  -9.842   7.345  1.00  0.00     0.108 C 
HETATM    5  C   UNL     1      43.160 -11.132   7.317  1.00  0.00     0.243 C 
HETATM    6  N   UNL     1      42.637 -11.466   5.920  1.00  0.00    -0.065 N 
HETATM    7  H   UNL     1      43.425 -11.934   5.449  1.00  0.00     0.280 HD
HETATM    8  C   UNL     1      42.278 -10.284   5.035  1.00  0.00     0.255 C 
HETATM    9  C   UNL     1      41.337  -9.277   5.697  1.00  0.00     0.159 C 
HETATM   10  N   UNL     1      43.304  -7.609   8.192  1.00  0.00    -0.135 NA
HETATM   11  N   UNL     1      42.283  -6.722   8.021  1.00  0.00    -0.135 NA
ENDROOT
BRANCH   1  12
HETATM   12  C   UNL     1      40.180  -6.557   6.684  1.00  0.00     0.100 C 
BRANCH  12  13
HETATM   13  C   UNL     1      39.089  -6.711   7.751  1.00  0.00     0.130 C 
BRANCH  13  14
HETATM   14  N   UNL     1      39.589  -6.695   9.120  1.00  0.00    -0.360 N 
HETATM   15  C   UNL     1      39.168  -7.591  10.069  1.00  0.00     0.223 C 
HETATM   16  O   UNL     1      38.540  -8.618   9.817  1.00  0.00    -0.273 OA
HETATM   17  H   UNL     1      40.014  -5.823   9.421  1.00  0.00     0.162 HD
BRANCH  15  18
HETATM   18  C   UNL     1      39.621  -7.276  11.489  1.00  0.00     0.103 C 
HETATM   19  C   UNL     1      39.172  -8.394  12.432  1.00  0.00     0.248 C 
HETATM   20  N   UNL     1      39.948  -9.665  12.163  1.00  0.00    -0.074 N 
HETATM   21  C   UNL     1      39.439 -10.820  12.976  1.00  0.00     0.269 C 
HETATM   22  H   UNL     1      39.748  -9.898  11.171  1.00  0.00     0.279 HD
HETATM   23  C   UNL     1      41.433  -9.476  12.312  1.00  0.00     0.234 C 
HETATM   24  C   UNL     1      41.907  -8.387  11.360  1.00  0.00     0.029 C 
HETATM   25  C   UNL     1      41.139  -7.076  11.542  1.00  0.00     0.017 C 
ENDBRANCH  15  18
ENDBRANCH  13  14
ENDBRANCH  12  13
ENDBRANCH   1  12
BRANCH   6  26
HETATM   26  C   UNL     1      41.543 -12.527   5.956  1.00  0.00     0.273 C 
BRANCH  26  27
HETATM   27  C   UNL     1      41.969 -13.837   5.358  1.00  0.00    -0.033 A 
HETATM   28  C   UNL     1      42.692 -13.870   4.159  1.00  0.00     0.010 A 
HETATM   29  C   UNL     1      43.063 -15.092   3.590  1.00  0.00     0.015 A 
HETATM   30  C   UNL     1      42.729 -16.308   4.201  1.00  0.00    -0.002 A 
HETATM   31  C   UNL     1      42.012 -16.268   5.403  1.00  0.00     0.015 A 
HETATM   32  C   UNL     1      41.632 -15.049   5.976  1.00  0.00     0.010 A 
BRANCH  30  33
HETATM   33  C   UNL     1      43.124 -17.584   3.608  1.00  0.00     0.085 A 
HETATM   34  O   UNL     1      43.761 -18.462   4.440  1.00  0.00    -0.322 OA
HETATM   35  C   UNL     1      44.047 -19.575   3.719  1.00  0.00     0.142 A 
HETATM   36  C   UNL     1      43.607 -19.433   2.426  1.00  0.00     0.027 A 
HETATM   37  C   UNL     1      43.012 -18.149   2.351  1.00  0.00     0.040 A 
ENDBRANCH  30  33
ENDBRANCH  26  27
ENDBRANCH   6  26
TORSDOF 7
ENDMDL
