MODEL 1
REMARK VINA RESULT:      -7.8      0.000      0.000
REMARK  4 active torsions:
REMARK  status: ('A' for Active; 'I' for Inactive)
REMARK    1  A    between atoms: C_3  and  N_4 
REMARK       I    between atoms: N_4  and  C_5 
REMARK    2  A    between atoms: C_5  and  C_6 
REMARK    3  A    between atoms: C_7  and  C_8 
REMARK    4  A    between atoms: C_16  and  C_17 
ROOT
HETATM    1  C   UNL     1      43.335 -15.499   4.436  1.00  0.00     0.003 A 
HETATM    2  C   UNL     1      42.787 -14.886   3.308  1.00  0.00     0.029 A 
HETATM    3  C   UNL     1      42.514 -15.633   2.161  1.00  0.00     0.035 A 
HETATM    4  C   UNL     1      42.804 -17.005   2.160  1.00  0.00     0.042 A 
HETATM    5  C   UNL     1      43.355 -17.636   3.288  1.00  0.00    -0.021 A 
HETATM    6  C   UNL     1      43.616 -16.865   4.427  1.00  0.00     0.012 A 
ENDROOT
BRANCH   3   7
HETATM    7  N   UNL     1      41.985 -15.083   0.976  1.00  0.00    -0.327 N 
HETATM    8  C   UNL     1      40.660 -14.929   0.638  1.00  0.00     0.227 C 
HETATM    9  O   UNL     1      39.698 -15.344   1.273  1.00  0.00    -0.273 OA
HETATM   10  H   UNL     1      42.655 -14.870   0.245  1.00  0.00     0.169 HD
BRANCH   8  11
HETATM   11  C   UNL     1      40.366 -14.153  -0.604  1.00  0.00     0.089 A 
HETATM   12  C   UNL     1      40.630 -12.674  -0.799  1.00  0.00     0.057 A 
HETATM   13  C   UNL     1      39.213 -13.219  -0.787  1.00  0.00     0.027 A 
BRANCH  12  14
HETATM   14  C   UNL     1      40.993 -11.722   0.325  1.00  0.00     0.057 A 
HETATM   15  O   UNL     1      41.683 -12.056   1.452  1.00  0.00    -0.327 OA
HETATM   16  C   UNL     1      41.773 -10.933   2.211  1.00  0.00     0.142 A 
HETATM   17  C   UNL     1      41.136  -9.883   1.594  1.00  0.00     0.027 A 
HETATM   18  C   UNL     1      40.628 -10.393   0.376  1.00  0.00     0.035 A 
ENDBRANCH  12  14
ENDBRANCH   8  11
ENDBRANCH   3   7
BRANCH   5  19
HETATM   19  C   UNL     1      43.636 -19.062   3.265  1.00  0.00     0.010 A 
HETATM   20  C   UNL     1      43.610 -19.994   2.200  1.00  0.00     0.152 A 
HETATM   21  N   UNL     1      43.947 -21.229   2.579  1.00  0.00    -0.187 NA
HETATM   22  N   UNL     1      44.189 -21.097   3.893  1.00  0.00    -0.289 N 
HETATM   23  H   UNL     1      44.469 -21.919   4.416  1.00  0.00     0.188 HD
HETATM   24  C   UNL     1      44.021 -19.821   4.350  1.00  0.00     0.123 A 
ENDBRANCH   5  19
TORSDOF 4
ENDMDL
MODEL 2
REMARK VINA RESULT:      -7.7      2.162      3.432
REMARK  4 active torsions:
REMARK  status: ('A' for Active; 'I' for Inactive)
REMARK    1  A    between atoms: C_3  and  N_4 
REMARK       I    between atoms: N_4  and  C_5 
REMARK    2  A    between atoms: C_5  and  C_6 
REMARK    3  A    between atoms: C_7  and  C_8 
REMARK    4  A    between atoms: C_16  and  C_17 
ROOT
HETATM    1  C   UNL     1      44.473 -16.347   6.261  1.00  0.00     0.003 A 
HETATM    2  C   UNL     1      43.562 -15.329   5.975  1.00  0.00     0.029 A 
HETATM    3  C   UNL     1      42.673 -15.458   4.907  1.00  0.00     0.035 A 
HETATM    4  C   UNL     1      42.715 -16.622   4.125  1.00  0.00     0.042 A 
HETATM    5  C   UNL     1      43.626 -17.654   4.402  1.00  0.00    -0.021 A 
HETATM    6  C   UNL     1      44.505 -17.503   5.480  1.00  0.00     0.012 A 
ENDROOT
BRANCH   3   7
HETATM    7  N   UNL     1      41.741 -14.465   4.539  1.00  0.00    -0.327 N 
HETATM    8  C   UNL     1      40.627 -14.057   5.236  1.00  0.00     0.227 C 
HETATM    9  O   UNL     1      40.188 -14.566   6.260  1.00  0.00    -0.273 OA
HETATM   10  H   UNL     1      41.846 -14.078   3.608  1.00  0.00     0.169 HD
BRANCH   8  11
HETATM   11  C   UNL     1      39.904 -12.860   4.712  1.00  0.00     0.089 A 
HETATM   12  C   UNL     1      39.316 -12.728   3.323  1.00  0.00     0.057 A 
HETATM   13  C   UNL     1      40.473 -11.851   3.768  1.00  0.00     0.027 A 
BRANCH  12  14
HETATM   14  C   UNL     1      39.602 -13.690   2.185  1.00  0.00     0.057 A 
HETATM   15  O   UNL     1      39.720 -15.043   2.305  1.00  0.00    -0.327 OA
HETATM   16  C   UNL     1      40.004 -15.529   1.069  1.00  0.00     0.142 A 
HETATM   17  C   UNL     1      40.084 -14.505   0.157  1.00  0.00     0.027 A 
HETATM   18  C   UNL     1      39.829 -13.314   0.878  1.00  0.00     0.035 A 
ENDBRANCH  12  14
ENDBRANCH   8  11
ENDBRANCH   3   7
BRANCH   5  19
HETATM   19  C   UNL     1      43.640 -18.856   3.583  1.00  0.00     0.010 A 
HETATM   20  C   UNL     1      44.028 -20.182   3.892  1.00  0.00     0.152 A 
HETATM   21  N   UNL     1      43.884 -21.020   2.863  1.00  0.00    -0.187 NA
HETATM   22  N   UNL     1      43.403 -20.235   1.886  1.00  0.00    -0.289 N 
HETATM   23  H   UNL     1      43.208 -20.654   0.983  1.00  0.00     0.188 HD
HETATM   24  C   UNL     1      43.237 -18.934   2.267  1.00  0.00     0.123 A 
ENDBRANCH   5  19
TORSDOF 4
ENDMDL
MODEL 3
REMARK VINA RESULT:      -7.4      2.647      7.112
REMARK  4 active torsions:
REMARK  status: ('A' for Active; 'I' for Inactive)
REMARK    1  A    between atoms: C_3  and  N_4 
REMARK       I    between atoms: N_4  and  C_5 
REMARK    2  A    between atoms: C_5  and  C_6 
REMARK    3  A    between atoms: C_7  and  C_8 
REMARK    4  A    between atoms: C_16  and  C_17 
ROOT
HETATM    1  C   UNL     1      40.086 -12.627   1.739  1.00  0.00     0.003 A 
HETATM    2  C   UNL     1      40.659 -13.772   2.294  1.00  0.00     0.029 A 
HETATM    3  C   UNL     1      40.685 -14.968   1.575  1.00  0.00     0.035 A 
HETATM    4  C   UNL     1      40.120 -15.000   0.291  1.00  0.00     0.042 A 
HETATM    5  C   UNL     1      39.540 -13.855  -0.280  1.00  0.00    -0.021 A 
HETATM    6  C   UNL     1      39.531 -12.667   0.460  1.00  0.00     0.012 A 
ENDROOT
BRANCH   3   7
HETATM    7  N   UNL     1      41.222 -16.172   2.075  1.00  0.00    -0.327 N 
HETATM    8  C   UNL     1      42.509 -16.640   1.938  1.00  0.00     0.227 C 
HETATM    9  O   UNL     1      43.394 -16.133   1.259  1.00  0.00    -0.273 OA
HETATM   10  H   UNL     1      40.561 -16.815   2.496  1.00  0.00     0.169 HD
BRANCH   8  11
HETATM   11  C   UNL     1      42.870 -17.862   2.717  1.00  0.00     0.089 A 
HETATM   12  C   UNL     1      43.171 -17.900   4.200  1.00  0.00     0.057 A 
HETATM   13  C   UNL     1      44.246 -18.218   3.176  1.00  0.00     0.027 A 
BRANCH  12  14
HETATM   14  C   UNL     1      43.400 -16.666   5.052  1.00  0.00     0.057 A 
HETATM   15  O   UNL     1      42.794 -15.458   4.872  1.00  0.00    -0.327 OA
HETATM   16  C   UNL     1      43.290 -14.619   5.818  1.00  0.00     0.142 A 
HETATM   17  C   UNL     1      44.219 -15.267   6.596  1.00  0.00     0.027 A 
HETATM   18  C   UNL     1      44.294 -16.589   6.099  1.00  0.00     0.035 A 
ENDBRANCH  12  14
ENDBRANCH   8  11
ENDBRANCH   3   7
BRANCH   5  19
HETATM   19  C   UNL     1      38.973 -13.912  -1.618  1.00  0.00     0.010 A 
HETATM   20  C   UNL     1      39.048 -14.915  -2.614  1.00  0.00     0.152 A 
HETATM   21  N   UNL     1      38.374 -14.600  -3.722  1.00  0.00    -0.187 NA
HETATM   22  N   UNL     1      37.863 -13.390  -3.444  1.00  0.00    -0.289 N 
HETATM   23  H   UNL     1      37.297 -12.933  -4.150  1.00  0.00     0.188 HD
HETATM   24  C   UNL     1      38.189 -12.937  -2.198  1.00  0.00     0.123 A 
ENDBRANCH   5  19
TORSDOF 4
ENDMDL
MODEL 4
REMARK VINA RESULT:      -7.3      2.717      7.921
REMARK  4 active torsions:
REMARK  status: ('A' for Active; 'I' for Inactive)
REMARK    1  A    between atoms: C_3  and  N_4 
REMARK       I    between atoms: N_4  and  C_5 
REMARK    2  A    between atoms: C_5  and  C_6 
REMARK    3  A    between atoms: C_7  and  C_8 
REMARK    4  A    between atoms: C_16  and  C_17 
ROOT
HETATM    1  C   UNL     1      40.140 -15.135   0.678  1.00  0.00     0.003 A 
HETATM    2  C   UNL     1      40.943 -15.650   1.698  1.00  0.00     0.029 A 
HETATM    3  C   UNL     1      41.858 -14.829   2.358  1.00  0.00     0.035 A 
HETATM    4  C   UNL     1      41.961 -13.483   1.976  1.00  0.00     0.042 A 
HETATM    5  C   UNL     1      41.160 -12.951   0.953  1.00  0.00    -0.021 A 
HETATM    6  C   UNL     1      40.247 -13.794   0.308  1.00  0.00     0.012 A 
ENDROOT
BRANCH   3   7
HETATM    7  N   UNL     1      42.719 -15.280   3.379  1.00  0.00    -0.327 N 
HETATM    8  C   UNL     1      42.397 -16.044   4.476  1.00  0.00     0.227 C 
HETATM    9  O   UNL     1      41.269 -16.383   4.816  1.00  0.00    -0.273 OA
HETATM   10  H   UNL     1      43.666 -14.914   3.358  1.00  0.00     0.169 HD
BRANCH   8  11
HETATM   11  C   UNL     1      43.531 -16.536   5.314  1.00  0.00     0.089 A 
HETATM   12  C   UNL     1      44.362 -17.769   5.030  1.00  0.00     0.057 A 
HETATM   13  C   UNL     1      43.470 -17.695   6.256  1.00  0.00     0.027 A 
BRANCH  12  14
HETATM   14  C   UNL     1      43.997 -18.819   3.998  1.00  0.00     0.057 A 
HETATM   15  O   UNL     1      44.030 -20.168   4.196  1.00  0.00    -0.327 OA
HETATM   16  C   UNL     1      43.661 -20.751   3.026  1.00  0.00     0.142 A 
HETATM   17  C   UNL     1      43.405 -19.796   2.072  1.00  0.00     0.027 A 
HETATM   18  C   UNL     1      43.626 -18.546   2.698  1.00  0.00     0.035 A 
ENDBRANCH  12  14
ENDBRANCH   8  11
ENDBRANCH   3   7
BRANCH   5  19
HETATM   19  C   UNL     1      41.277 -11.549   0.585  1.00  0.00     0.010 A 
HETATM   20  C   UNL     1      41.060 -10.896  -0.652  1.00  0.00     0.152 A 
HETATM   21  N   UNL     1      41.262  -9.578  -0.587  1.00  0.00    -0.187 NA
HETATM   22  N   UNL     1      41.612  -9.378   0.694  1.00  0.00    -0.289 N 
HETATM   23  H   UNL     1      41.821  -8.432   0.995  1.00  0.00     0.188 HD
HETATM   24  C   UNL     1      41.633 -10.525   1.435  1.00  0.00     0.123 A 
ENDBRANCH   5  19
TORSDOF 4
ENDMDL
MODEL 5
REMARK VINA RESULT:      -7.2      2.355      3.427
REMARK  4 active torsions:
REMARK  status: ('A' for Active; 'I' for Inactive)
REMARK    1  A    between atoms: C_3  and  N_4 
REMARK       I    between atoms: N_4  and  C_5 
REMARK    2  A    between atoms: C_5  and  C_6 
REMARK    3  A    between atoms: C_7  and  C_8 
REMARK    4  A    between atoms: C_16  and  C_17 
ROOT
HETATM    1  C   UNL     1      43.634 -18.072   3.146  1.00  0.00     0.003 A 
HETATM    2  C   UNL     1      43.147 -17.355   2.052  1.00  0.00     0.029 A 
HETATM    3  C   UNL     1      42.652 -16.061   2.220  1.00  0.00     0.035 A 
HETATM    4  C   UNL     1      42.646 -15.498   3.504  1.00  0.00     0.042 A 
HETATM    5  C   UNL     1      43.134 -16.207   4.615  1.00  0.00    -0.021 A 
HETATM    6  C   UNL     1      43.629 -17.502   4.419  1.00  0.00     0.012 A 
ENDROOT
BRANCH   3   7
HETATM    7  N   UNL     1      42.120 -15.284   1.171  1.00  0.00    -0.327 N 
HETATM    8  C   UNL     1      40.795 -15.041   0.891  1.00  0.00     0.227 C 
HETATM    9  O   UNL     1      39.832 -15.551   1.452  1.00  0.00    -0.273 OA
HETATM   10  H   UNL     1      42.785 -14.947   0.483  1.00  0.00     0.169 HD
BRANCH   8  11
HETATM   11  C   UNL     1      40.502 -14.035  -0.173  1.00  0.00     0.089 A 
HETATM   12  C   UNL     1      40.869 -12.567  -0.119  1.00  0.00     0.057 A 
HETATM   13  C   UNL     1      39.416 -13.010  -0.118  1.00  0.00     0.027 A 
BRANCH  12  14
HETATM   14  C   UNL     1      41.355 -11.860   1.132  1.00  0.00     0.057 A 
HETATM   15  O   UNL     1      42.221 -12.380   2.048  1.00  0.00    -0.327 OA
HETATM   16  C   UNL     1      42.375 -11.447   3.024  1.00  0.00     0.142 A 
HETATM   17  C   UNL     1      41.609 -10.339   2.755  1.00  0.00     0.027 A 
HETATM   18  C   UNL     1      40.945 -10.606   1.534  1.00  0.00     0.035 A 
ENDBRANCH  12  14
ENDBRANCH   8  11
ENDBRANCH   3   7
BRANCH   5  19
HETATM   19  C   UNL     1      43.128 -15.596   5.934  1.00  0.00     0.010 A 
HETATM   20  C   UNL     1      43.214 -16.175   7.223  1.00  0.00     0.152 A 
HETATM   21  N   UNL     1      43.188 -15.269   8.203  1.00  0.00    -0.187 NA
HETATM   22  N   UNL     1      43.084 -14.102   7.548  1.00  0.00    -0.289 N 
HETATM   23  H   UNL     1      43.046 -13.246   8.091  1.00  0.00     0.188 HD
HETATM   24  C   UNL     1      43.047 -14.244   6.190  1.00  0.00     0.123 A 
ENDBRANCH   5  19
TORSDOF 4
ENDMDL
MODEL 6
REMARK VINA RESULT:      -7.2      3.169      7.226
REMARK  4 active torsions:
REMARK  status: ('A' for Active; 'I' for Inactive)
REMARK    1  A    between atoms: C_3  and  N_4 
REMARK       I    between atoms: N_4  and  C_5 
REMARK    2  A    between atoms: C_5  and  C_6 
REMARK    3  A    between atoms: C_7  and  C_8 
REMARK    4  A    between atoms: C_16  and  C_17 
ROOT
HETATM    1  C   UNL     1      39.691 -12.163   5.092  1.00  0.00     0.003 A 
HETATM    2  C   UNL     1      40.668 -12.909   5.754  1.00  0.00     0.029 A 
HETATM    3  C   UNL     1      41.387 -13.892   5.073  1.00  0.00     0.035 A 
HETATM    4  C   UNL     1      41.108 -14.121   3.718  1.00  0.00     0.042 A 
HETATM    5  C   UNL     1      40.129 -13.378   3.039  1.00  0.00    -0.021 A 
HETATM    6  C   UNL     1      39.424 -12.395   3.743  1.00  0.00     0.012 A 
ENDROOT
BRANCH   3   7
HETATM    7  N   UNL     1      42.370 -14.704   5.677  1.00  0.00    -0.327 N 
HETATM    8  C   UNL     1      42.177 -15.770   6.525  1.00  0.00     0.227 C 
HETATM    9  O   UNL     1      41.105 -16.138   6.991  1.00  0.00    -0.273 OA
HETATM   10  H   UNL     1      43.332 -14.406   5.554  1.00  0.00     0.169 HD
BRANCH   8  11
HETATM   11  C   UNL     1      43.382 -16.574   6.884  1.00  0.00     0.089 A 
HETATM   12  C   UNL     1      44.207 -17.399   5.918  1.00  0.00     0.057 A 
HETATM   13  C   UNL     1      43.416 -18.061   7.032  1.00  0.00     0.027 A 
BRANCH  12  14
HETATM   14  C   UNL     1      43.777 -17.729   4.502  1.00  0.00     0.057 A 
HETATM   15  O   UNL     1      42.956 -16.964   3.727  1.00  0.00    -0.327 OA
HETATM   16  C   UNL     1      42.797 -17.619   2.548  1.00  0.00     0.142 A 
HETATM   17  C   UNL     1      43.494 -18.804   2.559  1.00  0.00     0.027 A 
HETATM   18  C   UNL     1      44.124 -18.878   3.823  1.00  0.00     0.035 A 
ENDBRANCH  12  14
ENDBRANCH   8  11
ENDBRANCH   3   7
BRANCH   5  19
HETATM   19  C   UNL     1      39.867 -13.627   1.630  1.00  0.00     0.010 A 
HETATM   20  C   UNL     1      40.108 -14.770   0.832  1.00  0.00     0.152 A 
HETATM   21  N   UNL     1      39.711 -14.615  -0.434  1.00  0.00    -0.187 NA
HETATM   22  N   UNL     1      39.214 -13.368  -0.454  1.00  0.00    -0.289 N 
HETATM   23  H   UNL     1      38.841 -13.013  -1.328  1.00  0.00     0.188 HD
HETATM   24  C   UNL     1      39.281 -12.737   0.755  1.00  0.00     0.123 A 
ENDBRANCH   5  19
TORSDOF 4
ENDMDL
MODEL 7
REMARK VINA RESULT:      -7.1      2.162      2.672
REMARK  4 active torsions:
REMARK  status: ('A' for Active; 'I' for Inactive)
REMARK    1  A    between atoms: C_3  and  N_4 
REMARK       I    between atoms: N_4  and  C_5 
REMARK    2  A    between atoms: C_5  and  C_6 
REMARK    3  A    between atoms: C_7  and  C_8 
REMARK    4  A    between atoms: C_16  and  C_17 
ROOT
HETATM    1  C   UNL     1      44.040 -16.187   6.103  1.00  0.00     0.003 A 
HETATM    2  C   UNL     1      43.268 -15.282   5.371  1.00  0.00     0.029 A 
HETATM    3  C   UNL     1      42.669 -15.674   4.173  1.00  0.00     0.035 A 
HETATM    4  C   UNL     1      42.860 -16.986   3.715  1.00  0.00     0.042 A 
HETATM    5  C   UNL     1      43.633 -17.907   4.441  1.00  0.00    -0.021 A 
HETATM    6  C   UNL     1      44.221 -17.491   5.642  1.00  0.00     0.012 A 
ENDROOT
BRANCH   3   7
HETATM    7  N   UNL     1      41.897 -14.814   3.365  1.00  0.00    -0.327 N 
HETATM    8  C   UNL     1      42.341 -13.782   2.570  1.00  0.00     0.227 C 
HETATM    9  O   UNL     1      43.489 -13.361   2.507  1.00  0.00    -0.273 OA
HETATM   10  H   UNL     1      40.890 -14.898   3.458  1.00  0.00     0.169 HD
BRANCH   8  11
HETATM   11  C   UNL     1      41.334 -13.138   1.675  1.00  0.00     0.089 A 
HETATM   12  C   UNL     1      40.230 -12.203   2.125  1.00  0.00     0.057 A 
HETATM   13  C   UNL     1      39.909 -13.563   1.530  1.00  0.00     0.027 A 
BRANCH  12  14
HETATM   14  C   UNL     1      39.834 -11.993   3.574  1.00  0.00     0.057 A 
HETATM   15  O   UNL     1      39.847 -12.951   4.543  1.00  0.00    -0.327 OA
HETATM   16  C   UNL     1      39.398 -12.369   5.685  1.00  0.00     0.142 A 
HETATM   17  C   UNL     1      39.082 -11.050   5.460  1.00  0.00     0.027 A 
HETATM   18  C   UNL     1      39.359 -10.807   4.094  1.00  0.00     0.035 A 
ENDBRANCH  12  14
ENDBRANCH   8  11
ENDBRANCH   3   7
BRANCH   5  19
HETATM   19  C   UNL     1      43.806 -19.265   3.951  1.00  0.00     0.010 A 
HETATM   20  C   UNL     1      43.712 -19.795   2.642  1.00  0.00     0.152 A 
HETATM   21  N   UNL     1      43.954 -21.107   2.593  1.00  0.00    -0.187 NA
HETATM   22  N   UNL     1      44.204 -21.427   3.873  1.00  0.00    -0.289 N 
HETATM   23  H   UNL     1      44.421 -22.392   4.095  1.00  0.00     0.188 HD
HETATM   24  C   UNL     1      44.131 -20.360   4.722  1.00  0.00     0.123 A 
ENDBRANCH   5  19
TORSDOF 4
ENDMDL
MODEL 8
REMARK VINA RESULT:      -7.1      3.540      4.194
REMARK  4 active torsions:
REMARK  status: ('A' for Active; 'I' for Inactive)
REMARK    1  A    between atoms: C_3  and  N_4 
REMARK       I    between atoms: N_4  and  C_5 
REMARK    2  A    between atoms: C_5  and  C_6 
REMARK    3  A    between atoms: C_7  and  C_8 
REMARK    4  A    between atoms: C_16  and  C_17 
ROOT
HETATM    1  C   UNL     1      44.558 -16.398   6.295  1.00  0.00     0.003 A 
HETATM    2  C   UNL     1      43.653 -15.359   6.070  1.00  0.00     0.029 A 
HETATM    3  C   UNL     1      42.731 -15.440   5.026  1.00  0.00     0.035 A 
HETATM    4  C   UNL     1      42.734 -16.577   4.205  1.00  0.00     0.042 A 
HETATM    5  C   UNL     1      43.639 -17.630   4.419  1.00  0.00    -0.021 A 
HETATM    6  C   UNL     1      44.551 -17.527   5.476  1.00  0.00     0.012 A 
ENDROOT
BRANCH   3   7
HETATM    7  N   UNL     1      41.803 -14.424   4.719  1.00  0.00    -0.327 N 
HETATM    8  C   UNL     1      40.662 -14.090   5.411  1.00  0.00     0.227 C 
HETATM    9  O   UNL     1      40.193 -14.694   6.368  1.00  0.00    -0.273 OA
HETATM   10  H   UNL     1      41.937 -13.951   3.832  1.00  0.00     0.169 HD
BRANCH   8  11
HETATM   11  C   UNL     1      39.945 -12.854   4.976  1.00  0.00     0.089 A 
HETATM   12  C   UNL     1      40.465 -11.439   5.123  1.00  0.00     0.057 A 
HETATM   13  C   UNL     1      39.234 -11.902   5.882  1.00  0.00     0.027 A 
BRANCH  12  14
HETATM   14  C   UNL     1      41.669 -11.061   5.965  1.00  0.00     0.057 A 
HETATM   15  O   UNL     1      42.795 -11.815   6.117  1.00  0.00    -0.327 OA
HETATM   16  C   UNL     1      43.614 -11.141   6.965  1.00  0.00     0.142 A 
HETATM   17  C   UNL     1      43.024  -9.968   7.373  1.00  0.00     0.027 A 
HETATM   18  C   UNL     1      41.764  -9.918   6.730  1.00  0.00     0.035 A 
ENDBRANCH  12  14
ENDBRANCH   8  11
ENDBRANCH   3   7
BRANCH   5  19
HETATM   19  C   UNL     1      43.613 -18.804   3.561  1.00  0.00     0.010 A 
HETATM   20  C   UNL     1      44.021 -20.137   3.804  1.00  0.00     0.152 A 
HETATM   21  N   UNL     1      43.824 -20.941   2.756  1.00  0.00    -0.187 NA
HETATM   22  N   UNL     1      43.289 -20.126   1.833  1.00  0.00    -0.289 N 
HETATM   23  H   UNL     1      43.046 -20.516   0.929  1.00  0.00     0.188 HD
HETATM   24  C   UNL     1      43.139 -18.840   2.267  1.00  0.00     0.123 A 
ENDBRANCH   5  19
TORSDOF 4
ENDMDL
MODEL 9
REMARK VINA RESULT:      -7.1      1.718      2.204
REMARK  4 active torsions:
REMARK  status: ('A' for Active; 'I' for Inactive)
REMARK    1  A    between atoms: C_3  and  N_4 
REMARK       I    between atoms: N_4  and  C_5 
REMARK    2  A    between atoms: C_5  and  C_6 
REMARK    3  A    between atoms: C_7  and  C_8 
REMARK    4  A    between atoms: C_16  and  C_17 
ROOT
HETATM    1  C   UNL     1      42.539 -14.023   4.145  1.00  0.00     0.003 A 
HETATM    2  C   UNL     1      42.024 -13.593   2.921  1.00  0.00     0.029 A 
HETATM    3  C   UNL     1      41.969 -14.465   1.833  1.00  0.00     0.035 A 
HETATM    4  C   UNL     1      42.445 -15.775   1.989  1.00  0.00     0.042 A 
HETATM    5  C   UNL     1      42.965 -16.222   3.215  1.00  0.00    -0.021 A 
HETATM    6  C   UNL     1      43.006 -15.329   4.292  1.00  0.00     0.012 A 
ENDROOT
BRANCH   3   7
HETATM    7  N   UNL     1      41.487 -14.100   0.560  1.00  0.00    -0.327 N 
HETATM    8  C   UNL     1      40.392 -14.605  -0.102  1.00  0.00     0.227 C 
HETATM    9  O   UNL     1      39.699 -15.547   0.261  1.00  0.00    -0.273 OA
HETATM   10  H   UNL     1      42.071 -13.464   0.027  1.00  0.00     0.169 HD
BRANCH   8  11
HETATM   11  C   UNL     1      39.991 -13.919  -1.367  1.00  0.00     0.089 A 
HETATM   12  C   UNL     1      39.209 -12.625  -1.454  1.00  0.00     0.057 A 
HETATM   13  C   UNL     1      38.619 -13.931  -1.959  1.00  0.00     0.027 A 
BRANCH  12  14
HETATM   14  C   UNL     1      38.503 -11.980  -0.277  1.00  0.00     0.057 A 
HETATM   15  O   UNL     1      38.838 -12.146   1.034  1.00  0.00    -0.327 OA
HETATM   16  C   UNL     1      37.949 -11.427   1.766  1.00  0.00     0.142 A 
HETATM   17  C   UNL     1      37.035 -10.811   0.945  1.00  0.00     0.027 A 
HETATM   18  C   UNL     1      37.390 -11.172  -0.377  1.00  0.00     0.035 A 
ENDBRANCH  12  14
ENDBRANCH   8  11
ENDBRANCH   3   7
BRANCH   5  19
HETATM   19  C   UNL     1      43.441 -17.589   3.354  1.00  0.00     0.010 A 
HETATM   20  C   UNL     1      44.138 -18.224   4.410  1.00  0.00     0.152 A 
HETATM   21  N   UNL     1      44.391 -19.512   4.166  1.00  0.00    -0.187 NA
HETATM   22  N   UNL     1      43.858 -19.711   2.950  1.00  0.00    -0.289 N 
HETATM   23  H   UNL     1      43.925 -20.636   2.540  1.00  0.00     0.188 HD
HETATM   24  C   UNL     1      43.276 -18.593   2.424  1.00  0.00     0.123 A 
ENDBRANCH   5  19
TORSDOF 4
ENDMDL
MODEL 10
REMARK VINA RESULT:      -7.0      3.220      7.181
REMARK  4 active torsions:
REMARK  status: ('A' for Active; 'I' for Inactive)
REMARK    1  A    between atoms: C_3  and  N_4 
REMARK       I    between atoms: N_4  and  C_5 
REMARK    2  A    between atoms: C_5  and  C_6 
REMARK    3  A    between atoms: C_7  and  C_8 
REMARK    4  A    between atoms: C_16  and  C_17 
ROOT
HETATM    1  C   UNL     1      38.621 -11.070   1.938  1.00  0.00     0.003 A 
HETATM    2  C   UNL     1      38.971 -11.893   3.011  1.00  0.00     0.029 A 
HETATM    3  C   UNL     1      39.723 -13.048   2.798  1.00  0.00     0.035 A 
HETATM    4  C   UNL     1      40.116 -13.372   1.491  1.00  0.00     0.042 A 
HETATM    5  C   UNL     1      39.772 -12.554   0.402  1.00  0.00    -0.021 A 
HETATM    6  C   UNL     1      39.020 -11.398   0.642  1.00  0.00     0.012 A 
ENDROOT
BRANCH   3   7
HETATM    7  N   UNL     1      40.094 -13.942   3.824  1.00  0.00    -0.327 N 
HETATM    8  C   UNL     1      40.979 -13.720   4.854  1.00  0.00     0.227 C 
HETATM    9  O   UNL     1      41.686 -12.730   5.000  1.00  0.00    -0.273 OA
HETATM   10  H   UNL     1      39.747 -14.891   3.737  1.00  0.00     0.169 HD
BRANCH   8  11
HETATM   11  C   UNL     1      41.060 -14.770   5.913  1.00  0.00     0.089 A 
HETATM   12  C   UNL     1      41.743 -16.114   5.766  1.00  0.00     0.057 A 
HETATM   13  C   UNL     1      40.239 -16.018   5.957  1.00  0.00     0.027 A 
BRANCH  12  14
HETATM   14  C   UNL     1      42.215 -16.685   4.442  1.00  0.00     0.057 A 
HETATM   15  O   UNL     1      41.470 -16.763   3.304  1.00  0.00    -0.327 OA
HETATM   16  C   UNL     1      42.244 -17.359   2.361  1.00  0.00     0.142 A 
HETATM   17  C   UNL     1      43.475 -17.679   2.881  1.00  0.00     0.027 A 
HETATM   18  C   UNL     1      43.456 -17.247   4.229  1.00  0.00     0.035 A 
ENDBRANCH  12  14
ENDBRANCH   8  11
ENDBRANCH   3   7
BRANCH   5  19
HETATM   19  C   UNL     1      40.202 -12.905  -0.942  1.00  0.00     0.010 A 
HETATM   20  C   UNL     1      39.854 -14.001  -1.768  1.00  0.00     0.152 A 
HETATM   21  N   UNL     1      40.458 -13.967  -2.959  1.00  0.00    -0.187 NA
HETATM   22  N   UNL     1      41.198 -12.849  -2.902  1.00  0.00    -0.289 N 
HETATM   23  H   UNL     1      41.760 -12.602  -3.709  1.00  0.00     0.188 HD
HETATM   24  C   UNL     1      41.078 -12.177  -1.719  1.00  0.00     0.123 A 
ENDBRANCH   5  19
TORSDOF 4
ENDMDL
