MODEL 1
REMARK VINA RESULT:     -10.5      0.000      0.000
REMARK  7 active torsions:
REMARK  status: ('A' for Active; 'I' for Inactive)
REMARK    1  A    between atoms: C_6  and  N_7 
REMARK    2  A    between atoms: C_10  and  C_11 
REMARK       I    between atoms: C_11  and  N_12 
REMARK    3  A    between atoms: N_12  and  C_13 
REMARK    4  A    between atoms: C_16  and  C_17 
REMARK    5  A    between atoms: C_17  and  N_18 
REMARK    6  A    between atoms: C_21  and  C_22 
REMARK       I    between atoms: C_22  and  N_23 
REMARK    7  A    between atoms: C_31  and  C_32 
ROOT
HETATM    1  C   UNL     1      42.245 -13.731   5.836  1.00  0.00     0.278 C 
HETATM    2  N   UNL     1      43.175 -12.733   6.062  1.00  0.00    -0.322 N 
HETATM    3  O   UNL     1      41.089 -13.745   6.238  1.00  0.00    -0.265 OA
HETATM    4  H   UNL     1      44.104 -12.911   5.687  1.00  0.00     0.169 HD
ENDROOT
BRANCH   2   5
HETATM    5  C   UNL     1      42.980 -11.527   6.761  1.00  0.00     0.035 A 
HETATM    6  C   UNL     1      41.975 -10.608   6.455  1.00  0.00     0.030 A 
HETATM    7  C   UNL     1      41.836  -9.426   7.188  1.00  0.00     0.011 A 
HETATM    8  C   UNL     1      42.691  -9.146   8.262  1.00  0.00    -0.032 A 
HETATM    9  C   UNL     1      43.709 -10.059   8.562  1.00  0.00     0.011 A 
HETATM   10  C   UNL     1      43.854 -11.234   7.813  1.00  0.00     0.030 A 
BRANCH   8  11
HETATM   11  C   UNL     1      42.513  -7.888   9.070  1.00  0.00     0.273 C 
BRANCH  11  12
HETATM   12  N   UNL     1      42.241  -8.161  10.538  1.00  0.00    -0.066 N 
HETATM   13  H   UNL     1      41.881  -7.280  10.925  1.00  0.00     0.280 HD
HETATM   14  C   UNL     1      41.162  -9.213  10.734  1.00  0.00     0.249 C 
HETATM   15  C   UNL     1      40.834  -9.359  12.223  1.00  0.00     0.103 C 
HETATM   16  C   UNL     1      42.095  -9.654  13.040  1.00  0.00     0.017 C 
HETATM   17  C   UNL     1      43.193  -8.630  12.767  1.00  0.00     0.029 C 
HETATM   18  C   UNL     1      43.504  -8.508  11.282  1.00  0.00     0.235 C 
BRANCH  15  19
HETATM   19  C   UNL     1      39.812 -10.469  12.368  1.00  0.00     0.221 C 
HETATM   20  N   UNL     1      39.121 -10.797  11.244  1.00  0.00    -0.370 N 
HETATM   21  H   UNL     1      38.452 -11.558  11.308  1.00  0.00     0.159 HD
HETATM   22  H   UNL     1      39.309 -10.428  10.322  1.00  0.00     0.159 HD
HETATM   23  O   UNL     1      39.616 -11.050  13.428  1.00  0.00    -0.273 OA
ENDBRANCH  15  19
ENDBRANCH  11  12
ENDBRANCH   8  11
ENDBRANCH   2   5
BRANCH   1  24
HETATM   24  C   UNL     1      42.772 -14.825   5.029  1.00  0.00     0.175 C 
HETATM   25  N   UNL     1      42.863 -14.771   3.668  1.00  0.00    -0.152 NA
HETATM   26  N   UNL     1      43.347 -15.928   3.248  1.00  0.00     0.011 NA
HETATM   27  N   UNL     1      43.460 -16.771   4.314  1.00  0.00    -0.231 N 
HETATM   28  C   UNL     1      43.277 -16.036   5.465  1.00  0.00     0.174 C 
BRANCH  27  29
HETATM   29  C   UNL     1      43.669 -18.160   4.091  1.00  0.00     0.058 A 
HETATM   30  C   UNL     1      43.508 -18.671   2.793  1.00  0.00     0.073 A 
HETATM   31  C   UNL     1      43.690 -20.029   2.552  1.00  0.00     0.118 A 
HETATM   32  C   UNL     1      44.016 -20.903   3.580  1.00  0.00     0.042 A 
HETATM   33  F   UNL     1      43.548 -20.501   1.307  1.00  0.00    -0.206 F 
HETATM   34  C   UNL     1      44.152 -20.413   4.875  1.00  0.00     0.005 A 
HETATM   35  C   UNL     1      43.973 -19.047   5.134  1.00  0.00     0.031 A 
ENDBRANCH  27  29
BRANCH  28  36
HETATM   36  C   UNL     1      43.625 -16.468   6.815  1.00  0.00     0.436 C 
HETATM   37  F   UNL     1      44.934 -16.803   6.930  1.00  0.00    -0.165 F 
HETATM   38  F   UNL     1      43.425 -15.489   7.732  1.00  0.00    -0.165 F 
HETATM   39  F   UNL     1      42.901 -17.544   7.203  1.00  0.00    -0.165 F 
ENDBRANCH  28  36
ENDBRANCH   1  24
TORSDOF 7
ENDMDL
MODEL 2
REMARK VINA RESULT:     -10.1      1.528      2.129
REMARK  7 active torsions:
REMARK  status: ('A' for Active; 'I' for Inactive)
REMARK    1  A    between atoms: C_6  and  N_7 
REMARK    2  A    between atoms: C_10  and  C_11 
REMARK       I    between atoms: C_11  and  N_12 
REMARK    3  A    between atoms: N_12  and  C_13 
REMARK    4  A    between atoms: C_16  and  C_17 
REMARK    5  A    between atoms: C_17  and  N_18 
REMARK    6  A    between atoms: C_21  and  C_22 
REMARK       I    between atoms: C_22  and  N_23 
REMARK    7  A    between atoms: C_31  and  C_32 
ROOT
HETATM    1  C   UNL     1      42.478 -13.835   5.736  1.00  0.00     0.278 C 
HETATM    2  N   UNL     1      43.507 -12.980   6.087  1.00  0.00    -0.322 N 
HETATM    3  O   UNL     1      41.305 -13.729   6.069  1.00  0.00    -0.265 OA
HETATM    4  H   UNL     1      44.429 -13.250   5.753  1.00  0.00     0.169 HD
ENDROOT
BRANCH   2   5
HETATM    5  C   UNL     1      43.416 -11.807   6.861  1.00  0.00     0.035 A 
HETATM    6  C   UNL     1      42.477 -10.800   6.632  1.00  0.00     0.030 A 
HETATM    7  C   UNL     1      42.442  -9.657   7.436  1.00  0.00     0.011 A 
HETATM    8  C   UNL     1      43.333  -9.506   8.506  1.00  0.00    -0.032 A 
HETATM    9  C   UNL     1      44.286 -10.510   8.729  1.00  0.00     0.011 A 
HETATM   10  C   UNL     1      44.328 -11.645   7.908  1.00  0.00     0.030 A 
BRANCH   8  11
HETATM   11  C   UNL     1      43.266  -8.291   9.390  1.00  0.00     0.273 C 
BRANCH  11  12
HETATM   12  N   UNL     1      43.197  -8.636  10.867  1.00  0.00    -0.066 N 
HETATM   13  H   UNL     1      44.119  -9.018  11.109  1.00  0.00     0.280 HD
HETATM   14  C   UNL     1      42.980  -7.406  11.732  1.00  0.00     0.249 C 
HETATM   15  C   UNL     1      43.045  -7.786  13.214  1.00  0.00     0.103 C 
HETATM   16  C   UNL     1      42.061  -8.913  13.539  1.00  0.00     0.017 C 
HETATM   17  C   UNL     1      42.245 -10.106  12.606  1.00  0.00     0.029 C 
HETATM   18  C   UNL     1      42.169  -9.702  11.141  1.00  0.00     0.235 C 
BRANCH  15  19
HETATM   19  C   UNL     1      42.747  -6.543  14.028  1.00  0.00     0.221 C 
HETATM   20  N   UNL     1      43.044  -6.610  15.354  1.00  0.00    -0.370 N 
HETATM   21  H   UNL     1      42.882  -5.780  15.915  1.00  0.00     0.159 HD
HETATM   22  H   UNL     1      43.530  -7.378  15.799  1.00  0.00     0.159 HD
HETATM   23  O   UNL     1      42.274  -5.528  13.533  1.00  0.00    -0.273 OA
ENDBRANCH  15  19
ENDBRANCH  11  12
ENDBRANCH   8  11
ENDBRANCH   2   5
BRANCH   1  24
HETATM   24  C   UNL     1      42.920 -14.931   4.882  1.00  0.00     0.175 C 
HETATM   25  N   UNL     1      42.872 -14.881   3.519  1.00  0.00    -0.152 NA
HETATM   26  N   UNL     1      43.310 -16.040   3.055  1.00  0.00     0.011 NA
HETATM   27  N   UNL     1      43.529 -16.880   4.106  1.00  0.00    -0.231 N 
HETATM   28  C   UNL     1      43.464 -16.142   5.268  1.00  0.00     0.174 C 
BRANCH  27  29
HETATM   29  C   UNL     1      43.712 -18.270   3.866  1.00  0.00     0.058 A 
HETATM   30  C   UNL     1      43.456 -18.776   2.581  1.00  0.00     0.073 A 
HETATM   31  C   UNL     1      43.612 -20.136   2.326  1.00  0.00     0.118 A 
HETATM   32  C   UNL     1      44.003 -21.014   3.327  1.00  0.00     0.042 A 
HETATM   33  F   UNL     1      43.380 -20.604   1.093  1.00  0.00    -0.206 F 
HETATM   34  C   UNL     1      44.232 -20.528   4.611  1.00  0.00     0.005 A 
HETATM   35  C   UNL     1      44.082 -19.161   4.884  1.00  0.00     0.031 A 
ENDBRANCH  27  29
BRANCH  28  36
HETATM   36  C   UNL     1      43.947 -16.572   6.576  1.00  0.00     0.436 C 
HETATM   37  F   UNL     1      43.693 -15.660   7.548  1.00  0.00    -0.165 F 
HETATM   38  F   UNL     1      43.345 -17.713   6.992  1.00  0.00    -0.165 F 
HETATM   39  F   UNL     1      45.282 -16.793   6.575  1.00  0.00    -0.165 F 
ENDBRANCH  28  36
ENDBRANCH   1  24
TORSDOF 7
ENDMDL
MODEL 3
REMARK VINA RESULT:      -9.9      4.797     10.970
REMARK  7 active torsions:
REMARK  status: ('A' for Active; 'I' for Inactive)
REMARK    1  A    between atoms: C_6  and  N_7 
REMARK    2  A    between atoms: C_10  and  C_11 
REMARK       I    between atoms: C_11  and  N_12 
REMARK    3  A    between atoms: N_12  and  C_13 
REMARK    4  A    between atoms: C_16  and  C_17 
REMARK    5  A    between atoms: C_17  and  N_18 
REMARK    6  A    between atoms: C_21  and  C_22 
REMARK       I    between atoms: C_22  and  N_23 
REMARK    7  A    between atoms: C_31  and  C_32 
ROOT
HETATM    1  C   UNL     1      44.301 -10.982   8.537  1.00  0.00     0.278 C 
HETATM    2  N   UNL     1      43.189 -11.283   7.772  1.00  0.00    -0.322 N 
HETATM    3  O   UNL     1      45.469 -11.113   8.195  1.00  0.00    -0.265 OA
HETATM    4  H   UNL     1      42.293 -11.151   8.237  1.00  0.00     0.169 HD
ENDROOT
BRANCH   2   5
HETATM    5  C   UNL     1      43.167 -11.762   6.448  1.00  0.00     0.035 A 
HETATM    6  C   UNL     1      43.253 -10.938   5.325  1.00  0.00     0.030 A 
HETATM    7  C   UNL     1      43.223 -11.478   4.036  1.00  0.00     0.011 A 
HETATM    8  C   UNL     1      43.128 -12.862   3.842  1.00  0.00    -0.032 A 
HETATM    9  C   UNL     1      43.027 -13.690   4.968  1.00  0.00     0.011 A 
HETATM   10  C   UNL     1      43.040 -13.142   6.257  1.00  0.00     0.030 A 
BRANCH   8  11
HETATM   11  C   UNL     1      43.133 -13.440   2.452  1.00  0.00     0.273 C 
BRANCH  11  12
HETATM   12  N   UNL     1      41.777 -13.979   2.030  1.00  0.00    -0.066 N 
HETATM   13  H   UNL     1      41.125 -13.712   2.776  1.00  0.00     0.280 HD
HETATM   14  C   UNL     1      41.281 -13.335   0.747  1.00  0.00     0.249 C 
HETATM   15  C   UNL     1      39.861 -13.815   0.432  1.00  0.00     0.103 C 
HETATM   16  C   UNL     1      39.792 -15.344   0.386  1.00  0.00     0.017 C 
HETATM   17  C   UNL     1      40.370 -15.970   1.652  1.00  0.00     0.029 C 
HETATM   18  C   UNL     1      41.782 -15.482   1.938  1.00  0.00     0.235 C 
BRANCH  15  19
HETATM   19  C   UNL     1      39.445 -13.205  -0.891  1.00  0.00     0.221 C 
HETATM   20  N   UNL     1      38.337 -13.737  -1.474  1.00  0.00    -0.370 N 
HETATM   21  H   UNL     1      38.020 -13.326  -2.347  1.00  0.00     0.159 HD
HETATM   22  H   UNL     1      37.733 -14.425  -1.045  1.00  0.00     0.159 HD
HETATM   23  O   UNL     1      40.057 -12.282  -1.413  1.00  0.00    -0.273 OA
ENDBRANCH  15  19
ENDBRANCH  11  12
ENDBRANCH   8  11
ENDBRANCH   2   5
BRANCH   1  24
HETATM   24  C   UNL     1      43.958 -10.459   9.854  1.00  0.00     0.175 C 
HETATM   25  N   UNL     1      43.975 -11.220  10.987  1.00  0.00    -0.152 NA
HETATM   26  N   UNL     1      43.584 -10.457  11.994  1.00  0.00     0.011 NA
HETATM   27  N   UNL     1      43.202  -9.243  11.503  1.00  0.00    -0.231 N 
HETATM   28  C   UNL     1      43.604  -9.165  10.188  1.00  0.00     0.174 C 
BRANCH  27  29
HETATM   29  C   UNL     1      42.465  -8.353  12.332  1.00  0.00     0.058 A 
HETATM   30  C   UNL     1      41.101  -8.149  12.065  1.00  0.00     0.073 A 
HETATM   31  C   UNL     1      40.362  -7.270  12.852  1.00  0.00     0.118 A 
HETATM   32  C   UNL     1      40.953  -6.570  13.895  1.00  0.00     0.042 A 
HETATM   33  F   UNL     1      39.059  -7.097  12.597  1.00  0.00    -0.206 F 
HETATM   34  C   UNL     1      42.309  -6.743  14.151  1.00  0.00     0.005 A 
HETATM   35  C   UNL     1      43.068  -7.626  13.370  1.00  0.00     0.031 A 
ENDBRANCH  27  29
BRANCH  28  36
HETATM   36  C   UNL     1      43.683  -7.943   9.394  1.00  0.00     0.436 C 
HETATM   37  F   UNL     1      43.520  -6.825  10.145  1.00  0.00    -0.165 F 
HETATM   38  F   UNL     1      44.891  -7.799   8.797  1.00  0.00    -0.165 F 
HETATM   39  F   UNL     1      42.742  -7.910   8.421  1.00  0.00    -0.165 F 
ENDBRANCH  28  36
ENDBRANCH   1  24
TORSDOF 7
ENDMDL
MODEL 4
REMARK VINA RESULT:      -9.9      4.811     10.895
REMARK  7 active torsions:
REMARK  status: ('A' for Active; 'I' for Inactive)
REMARK    1  A    between atoms: C_6  and  N_7 
REMARK    2  A    between atoms: C_10  and  C_11 
REMARK       I    between atoms: C_11  and  N_12 
REMARK    3  A    between atoms: N_12  and  C_13 
REMARK    4  A    between atoms: C_16  and  C_17 
REMARK    5  A    between atoms: C_17  and  N_18 
REMARK    6  A    between atoms: C_21  and  C_22 
REMARK       I    between atoms: C_22  and  N_23 
REMARK    7  A    between atoms: C_31  and  C_32 
ROOT
HETATM    1  C   UNL     1      43.629 -11.308   6.875  1.00  0.00     0.278 C 
HETATM    2  N   UNL     1      42.624 -12.255   6.794  1.00  0.00    -0.322 N 
HETATM    3  O   UNL     1      44.311 -10.898   5.945  1.00  0.00    -0.265 OA
HETATM    4  H   UNL     1      42.191 -12.506   7.680  1.00  0.00     0.169 HD
ENDROOT
BRANCH   2   5
HETATM    5  C   UNL     1      42.159 -12.910   5.637  1.00  0.00     0.035 A 
HETATM    6  C   UNL     1      42.999 -13.482   4.681  1.00  0.00     0.030 A 
HETATM    7  C   UNL     1      42.473 -14.117   3.552  1.00  0.00     0.011 A 
HETATM    8  C   UNL     1      41.088 -14.211   3.365  1.00  0.00    -0.032 A 
HETATM    9  C   UNL     1      40.243 -13.624   4.316  1.00  0.00     0.011 A 
HETATM   10  C   UNL     1      40.777 -12.975   5.436  1.00  0.00     0.030 A 
BRANCH   8  11
HETATM   11  C   UNL     1      40.528 -14.927   2.165  1.00  0.00     0.273 C 
BRANCH  11  12
HETATM   12  N   UNL     1      40.379 -14.024   0.953  1.00  0.00    -0.066 N 
HETATM   13  H   UNL     1      41.332 -13.741   0.696  1.00  0.00     0.280 HD
HETATM   14  C   UNL     1      39.792 -14.761  -0.239  1.00  0.00     0.249 C 
HETATM   15  C   UNL     1      39.781 -13.847  -1.469  1.00  0.00     0.103 C 
HETATM   16  C   UNL     1      39.052 -12.534  -1.174  1.00  0.00     0.017 C 
HETATM   17  C   UNL     1      39.606 -11.852   0.074  1.00  0.00     0.029 C 
HETATM   18  C   UNL     1      39.600 -12.778   1.281  1.00  0.00     0.235 C 
BRANCH  15  19
HETATM   19  C   UNL     1      39.118 -14.602  -2.604  1.00  0.00     0.221 C 
HETATM   20  N   UNL     1      38.589 -15.814  -2.289  1.00  0.00    -0.370 N 
HETATM   21  H   UNL     1      38.113 -16.326  -3.025  1.00  0.00     0.159 HD
HETATM   22  H   UNL     1      38.522 -16.189  -1.352  1.00  0.00     0.159 HD
HETATM   23  O   UNL     1      39.051 -14.154  -3.742  1.00  0.00    -0.273 OA
ENDBRANCH  15  19
ENDBRANCH  11  12
ENDBRANCH   8  11
ENDBRANCH   2   5
BRANCH   1  24
HETATM   24  C   UNL     1      43.819 -10.799   8.228  1.00  0.00     0.175 C 
HETATM   25  N   UNL     1      44.890 -11.132   9.006  1.00  0.00    -0.152 NA
HETATM   26  N   UNL     1      44.743 -10.532  10.176  1.00  0.00     0.011 NA
HETATM   27  N   UNL     1      43.530  -9.909  10.201  1.00  0.00    -0.231 N 
HETATM   28  C   UNL     1      43.017  -9.913   8.922  1.00  0.00     0.174 C 
BRANCH  27  29
HETATM   29  C   UNL     1      43.004  -9.450  11.441  1.00  0.00     0.058 A 
HETATM   30  C   UNL     1      43.666  -8.413  12.117  1.00  0.00     0.073 A 
HETATM   31  C   UNL     1      43.180  -7.959  13.340  1.00  0.00     0.118 A 
HETATM   32  C   UNL     1      42.053  -8.525  13.919  1.00  0.00     0.042 A 
HETATM   33  F   UNL     1      43.812  -6.959  13.968  1.00  0.00    -0.206 F 
HETATM   34  C   UNL     1      41.405  -9.571  13.271  1.00  0.00     0.005 A 
HETATM   35  C   UNL     1      41.880 -10.040  12.039  1.00  0.00     0.031 A 
ENDBRANCH  27  29
BRANCH  28  36
HETATM   36  C   UNL     1      41.912  -9.087   8.447  1.00  0.00     0.436 C 
HETATM   37  F   UNL     1      40.705  -9.677   8.637  1.00  0.00    -0.165 F 
HETATM   38  F   UNL     1      41.838  -7.904   9.106  1.00  0.00    -0.165 F 
HETATM   39  F   UNL     1      42.019  -8.811   7.126  1.00  0.00    -0.165 F 
ENDBRANCH  28  36
ENDBRANCH   1  24
TORSDOF 7
ENDMDL
MODEL 5
REMARK VINA RESULT:      -9.7      3.718     10.646
REMARK  7 active torsions:
REMARK  status: ('A' for Active; 'I' for Inactive)
REMARK    1  A    between atoms: C_6  and  N_7 
REMARK    2  A    between atoms: C_10  and  C_11 
REMARK       I    between atoms: C_11  and  N_12 
REMARK    3  A    between atoms: N_12  and  C_13 
REMARK    4  A    between atoms: C_16  and  C_17 
REMARK    5  A    between atoms: C_17  and  N_18 
REMARK    6  A    between atoms: C_21  and  C_22 
REMARK       I    between atoms: C_22  and  N_23 
REMARK    7  A    between atoms: C_31  and  C_32 
ROOT
HETATM    1  C   UNL     1      44.191 -11.437   7.640  1.00  0.00     0.278 C 
HETATM    2  N   UNL     1      43.493 -12.628   7.720  1.00  0.00    -0.322 N 
HETATM    3  O   UNL     1      44.696 -10.963   6.631  1.00  0.00    -0.265 OA
HETATM    4  H   UNL     1      43.180 -12.886   8.653  1.00  0.00     0.169 HD
ENDROOT
BRANCH   2   5
HETATM    5  C   UNL     1      43.191 -13.513   6.668  1.00  0.00     0.035 A 
HETATM    6  C   UNL     1      43.840 -14.734   6.473  1.00  0.00     0.030 A 
HETATM    7  C   UNL     1      43.494 -15.567   5.404  1.00  0.00     0.011 A 
HETATM    8  C   UNL     1      42.473 -15.205   4.517  1.00  0.00    -0.032 A 
HETATM    9  C   UNL     1      41.830 -13.974   4.702  1.00  0.00     0.011 A 
HETATM   10  C   UNL     1      42.193 -13.135   5.764  1.00  0.00     0.030 A 
BRANCH   8  11
HETATM   11  C   UNL     1      42.081 -16.123   3.390  1.00  0.00     0.273 C 
BRANCH  11  12
HETATM   12  N   UNL     1      43.010 -17.315   3.247  1.00  0.00    -0.066 N 
HETATM   13  H   UNL     1      43.956 -16.925   3.161  1.00  0.00     0.280 HD
HETATM   14  C   UNL     1      42.998 -18.201   4.481  1.00  0.00     0.249 C 
HETATM   15  C   UNL     1      44.041 -19.314   4.340  1.00  0.00     0.103 C 
HETATM   16  C   UNL     1      43.831 -20.107   3.048  1.00  0.00     0.017 C 
HETATM   17  C   UNL     1      43.766 -19.190   1.831  1.00  0.00     0.029 C 
HETATM   18  C   UNL     1      42.718 -18.098   1.993  1.00  0.00     0.235 C 
BRANCH  15  19
HETATM   19  C   UNL     1      43.935 -20.208   5.559  1.00  0.00     0.221 C 
HETATM   20  N   UNL     1      44.461 -21.456   5.434  1.00  0.00    -0.370 N 
HETATM   21  H   UNL     1      44.430 -22.064   6.246  1.00  0.00     0.159 HD
HETATM   22  H   UNL     1      44.992 -21.781   4.637  1.00  0.00     0.159 HD
HETATM   23  O   UNL     1      43.415 -19.839   6.605  1.00  0.00    -0.273 OA
ENDBRANCH  15  19
ENDBRANCH  11  12
ENDBRANCH   8  11
ENDBRANCH   2   5
BRANCH   1  24
HETATM   24  C   UNL     1      44.278 -10.744   8.920  1.00  0.00     0.175 C 
HETATM   25  N   UNL     1      45.367 -10.824   9.739  1.00  0.00    -0.152 NA
HETATM   26  N   UNL     1      45.111 -10.112  10.825  1.00  0.00     0.011 NA
HETATM   27  N   UNL     1      43.822  -9.669  10.766  1.00  0.00    -0.231 N 
HETATM   28  C   UNL     1      43.344  -9.902   9.495  1.00  0.00     0.174 C 
BRANCH  27  29
HETATM   29  C   UNL     1      43.209  -9.141  11.936  1.00  0.00     0.058 A 
HETATM   30  C   UNL     1      42.069  -9.778  12.452  1.00  0.00     0.073 A 
HETATM   31  C   UNL     1      41.442  -9.270  13.586  1.00  0.00     0.118 A 
HETATM   32  C   UNL     1      41.914  -8.126  14.215  1.00  0.00     0.042 A 
HETATM   33  F   UNL     1      40.365  -9.895  14.077  1.00  0.00    -0.206 F 
HETATM   34  C   UNL     1      43.026  -7.471  13.696  1.00  0.00     0.005 A 
HETATM   35  C   UNL     1      43.671  -7.971  12.556  1.00  0.00     0.031 A 
ENDBRANCH  27  29
BRANCH  28  36
HETATM   36  C   UNL     1      42.145  -9.306   8.915  1.00  0.00     0.436 C 
HETATM   37  F   UNL     1      41.830  -9.843   7.710  1.00  0.00    -0.165 F 
HETATM   38  F   UNL     1      41.051  -9.502   9.691  1.00  0.00    -0.165 F 
HETATM   39  F   UNL     1      42.282  -7.971   8.734  1.00  0.00    -0.165 F 
ENDBRANCH  28  36
ENDBRANCH   1  24
TORSDOF 7
ENDMDL
MODEL 6
REMARK VINA RESULT:      -9.5      3.696      5.367
REMARK  7 active torsions:
REMARK  status: ('A' for Active; 'I' for Inactive)
REMARK    1  A    between atoms: C_6  and  N_7 
REMARK    2  A    between atoms: C_10  and  C_11 
REMARK       I    between atoms: C_11  and  N_12 
REMARK    3  A    between atoms: N_12  and  C_13 
REMARK    4  A    between atoms: C_16  and  C_17 
REMARK    5  A    between atoms: C_17  and  N_18 
REMARK    6  A    between atoms: C_21  and  C_22 
REMARK       I    between atoms: C_22  and  N_23 
REMARK    7  A    between atoms: C_31  and  C_32 
ROOT
HETATM    1  C   UNL     1      42.560  -9.532   7.947  1.00  0.00     0.278 C 
HETATM    2  N   UNL     1      42.343 -10.073   9.202  1.00  0.00    -0.322 N 
HETATM    3  O   UNL     1      42.912  -8.385   7.706  1.00  0.00    -0.265 OA
HETATM    4  H   UNL     1      42.011 -11.034   9.209  1.00  0.00     0.169 HD
ENDROOT
BRANCH   2   5
HETATM    5  C   UNL     1      42.513  -9.437  10.446  1.00  0.00     0.035 A 
HETATM    6  C   UNL     1      43.760  -9.149  11.004  1.00  0.00     0.030 A 
HETATM    7  C   UNL     1      43.860  -8.517  12.247  1.00  0.00     0.011 A 
HETATM    8  C   UNL     1      42.710  -8.138  12.952  1.00  0.00    -0.032 A 
HETATM    9  C   UNL     1      41.458  -8.438  12.400  1.00  0.00     0.011 A 
HETATM   10  C   UNL     1      41.364  -9.088  11.162  1.00  0.00     0.030 A 
BRANCH   8  11
HETATM   11  C   UNL     1      42.825  -7.425  14.272  1.00  0.00     0.273 C 
BRANCH  11  12
HETATM   12  N   UNL     1      41.498  -7.310  15.001  1.00  0.00    -0.066 N 
HETATM   13  H   UNL     1      40.911  -8.070  14.637  1.00  0.00     0.280 HD
HETATM   14  C   UNL     1      41.645  -7.532  16.497  1.00  0.00     0.249 C 
HETATM   15  C   UNL     1      40.268  -7.533  17.167  1.00  0.00     0.103 C 
HETATM   16  C   UNL     1      39.493  -6.255  16.839  1.00  0.00     0.017 C 
HETATM   17  C   UNL     1      39.426  -6.010  15.334  1.00  0.00     0.029 C 
HETATM   18  C   UNL     1      40.807  -6.007  14.694  1.00  0.00     0.235 C 
BRANCH  15  19
HETATM   19  C   UNL     1      40.477  -7.682  18.661  1.00  0.00     0.221 C 
HETATM   20  N   UNL     1      40.571  -8.955  19.129  1.00  0.00    -0.370 N 
HETATM   21  H   UNL     1      40.742  -9.080  20.122  1.00  0.00     0.159 HD
HETATM   22  H   UNL     1      40.611  -9.782  18.548  1.00  0.00     0.159 HD
HETATM   23  O   UNL     1      40.565  -6.719  19.413  1.00  0.00    -0.273 OA
ENDBRANCH  15  19
ENDBRANCH  11  12
ENDBRANCH   8  11
ENDBRANCH   2   5
BRANCH   1  24
HETATM   24  C   UNL     1      42.332 -10.490   6.871  1.00  0.00     0.175 C 
HETATM   25  N   UNL     1      41.139 -10.609   6.219  1.00  0.00    -0.152 NA
HETATM   26  N   UNL     1      41.259 -11.583   5.331  1.00  0.00     0.011 NA
HETATM   27  N   UNL     1      42.480 -12.171   5.485  1.00  0.00    -0.231 N 
HETATM   28  C   UNL     1      43.236 -11.380   6.322  1.00  0.00     0.174 C 
BRANCH  27  29
HETATM   29  C   UNL     1      42.737 -13.424   4.863  1.00  0.00     0.058 A 
HETATM   30  C   UNL     1      42.948 -13.464   3.475  1.00  0.00     0.073 A 
HETATM   31  C   UNL     1      43.184 -14.680   2.843  1.00  0.00     0.118 A 
HETATM   32  C   UNL     1      43.200 -15.870   3.557  1.00  0.00     0.042 A 
HETATM   33  F   UNL     1      43.400 -14.703   1.521  1.00  0.00    -0.206 F 
HETATM   34  C   UNL     1      42.965 -15.846   4.928  1.00  0.00     0.005 A 
HETATM   35  C   UNL     1      42.727 -14.629   5.581  1.00  0.00     0.031 A 
ENDBRANCH  27  29
BRANCH  28  36
HETATM   36  C   UNL     1      44.683 -11.465   6.494  1.00  0.00     0.436 C 
HETATM   37  F   UNL     1      45.357 -11.230   5.341  1.00  0.00    -0.165 F 
HETATM   38  F   UNL     1      45.147 -10.543   7.373  1.00  0.00    -0.165 F 
HETATM   39  F   UNL     1      45.068 -12.683   6.942  1.00  0.00    -0.165 F 
ENDBRANCH  28  36
ENDBRANCH   1  24
TORSDOF 7
ENDMDL
MODEL 7
REMARK VINA RESULT:      -9.3      4.111     10.758
REMARK  7 active torsions:
REMARK  status: ('A' for Active; 'I' for Inactive)
REMARK    1  A    between atoms: C_6  and  N_7 
REMARK    2  A    between atoms: C_10  and  C_11 
REMARK       I    between atoms: C_11  and  N_12 
REMARK    3  A    between atoms: N_12  and  C_13 
REMARK    4  A    between atoms: C_16  and  C_17 
REMARK    5  A    between atoms: C_17  and  N_18 
REMARK    6  A    between atoms: C_21  and  C_22 
REMARK       I    between atoms: C_22  and  N_23 
REMARK    7  A    between atoms: C_31  and  C_32 
ROOT
HETATM    1  C   UNL     1      41.748  -9.303   6.836  1.00  0.00     0.278 C 
HETATM    2  N   UNL     1      42.237 -10.593   6.942  1.00  0.00    -0.322 N 
HETATM    3  O   UNL     1      41.043  -8.870   5.935  1.00  0.00    -0.265 OA
HETATM    4  H   UNL     1      42.845 -10.763   7.739  1.00  0.00     0.169 HD
ENDROOT
BRANCH   2   5
HETATM    5  C   UNL     1      42.001 -11.669   6.065  1.00  0.00     0.035 A 
HETATM    6  C   UNL     1      40.818 -12.409   6.049  1.00  0.00     0.030 A 
HETATM    7  C   UNL     1      40.648 -13.470   5.154  1.00  0.00     0.011 A 
HETATM    8  C   UNL     1      41.654 -13.800   4.237  1.00  0.00    -0.032 A 
HETATM    9  C   UNL     1      42.848 -13.068   4.261  1.00  0.00     0.011 A 
HETATM   10  C   UNL     1      43.019 -12.018   5.172  1.00  0.00     0.030 A 
BRANCH   8  11
HETATM   11  C   UNL     1      41.450 -14.920   3.252  1.00  0.00     0.273 C 
BRANCH  11  12
HETATM   12  N   UNL     1      42.524 -15.990   3.340  1.00  0.00    -0.066 N 
HETATM   13  H   UNL     1      43.421 -15.493   3.283  1.00  0.00     0.280 HD
HETATM   14  C   UNL     1      42.497 -16.719   4.673  1.00  0.00     0.249 C 
HETATM   15  C   UNL     1      43.673 -17.695   4.763  1.00  0.00     0.103 C 
HETATM   16  C   UNL     1      43.687 -18.655   3.570  1.00  0.00     0.017 C 
HETATM   17  C   UNL     1      43.633 -17.903   2.244  1.00  0.00     0.029 C 
HETATM   18  C   UNL     1      42.452 -16.945   2.177  1.00  0.00     0.235 C 
BRANCH  15  19
HETATM   19  C   UNL     1      43.555 -18.447   6.073  1.00  0.00     0.221 C 
HETATM   20  N   UNL     1      43.601 -19.804   5.991  1.00  0.00    -0.370 N 
HETATM   21  H   UNL     1      43.555 -20.330   6.858  1.00  0.00     0.159 HD
HETATM   22  H   UNL     1      43.804 -20.325   5.148  1.00  0.00     0.159 HD
HETATM   23  O   UNL     1      43.432 -17.879   7.151  1.00  0.00    -0.273 OA
ENDBRANCH  15  19
ENDBRANCH  11  12
ENDBRANCH   8  11
ENDBRANCH   2   5
BRANCH   1  24
HETATM   24  C   UNL     1      42.152  -8.452   7.949  1.00  0.00     0.175 C 
HETATM   25  N   UNL     1      43.198  -7.578   7.879  1.00  0.00    -0.152 NA
HETATM   26  N   UNL     1      43.316  -6.992   9.059  1.00  0.00     0.011 NA
HETATM   27  N   UNL     1      42.431  -7.563   9.925  1.00  0.00    -0.231 N 
HETATM   28  C   UNL     1      41.567  -8.354   9.198  1.00  0.00     0.174 C 
BRANCH  27  29
HETATM   29  C   UNL     1      42.563  -7.325  11.321  1.00  0.00     0.058 A 
HETATM   30  C   UNL     1      42.245  -6.054  11.826  1.00  0.00     0.073 A 
HETATM   31  C   UNL     1      42.383  -5.792  13.186  1.00  0.00     0.118 A 
HETATM   32  C   UNL     1      42.848  -6.763  14.061  1.00  0.00     0.042 A 
HETATM   33  F   UNL     1      42.062  -4.580  13.658  1.00  0.00    -0.206 F 
HETATM   34  C   UNL     1      43.193  -8.018  13.567  1.00  0.00     0.005 A 
HETATM   35  C   UNL     1      43.058  -8.299  12.201  1.00  0.00     0.031 A 
ENDBRANCH  27  29
BRANCH  28  36
HETATM   36  C   UNL     1      40.293  -8.883   9.675  1.00  0.00     0.436 C 
HETATM   37  F   UNL     1      39.472  -7.911  10.145  1.00  0.00    -0.165 F 
HETATM   38  F   UNL     1      39.594  -9.496   8.689  1.00  0.00    -0.165 F 
HETATM   39  F   UNL     1      40.462  -9.781  10.673  1.00  0.00    -0.165 F 
ENDBRANCH  28  36
ENDBRANCH   1  24
TORSDOF 7
ENDMDL
MODEL 8
REMARK VINA RESULT:      -9.3      3.080      4.240
REMARK  7 active torsions:
REMARK  status: ('A' for Active; 'I' for Inactive)
REMARK    1  A    between atoms: C_6  and  N_7 
REMARK    2  A    between atoms: C_10  and  C_11 
REMARK       I    between atoms: C_11  and  N_12 
REMARK    3  A    between atoms: N_12  and  C_13 
REMARK    4  A    between atoms: C_16  and  C_17 
REMARK    5  A    between atoms: C_17  and  N_18 
REMARK    6  A    between atoms: C_21  and  C_22 
REMARK       I    between atoms: C_22  and  N_23 
REMARK    7  A    between atoms: C_31  and  C_32 
ROOT
HETATM    1  C   UNL     1      44.372 -11.204   7.172  1.00  0.00     0.278 C 
HETATM    2  N   UNL     1      43.320 -10.575   7.814  1.00  0.00    -0.322 N 
HETATM    3  O   UNL     1      45.532 -11.248   7.560  1.00  0.00    -0.265 OA
HETATM    4  H   UNL     1      42.431 -10.605   7.322  1.00  0.00     0.169 HD
ENDROOT
BRANCH   2   5
HETATM    5  C   UNL     1      43.357  -9.894   9.046  1.00  0.00     0.035 A 
HETATM    6  C   UNL     1      43.305  -8.505   9.164  1.00  0.00     0.030 A 
HETATM    7  C   UNL     1      43.348  -7.890  10.420  1.00  0.00     0.011 A 
HETATM    8  C   UNL     1      43.423  -8.657  11.589  1.00  0.00    -0.032 A 
HETATM    9  C   UNL     1      43.490 -10.051  11.472  1.00  0.00     0.011 A 
HETATM   10  C   UNL     1      43.464 -10.661  10.211  1.00  0.00     0.030 A 
BRANCH   8  11
HETATM   11  C   UNL     1      43.433  -7.990  12.939  1.00  0.00     0.273 C 
BRANCH  11  12
HETATM   12  N   UNL     1      42.040  -7.678  13.455  1.00  0.00    -0.066 N 
HETATM   13  H   UNL     1      41.452  -8.471  13.174  1.00  0.00     0.280 HD
HETATM   14  C   UNL     1      41.996  -7.600  14.972  1.00  0.00     0.249 C 
HETATM   15  C   UNL     1      40.553  -7.410  15.448  1.00  0.00     0.103 C 
HETATM   16  C   UNL     1      39.906  -6.194  14.780  1.00  0.00     0.017 C 
HETATM   17  C   UNL     1      40.032  -6.255  13.260  1.00  0.00     0.029 C 
HETATM   18  C   UNL     1      41.476  -6.436  12.814  1.00  0.00     0.235 C 
BRANCH  15  19
HETATM   19  C   UNL     1      40.575  -7.263  16.956  1.00  0.00     0.221 C 
HETATM   20  N   UNL     1      41.271  -8.210  17.640  1.00  0.00    -0.370 N 
HETATM   21  H   UNL     1      41.326  -8.116  18.650  1.00  0.00     0.159 HD
HETATM   22  H   UNL     1      41.841  -8.928  17.213  1.00  0.00     0.159 HD
HETATM   23  O   UNL     1      40.009  -6.345  17.537  1.00  0.00    -0.273 OA
ENDBRANCH  15  19
ENDBRANCH  11  12
ENDBRANCH   8  11
ENDBRANCH   2   5
BRANCH   1  24
HETATM   24  C   UNL     1      43.969 -11.856   5.931  1.00  0.00     0.175 C 
HETATM   25  N   UNL     1      44.112 -11.276   4.704  1.00  0.00    -0.152 NA
HETATM   26  N   UNL     1      43.622 -12.111   3.802  1.00  0.00     0.011 NA
HETATM   27  N   UNL     1      43.059 -13.174   4.446  1.00  0.00    -0.231 N 
HETATM   28  C   UNL     1      43.430 -13.119   5.772  1.00  0.00     0.174 C 
BRANCH  27  29
HETATM   29  C   UNL     1      42.206 -14.056   3.728  1.00  0.00     0.058 A 
HETATM   30  C   UNL     1      42.739 -15.253   3.221  1.00  0.00     0.073 A 
HETATM   31  C   UNL     1      41.927 -16.124   2.500  1.00  0.00     0.118 A 
HETATM   32  C   UNL     1      40.595 -15.827   2.254  1.00  0.00     0.042 A 
HETATM   33  F   UNL     1      42.443 -17.270   2.035  1.00  0.00    -0.206 F 
HETATM   34  C   UNL     1      40.063 -14.631   2.727  1.00  0.00     0.005 A 
HETATM   35  C   UNL     1      40.866 -13.743   3.456  1.00  0.00     0.031 A 
ENDBRANCH  27  29
BRANCH  28  36
HETATM   36  C   UNL     1      43.317 -14.212   6.732  1.00  0.00     0.436 C 
HETATM   37  F   UNL     1      43.485 -13.797   8.012  1.00  0.00    -0.165 F 
HETATM   38  F   UNL     1      42.092 -14.792   6.704  1.00  0.00    -0.165 F 
HETATM   39  F   UNL     1      44.232 -15.182   6.503  1.00  0.00    -0.165 F 
ENDBRANCH  28  36
ENDBRANCH   1  24
TORSDOF 7
ENDMDL
MODEL 9
REMARK VINA RESULT:      -9.3      4.402     11.136
REMARK  7 active torsions:
REMARK  status: ('A' for Active; 'I' for Inactive)
REMARK    1  A    between atoms: C_6  and  N_7 
REMARK    2  A    between atoms: C_10  and  C_11 
REMARK       I    between atoms: C_11  and  N_12 
REMARK    3  A    between atoms: N_12  and  C_13 
REMARK    4  A    between atoms: C_16  and  C_17 
REMARK    5  A    between atoms: C_17  and  N_18 
REMARK    6  A    between atoms: C_21  and  C_22 
REMARK       I    between atoms: C_22  and  N_23 
REMARK    7  A    between atoms: C_31  and  C_32 
ROOT
HETATM    1  C   UNL     1      42.370  -9.354   8.210  1.00  0.00     0.278 C 
HETATM    2  N   UNL     1      41.706 -10.449   7.688  1.00  0.00    -0.322 N 
HETATM    3  O   UNL     1      43.261  -8.719   7.660  1.00  0.00    -0.265 OA
HETATM    4  H   UNL     1      41.022 -10.877   8.307  1.00  0.00     0.169 HD
ENDROOT
BRANCH   2   5
HETATM    5  C   UNL     1      41.888 -11.032   6.420  1.00  0.00     0.035 A 
HETATM    6  C   UNL     1      41.107 -10.723   5.306  1.00  0.00     0.030 A 
HETATM    7  C   UNL     1      41.338 -11.342   4.073  1.00  0.00     0.011 A 
HETATM    8  C   UNL     1      42.375 -12.271   3.923  1.00  0.00    -0.032 A 
HETATM    9  C   UNL     1      43.151 -12.594   5.044  1.00  0.00     0.011 A 
HETATM   10  C   UNL     1      42.903 -11.984   6.280  1.00  0.00     0.030 A 
BRANCH   8  11
HETATM   11  C   UNL     1      42.642 -12.907   2.585  1.00  0.00     0.273 C 
BRANCH  11  12
HETATM   12  N   UNL     1      41.442 -13.659   2.037  1.00  0.00    -0.066 N 
HETATM   13  H   UNL     1      40.674 -13.478   2.693  1.00  0.00     0.280 HD
HETATM   14  C   UNL     1      41.008 -13.132   0.679  1.00  0.00     0.249 C 
HETATM   15  C   UNL     1      39.724 -13.834   0.228  1.00  0.00     0.103 C 
HETATM   16  C   UNL     1      39.892 -15.355   0.240  1.00  0.00     0.017 C 
HETATM   17  C   UNL     1      40.405 -15.853   1.588  1.00  0.00     0.029 C 
HETATM   18  C   UNL     1      41.685 -15.146   2.010  1.00  0.00     0.235 C 
BRANCH  15  19
HETATM   19  C   UNL     1      39.379 -13.329  -1.158  1.00  0.00     0.221 C 
HETATM   20  N   UNL     1      38.118 -13.590  -1.594  1.00  0.00    -0.370 N 
HETATM   21  H   UNL     1      37.853 -13.235  -2.508  1.00  0.00     0.159 HD
HETATM   22  H   UNL     1      37.385 -13.999  -1.030  1.00  0.00     0.159 HD
HETATM   23  O   UNL     1      40.179 -12.714  -1.854  1.00  0.00    -0.273 OA
ENDBRANCH  15  19
ENDBRANCH  11  12
ENDBRANCH   8  11
ENDBRANCH   2   5
BRANCH   1  24
HETATM   24  C   UNL     1      41.897  -8.984   9.539  1.00  0.00     0.175 C 
HETATM   25  N   UNL     1      40.693  -8.378   9.760  1.00  0.00    -0.152 NA
HETATM   26  N   UNL     1      40.587  -8.152  11.059  1.00  0.00     0.011 NA
HETATM   27  N   UNL     1      41.759  -8.499  11.664  1.00  0.00    -0.231 N 
HETATM   28  C   UNL     1      42.525  -9.193  10.753  1.00  0.00     0.174 C 
BRANCH  27  29
HETATM   29  C   UNL     1      42.011  -8.076  12.998  1.00  0.00     0.058 A 
HETATM   30  C   UNL     1      41.139  -8.490  14.018  1.00  0.00     0.073 A 
HETATM   31  C   UNL     1      41.355  -8.075  15.329  1.00  0.00     0.118 A 
HETATM   32  C   UNL     1      42.414  -7.239  15.652  1.00  0.00     0.042 A 
HETATM   33  F   UNL     1      40.525  -8.489  16.295  1.00  0.00    -0.206 F 
HETATM   34  C   UNL     1      43.269  -6.800  14.646  1.00  0.00     0.005 A 
HETATM   35  C   UNL     1      43.067  -7.210  13.321  1.00  0.00     0.031 A 
ENDBRANCH  27  29
BRANCH  28  36
HETATM   36  C   UNL     1      43.692 -10.010  11.070  1.00  0.00     0.436 C 
HETATM   37  F   UNL     1      43.960 -10.926  10.106  1.00  0.00    -0.165 F 
HETATM   38  F   UNL     1      44.820  -9.267  11.180  1.00  0.00    -0.165 F 
HETATM   39  F   UNL     1      43.534 -10.686  12.232  1.00  0.00    -0.165 F 
ENDBRANCH  28  36
ENDBRANCH   1  24
TORSDOF 7
ENDMDL
MODEL 10
REMARK VINA RESULT:      -9.3      7.569      9.949
REMARK  7 active torsions:
REMARK  status: ('A' for Active; 'I' for Inactive)
REMARK    1  A    between atoms: C_6  and  N_7 
REMARK    2  A    between atoms: C_10  and  C_11 
REMARK       I    between atoms: C_11  and  N_12 
REMARK    3  A    between atoms: N_12  and  C_13 
REMARK    4  A    between atoms: C_16  and  C_17 
REMARK    5  A    between atoms: C_17  and  N_18 
REMARK    6  A    between atoms: C_21  and  C_22 
REMARK       I    between atoms: C_22  and  N_23 
REMARK    7  A    between atoms: C_31  and  C_32 
ROOT
HETATM    1  C   UNL     1      40.904 -12.635   1.575  1.00  0.00     0.278 C 
HETATM    2  N   UNL     1      40.906 -12.809   0.203  1.00  0.00    -0.322 N 
HETATM    3  O   UNL     1      40.260 -11.800   2.196  1.00  0.00    -0.265 OA
HETATM    4  H   UNL     1      41.538 -13.527  -0.144  1.00  0.00     0.169 HD
ENDROOT
BRANCH   2   5
HETATM    5  C   UNL     1      40.152 -12.096  -0.749  1.00  0.00     0.035 A 
HETATM    6  C   UNL     1      40.516 -10.842  -1.243  1.00  0.00     0.030 A 
HETATM    7  C   UNL     1      39.720 -10.185  -2.187  1.00  0.00     0.011 A 
HETATM    8  C   UNL     1      38.549 -10.780  -2.674  1.00  0.00    -0.032 A 
HETATM    9  C   UNL     1      38.175 -12.032  -2.169  1.00  0.00     0.011 A 
HETATM   10  C   UNL     1      38.967 -12.678  -1.210  1.00  0.00     0.030 A 
BRANCH   8  11
HETATM   11  C   UNL     1      37.717 -10.083  -3.716  1.00  0.00     0.273 C 
BRANCH  11  12
HETATM   12  N   UNL     1      36.418  -9.525  -3.161  1.00  0.00    -0.066 N 
HETATM   13  H   UNL     1      36.248  -8.651  -3.672  1.00  0.00     0.280 HD
HETATM   14  C   UNL     1      35.238 -10.442  -3.433  1.00  0.00     0.249 C 
HETATM   15  C   UNL     1      33.938  -9.779  -2.970  1.00  0.00     0.103 C 
HETATM   16  C   UNL     1      34.026  -9.358  -1.501  1.00  0.00     0.017 C 
HETATM   17  C   UNL     1      35.262  -8.504  -1.235  1.00  0.00     0.029 C 
HETATM   18  C   UNL     1      36.540  -9.188  -1.698  1.00  0.00     0.235 C 
BRANCH  15  19
HETATM   19  C   UNL     1      32.807 -10.764  -3.194  1.00  0.00     0.221 C 
HETATM   20  N   UNL     1      33.112 -11.869  -3.925  1.00  0.00    -0.370 N 
HETATM   21  H   UNL     1      32.379 -12.558  -4.064  1.00  0.00     0.159 HD
HETATM   22  H   UNL     1      34.041 -12.118  -4.235  1.00  0.00     0.159 HD
HETATM   23  O   UNL     1      31.682 -10.589  -2.742  1.00  0.00    -0.273 OA
ENDBRANCH  15  19
ENDBRANCH  11  12
ENDBRANCH   8  11
ENDBRANCH   2   5
BRANCH   1  24
HETATM   24  C   UNL     1      41.771 -13.582   2.267  1.00  0.00     0.175 C 
HETATM   25  N   UNL     1      43.025 -13.264   2.702  1.00  0.00    -0.152 NA
HETATM   26  N   UNL     1      43.549 -14.347   3.252  1.00  0.00     0.011 NA
HETATM   27  N   UNL     1      42.690 -15.392   3.072  1.00  0.00    -0.231 N 
HETATM   28  C   UNL     1      41.490 -14.889   2.618  1.00  0.00     0.174 C 
BRANCH  27  29
HETATM   29  C   UNL     1      43.145 -16.720   3.301  1.00  0.00     0.058 A 
HETATM   30  C   UNL     1      43.044 -17.661   2.264  1.00  0.00     0.073 A 
HETATM   31  C   UNL     1      43.467 -18.971   2.470  1.00  0.00     0.118 A 
HETATM   32  C   UNL     1      43.976 -19.377   3.696  1.00  0.00     0.042 A 
HETATM   33  F   UNL     1      43.380 -19.855   1.468  1.00  0.00    -0.206 F 
HETATM   34  C   UNL     1      44.055 -18.460   4.740  1.00  0.00     0.005 A 
HETATM   35  C   UNL     1      43.635 -17.136   4.548  1.00  0.00     0.031 A 
ENDBRANCH  27  29
BRANCH  28  36
HETATM   36  C   UNL     1      40.220 -15.607   2.602  1.00  0.00     0.436 C 
HETATM   37  F   UNL     1      40.048 -16.381   3.702  1.00  0.00    -0.165 F 
HETATM   38  F   UNL     1      39.158 -14.764   2.589  1.00  0.00    -0.165 F 
HETATM   39  F   UNL     1      40.110 -16.416   1.522  1.00  0.00    -0.165 F 
ENDBRANCH  28  36
ENDBRANCH   1  24
TORSDOF 7
ENDMDL
