MODEL 1
REMARK VINA RESULT:      -9.5      0.000      0.000
REMARK  5 active torsions:
REMARK  status: ('A' for Active; 'I' for Inactive)
REMARK    1  A    between atoms: C_2  and  C_3 
REMARK    2  A    between atoms: C_14  and  C_17 
REMARK       I    between atoms: C_17  and  N_19 
REMARK    3  A    between atoms: N_19  and  C_20 
REMARK    4  A    between atoms: C_20  and  C_22 
REMARK    5  A    between atoms: C_26  and  O_27 
ROOT
HETATM    1  C   UNL     1      43.450 -16.659   5.500  1.00  0.00     0.162 C 
HETATM    2  O   UNL     1      44.190 -17.892   5.558  1.00  0.00    -0.339 OA
HETATM    3  C   UNL     1      43.980 -18.761   4.524  1.00  0.00     0.098 A 
HETATM    4  C   UNL     1      44.236 -20.105   4.759  1.00  0.00     0.153 A 
HETATM    5  N   UNL     1      44.075 -21.078   3.834  1.00  0.00    -0.270 NA
HETATM    6  C   UNL     1      43.649 -20.680   2.620  1.00  0.00     0.117 A 
HETATM    7  C   UNL     1      43.388 -19.358   2.285  1.00  0.00     0.034 A 
HETATM    8  C   UNL     1      43.565 -18.357   3.249  1.00  0.00     0.011 A 
HETATM    9  C   UNL     1      43.347 -16.925   2.998  1.00  0.00    -0.014 A 
HETATM   10  C   UNL     1      43.194 -16.360   1.724  1.00  0.00     0.014 A 
HETATM   11  C   UNL     1      42.982 -14.984   1.565  1.00  0.00     0.018 A 
HETATM   12  C   UNL     1      42.918 -14.132   2.673  1.00  0.00     0.032 A 
HETATM   13  C   UNL     1      43.088 -14.683   3.947  1.00  0.00     0.027 A 
HETATM   14  C   UNL     1      43.306 -16.067   4.109  1.00  0.00    -0.017 A 
ENDROOT
BRANCH  12  15
HETATM   15  C   UNL     1      42.642 -12.682   2.422  1.00  0.00     0.252 C 
HETATM   16  O   UNL     1      43.316 -11.825   2.984  1.00  0.00    -0.268 OA
HETATM   17  N   UNL     1      41.637 -12.364   1.536  1.00  0.00    -0.349 N 
HETATM   18  H   UNL     1      41.066 -13.073   1.107  1.00  0.00     0.163 HD
BRANCH  17  19
HETATM   19  C   UNL     1      41.347 -10.989   1.157  1.00  0.00     0.114 C 
HETATM   20  C   UNL     1      40.206 -10.422   2.005  1.00  0.00     0.037 C 
BRANCH  19  21
HETATM   21  C   UNL     1      41.114 -10.950  -0.346  1.00  0.00    -0.033 A 
HETATM   22  C   UNL     1      41.229  -9.715  -1.008  1.00  0.00     0.009 A 
HETATM   23  C   UNL     1      41.087  -9.630  -2.392  1.00  0.00     0.003 A 
HETATM   24  C   UNL     1      40.834 -10.781  -3.134  1.00  0.00     0.037 A 
HETATM   25  C   UNL     1      40.717 -12.020  -2.502  1.00  0.00     0.068 A 
HETATM   26  C   UNL     1      40.868 -12.103  -1.115  1.00  0.00     0.046 A 
BRANCH  25  27
HETATM   27  O   UNL     1      40.474 -13.068  -3.348  1.00  0.00    -0.356 OA
HETATM   28  C   UNL     1      39.437 -13.967  -2.977  1.00  0.00     0.210 C 
ENDBRANCH  25  27
ENDBRANCH  19  21
ENDBRANCH  17  19
ENDBRANCH  12  15
BRANCH   1  29
HETATM   29  C   UNL     1      42.080 -16.832   6.182  1.00  0.00     0.033 C 
HETATM   30  C   UNL     1      41.766 -15.695   7.145  1.00  0.00     0.008 C 
ENDBRANCH   1  29
TORSDOF 5
ENDMDL
MODEL 2
REMARK VINA RESULT:      -8.3      1.694      2.205
REMARK  5 active torsions:
REMARK  status: ('A' for Active; 'I' for Inactive)
REMARK    1  A    between atoms: C_2  and  C_3 
REMARK    2  A    between atoms: C_14  and  C_17 
REMARK       I    between atoms: C_17  and  N_19 
REMARK    3  A    between atoms: N_19  and  C_20 
REMARK    4  A    between atoms: C_20  and  C_22 
REMARK    5  A    between atoms: C_26  and  O_27 
ROOT
HETATM    1  C   UNL     1      43.405 -16.315   5.504  1.00  0.00     0.162 C 
HETATM    2  O   UNL     1      44.201 -17.511   5.411  1.00  0.00    -0.339 OA
HETATM    3  C   UNL     1      43.916 -18.333   4.357  1.00  0.00     0.098 A 
HETATM    4  C   UNL     1      44.255 -19.673   4.485  1.00  0.00     0.153 A 
HETATM    5  N   UNL     1      44.036 -20.603   3.529  1.00  0.00    -0.270 NA
HETATM    6  C   UNL     1      43.462 -20.164   2.393  1.00  0.00     0.117 A 
HETATM    7  C   UNL     1      43.107 -18.841   2.165  1.00  0.00     0.034 A 
HETATM    8  C   UNL     1      43.345 -17.884   3.160  1.00  0.00     0.011 A 
HETATM    9  C   UNL     1      43.039 -16.454   3.017  1.00  0.00    -0.014 A 
HETATM   10  C   UNL     1      42.722 -15.831   1.801  1.00  0.00     0.014 A 
HETATM   11  C   UNL     1      42.433 -14.462   1.745  1.00  0.00     0.018 A 
HETATM   12  C   UNL     1      42.455 -13.673   2.900  1.00  0.00     0.032 A 
HETATM   13  C   UNL     1      42.788 -14.280   4.115  1.00  0.00     0.027 A 
HETATM   14  C   UNL     1      43.083 -15.658   4.173  1.00  0.00    -0.017 A 
ENDROOT
BRANCH  12  15
HETATM   15  C   UNL     1      42.089 -12.227   2.765  1.00  0.00     0.252 C 
HETATM   16  O   UNL     1      42.948 -11.405   2.459  1.00  0.00    -0.268 OA
HETATM   17  N   UNL     1      40.774 -11.876   2.970  1.00  0.00    -0.349 N 
HETATM   18  H   UNL     1      40.084 -12.551   3.254  1.00  0.00     0.163 HD
BRANCH  17  19
HETATM   19  C   UNL     1      40.298 -10.514   2.778  1.00  0.00     0.114 C 
HETATM   20  C   UNL     1      40.030  -9.838   4.124  1.00  0.00     0.037 C 
BRANCH  19  21
HETATM   21  C   UNL     1      39.109 -10.556   1.829  1.00  0.00    -0.033 A 
HETATM   22  C   UNL     1      38.141  -9.540   1.926  1.00  0.00     0.009 A 
HETATM   23  C   UNL     1      37.064  -9.493   1.042  1.00  0.00     0.003 A 
HETATM   24  C   UNL     1      36.943 -10.459   0.047  1.00  0.00     0.037 A 
HETATM   25  C   UNL     1      37.891 -11.477  -0.073  1.00  0.00     0.068 A 
HETATM   26  C   UNL     1      38.975 -11.516   0.809  1.00  0.00     0.046 A 
BRANCH  25  27
HETATM   27  O   UNL     1      37.655 -12.354  -1.096  1.00  0.00    -0.356 OA
HETATM   28  C   UNL     1      38.659 -12.459  -2.099  1.00  0.00     0.210 C 
ENDBRANCH  25  27
ENDBRANCH  19  21
ENDBRANCH  17  19
ENDBRANCH  12  15
BRANCH   1  29
HETATM   29  C   UNL     1      42.128 -16.591   6.318  1.00  0.00     0.033 C 
HETATM   30  C   UNL     1      40.862 -16.346   5.508  1.00  0.00     0.008 C 
ENDBRANCH   1  29
TORSDOF 5
ENDMDL
MODEL 3
REMARK VINA RESULT:      -8.3      4.077      6.826
REMARK  5 active torsions:
REMARK  status: ('A' for Active; 'I' for Inactive)
REMARK    1  A    between atoms: C_2  and  C_3 
REMARK    2  A    between atoms: C_14  and  C_17 
REMARK       I    between atoms: C_17  and  N_19 
REMARK    3  A    between atoms: N_19  and  C_20 
REMARK    4  A    between atoms: C_20  and  C_22 
REMARK    5  A    between atoms: C_26  and  O_27 
ROOT
HETATM    1  C   UNL     1      42.348 -16.762   2.427  1.00  0.00     0.162 C 
HETATM    2  O   UNL     1      42.320 -18.171   2.132  1.00  0.00    -0.339 OA
HETATM    3  C   UNL     1      43.014 -18.972   2.996  1.00  0.00     0.098 A 
HETATM    4  C   UNL     1      43.446 -20.202   2.516  1.00  0.00     0.153 A 
HETATM    5  N   UNL     1      44.141 -21.098   3.251  1.00  0.00    -0.270 NA
HETATM    6  C   UNL     1      44.402 -20.747   4.525  1.00  0.00     0.117 A 
HETATM    7  C   UNL     1      43.994 -19.551   5.099  1.00  0.00     0.034 A 
HETATM    8  C   UNL     1      43.268 -18.632   4.330  1.00  0.00     0.011 A 
HETATM    9  C   UNL     1      42.759 -17.351   4.840  1.00  0.00    -0.014 A 
HETATM   10  C   UNL     1      42.706 -17.006   6.198  1.00  0.00     0.014 A 
HETATM   11  C   UNL     1      42.215 -15.760   6.608  1.00  0.00     0.018 A 
HETATM   12  C   UNL     1      41.760 -14.822   5.675  1.00  0.00     0.032 A 
HETATM   13  C   UNL     1      41.792 -15.163   4.320  1.00  0.00     0.027 A 
HETATM   14  C   UNL     1      42.282 -16.419   3.905  1.00  0.00    -0.017 A 
ENDROOT
BRANCH  12  15
HETATM   15  C   UNL     1      41.294 -13.495   6.190  1.00  0.00     0.252 C 
HETATM   16  O   UNL     1      40.144 -13.368   6.600  1.00  0.00    -0.268 OA
HETATM   17  N   UNL     1      42.199 -12.458   6.203  1.00  0.00    -0.349 N 
HETATM   18  H   UNL     1      43.129 -12.563   5.833  1.00  0.00     0.163 HD
BRANCH  17  19
HETATM   19  C   UNL     1      41.873 -11.155   6.764  1.00  0.00     0.114 C 
HETATM   20  C   UNL     1      41.154 -10.285   5.730  1.00  0.00     0.037 C 
BRANCH  19  21
HETATM   21  C   UNL     1      43.148 -10.553   7.338  1.00  0.00    -0.033 A 
HETATM   22  C   UNL     1      44.308 -11.346   7.365  1.00  0.00     0.009 A 
HETATM   23  C   UNL     1      45.518 -10.827   7.821  1.00  0.00     0.003 A 
HETATM   24  C   UNL     1      45.585  -9.505   8.253  1.00  0.00     0.037 A 
HETATM   25  C   UNL     1      44.448  -8.694   8.235  1.00  0.00     0.068 A 
HETATM   26  C   UNL     1      43.238  -9.216   7.768  1.00  0.00     0.046 A 
BRANCH  25  27
HETATM   27  O   UNL     1      44.655  -7.417   8.680  1.00  0.00    -0.356 OA
HETATM   28  C   UNL     1      43.527  -6.728   9.206  1.00  0.00     0.210 C 
ENDBRANCH  25  27
ENDBRANCH  19  21
ENDBRANCH  17  19
ENDBRANCH  12  15
BRANCH   1  29
HETATM   29  C   UNL     1      43.565 -16.105   1.750  1.00  0.00     0.033 C 
HETATM   30  C   UNL     1      43.434 -14.589   1.672  1.00  0.00     0.008 C 
ENDBRANCH   1  29
TORSDOF 5
ENDMDL
MODEL 4
REMARK VINA RESULT:      -8.3      4.478      8.671
REMARK  5 active torsions:
REMARK  status: ('A' for Active; 'I' for Inactive)
REMARK    1  A    between atoms: C_2  and  C_3 
REMARK    2  A    between atoms: C_14  and  C_17 
REMARK       I    between atoms: C_17  and  N_19 
REMARK    3  A    between atoms: N_19  and  C_20 
REMARK    4  A    between atoms: C_20  and  C_22 
REMARK    5  A    between atoms: C_26  and  O_27 
ROOT
HETATM    1  C   UNL     1      44.510 -11.294   7.681  1.00  0.00     0.162 C 
HETATM    2  O   UNL     1      44.073 -10.725   8.929  1.00  0.00    -0.339 OA
HETATM    3  C   UNL     1      43.148  -9.723   8.833  1.00  0.00     0.098 A 
HETATM    4  C   UNL     1      43.073  -8.822   9.887  1.00  0.00     0.153 A 
HETATM    5  N   UNL     1      42.209  -7.784   9.933  1.00  0.00    -0.270 NA
HETATM    6  C   UNL     1      41.380  -7.652   8.880  1.00  0.00     0.117 A 
HETATM    7  C   UNL     1      41.366  -8.514   7.791  1.00  0.00     0.034 A 
HETATM    8  C   UNL     1      42.261  -9.592   7.757  1.00  0.00     0.011 A 
HETATM    9  C   UNL     1      42.315 -10.583   6.673  1.00  0.00    -0.014 A 
HETATM   10  C   UNL     1      41.330 -10.729   5.686  1.00  0.00     0.014 A 
HETATM   11  C   UNL     1      41.455 -11.694   4.677  1.00  0.00     0.018 A 
HETATM   12  C   UNL     1      42.567 -12.541   4.625  1.00  0.00     0.032 A 
HETATM   13  C   UNL     1      43.547 -12.415   5.615  1.00  0.00     0.027 A 
HETATM   14  C   UNL     1      43.420 -11.448   6.634  1.00  0.00    -0.017 A 
ENDROOT
BRANCH  12  15
HETATM   15  C   UNL     1      42.651 -13.514   3.489  1.00  0.00     0.252 C 
HETATM   16  O   UNL     1      43.497 -13.361   2.615  1.00  0.00    -0.268 OA
HETATM   17  N   UNL     1      41.772 -14.573   3.486  1.00  0.00    -0.349 N 
HETATM   18  H   UNL     1      41.058 -14.671   4.189  1.00  0.00     0.163 HD
BRANCH  17  19
HETATM   19  C   UNL     1      41.827 -15.621   2.477  1.00  0.00     0.114 C 
HETATM   20  C   UNL     1      40.430 -15.922   1.931  1.00  0.00     0.037 C 
BRANCH  19  21
HETATM   21  C   UNL     1      42.558 -16.815   3.072  1.00  0.00    -0.033 A 
HETATM   22  C   UNL     1      43.040 -17.806   2.199  1.00  0.00     0.009 A 
HETATM   23  C   UNL     1      43.771 -18.890   2.681  1.00  0.00     0.003 A 
HETATM   24  C   UNL     1      44.034 -18.995   4.045  1.00  0.00     0.037 A 
HETATM   25  C   UNL     1      43.569 -18.024   4.934  1.00  0.00     0.068 A 
HETATM   26  C   UNL     1      42.844 -16.934   4.445  1.00  0.00     0.046 A 
BRANCH  25  27
HETATM   27  O   UNL     1      43.903 -18.246   6.242  1.00  0.00    -0.356 OA
HETATM   28  C   UNL     1      43.509 -17.256   7.184  1.00  0.00     0.210 C 
ENDBRANCH  25  27
ENDBRANCH  19  21
ENDBRANCH  17  19
ENDBRANCH  12  15
BRANCH   1  29
HETATM   29  C   UNL     1      45.711 -10.504   7.131  1.00  0.00     0.033 C 
HETATM   30  C   UNL     1      46.324  -9.581   8.176  1.00  0.00     0.008 C 
ENDBRANCH   1  29
TORSDOF 5
ENDMDL
MODEL 5
REMARK VINA RESULT:      -8.2      2.622      9.044
REMARK  5 active torsions:
REMARK  status: ('A' for Active; 'I' for Inactive)
REMARK    1  A    between atoms: C_2  and  C_3 
REMARK    2  A    between atoms: C_14  and  C_17 
REMARK       I    between atoms: C_17  and  N_19 
REMARK    3  A    between atoms: N_19  and  C_20 
REMARK    4  A    between atoms: C_20  and  C_22 
REMARK    5  A    between atoms: C_26  and  O_27 
ROOT
HETATM    1  C   UNL     1      40.056 -13.214  -0.862  1.00  0.00     0.162 C 
HETATM    2  O   UNL     1      39.815 -12.178  -1.832  1.00  0.00    -0.339 OA
HETATM    3  C   UNL     1      38.696 -11.420  -1.625  1.00  0.00     0.098 A 
HETATM    4  C   UNL     1      38.143 -10.787  -2.730  1.00  0.00     0.153 A 
HETATM    5  N   UNL     1      37.040 -10.006  -2.681  1.00  0.00    -0.270 NA
HETATM    6  C   UNL     1      36.478  -9.848  -1.467  1.00  0.00     0.117 A 
HETATM    7  C   UNL     1      36.971 -10.422  -0.303  1.00  0.00     0.034 A 
HETATM    8  C   UNL     1      38.119 -11.224  -0.365  1.00  0.00     0.011 A 
HETATM    9  C   UNL     1      38.745 -11.856   0.805  1.00  0.00    -0.014 A 
HETATM   10  C   UNL     1      38.440 -11.535   2.135  1.00  0.00     0.014 A 
HETATM   11  C   UNL     1      39.074 -12.189   3.199  1.00  0.00     0.018 A 
HETATM   12  C   UNL     1      40.033 -13.181   2.967  1.00  0.00     0.032 A 
HETATM   13  C   UNL     1      40.358 -13.495   1.644  1.00  0.00     0.027 A 
HETATM   14  C   UNL     1      39.724 -12.835   0.571  1.00  0.00    -0.017 A 
ENDROOT
BRANCH  12  15
HETATM   15  C   UNL     1      40.632 -13.865   4.157  1.00  0.00     0.252 C 
HETATM   16  O   UNL     1      40.077 -13.791   5.249  1.00  0.00    -0.268 OA
HETATM   17  N   UNL     1      41.791 -14.583   3.968  1.00  0.00    -0.349 N 
HETATM   18  H   UNL     1      42.258 -14.610   3.077  1.00  0.00     0.163 HD
BRANCH  17  19
HETATM   19  C   UNL     1      42.405 -15.356   5.038  1.00  0.00     0.114 C 
HETATM   20  C   UNL     1      43.469 -14.528   5.763  1.00  0.00     0.037 C 
BRANCH  19  21
HETATM   21  C   UNL     1      42.900 -16.670   4.452  1.00  0.00    -0.033 A 
HETATM   22  C   UNL     1      42.882 -16.826   3.055  1.00  0.00     0.009 A 
HETATM   23  C   UNL     1      43.382 -17.983   2.459  1.00  0.00     0.003 A 
HETATM   24  C   UNL     1      43.910 -18.997   3.253  1.00  0.00     0.037 A 
HETATM   25  C   UNL     1      43.943 -18.867   4.642  1.00  0.00     0.068 A 
HETATM   26  C   UNL     1      43.449 -17.701   5.236  1.00  0.00     0.046 A 
BRANCH  25  27
HETATM   27  O   UNL     1      44.493 -19.933   5.299  1.00  0.00    -0.356 OA
HETATM   28  C   UNL     1      43.876 -21.199   5.103  1.00  0.00     0.210 C 
ENDBRANCH  25  27
ENDBRANCH  19  21
ENDBRANCH  17  19
ENDBRANCH  12  15
BRANCH   1  29
HETATM   29  C   UNL     1      39.339 -14.509  -1.283  1.00  0.00     0.033 C 
HETATM   30  C   UNL     1      39.164 -14.609  -2.792  1.00  0.00     0.008 C 
ENDBRANCH   1  29
TORSDOF 5
ENDMDL
MODEL 6
REMARK VINA RESULT:      -8.1      7.133     10.765
REMARK  5 active torsions:
REMARK  status: ('A' for Active; 'I' for Inactive)
REMARK    1  A    between atoms: C_2  and  C_3 
REMARK    2  A    between atoms: C_14  and  C_17 
REMARK       I    between atoms: C_17  and  N_19 
REMARK    3  A    between atoms: N_19  and  C_20 
REMARK    4  A    between atoms: C_20  and  C_22 
REMARK    5  A    between atoms: C_26  and  O_27 
ROOT
HETATM    1  C   UNL     1      40.780  -8.413  10.272  1.00  0.00     0.162 C 
HETATM    2  O   UNL     1      40.614  -7.254  11.110  1.00  0.00    -0.339 OA
HETATM    3  C   UNL     1      41.379  -7.225  12.242  1.00  0.00     0.098 A 
HETATM    4  C   UNL     1      40.923  -6.448  13.299  1.00  0.00     0.153 A 
HETATM    5  N   UNL     1      41.571  -6.322  14.478  1.00  0.00    -0.270 NA
HETATM    6  C   UNL     1      42.731  -6.997  14.595  1.00  0.00     0.117 A 
HETATM    7  C   UNL     1      43.276  -7.781  13.587  1.00  0.00     0.034 A 
HETATM    8  C   UNL     1      42.600  -7.899  12.366  1.00  0.00     0.011 A 
HETATM    9  C   UNL     1      43.097  -8.676  11.222  1.00  0.00    -0.014 A 
HETATM   10  C   UNL     1      44.404  -9.171  11.111  1.00  0.00     0.014 A 
HETATM   11  C   UNL     1      44.803  -9.912   9.990  1.00  0.00     0.018 A 
HETATM   12  C   UNL     1      43.909 -10.178   8.947  1.00  0.00     0.032 A 
HETATM   13  C   UNL     1      42.609  -9.673   9.040  1.00  0.00     0.027 A 
HETATM   14  C   UNL     1      42.207  -8.923  10.165  1.00  0.00    -0.017 A 
ENDROOT
BRANCH  12  15
HETATM   15  C   UNL     1      44.398 -11.016   7.806  1.00  0.00     0.252 C 
HETATM   16  O   UNL     1      45.602 -11.130   7.604  1.00  0.00    -0.268 OA
HETATM   17  N   UNL     1      43.457 -11.655   7.031  1.00  0.00    -0.349 N 
HETATM   18  H   UNL     1      42.470 -11.528   7.183  1.00  0.00     0.163 HD
BRANCH  17  19
HETATM   19  C   UNL     1      43.829 -12.561   5.954  1.00  0.00     0.114 C 
HETATM   20  C   UNL     1      43.600 -11.906   4.590  1.00  0.00     0.037 C 
BRANCH  19  21
HETATM   21  C   UNL     1      43.096 -13.878   6.167  1.00  0.00    -0.033 A 
HETATM   22  C   UNL     1      43.299 -14.567   7.376  1.00  0.00     0.009 A 
HETATM   23  C   UNL     1      42.607 -15.745   7.651  1.00  0.00     0.003 A 
HETATM   24  C   UNL     1      41.699 -16.248   6.723  1.00  0.00     0.037 A 
HETATM   25  C   UNL     1      41.477 -15.582   5.516  1.00  0.00     0.068 A 
HETATM   26  C   UNL     1      42.166 -14.396   5.247  1.00  0.00     0.046 A 
BRANCH  25  27
HETATM   27  O   UNL     1      40.556 -16.180   4.700  1.00  0.00    -0.356 OA
HETATM   28  C   UNL     1      40.658 -15.909   3.307  1.00  0.00     0.210 C 
ENDBRANCH  25  27
ENDBRANCH  19  21
ENDBRANCH  17  19
ENDBRANCH  12  15
BRANCH   1  29
HETATM   29  C   UNL     1      39.816  -9.528  10.716  1.00  0.00     0.033 C 
HETATM   30  C   UNL     1      38.939 -10.024   9.574  1.00  0.00     0.008 C 
ENDBRANCH   1  29
TORSDOF 5
ENDMDL
MODEL 7
REMARK VINA RESULT:      -8.0      2.295      9.044
REMARK  5 active torsions:
REMARK  status: ('A' for Active; 'I' for Inactive)
REMARK    1  A    between atoms: C_2  and  C_3 
REMARK    2  A    between atoms: C_14  and  C_17 
REMARK       I    between atoms: C_17  and  N_19 
REMARK    3  A    between atoms: N_19  and  C_20 
REMARK    4  A    between atoms: C_20  and  C_22 
REMARK    5  A    between atoms: C_26  and  O_27 
ROOT
HETATM    1  C   UNL     1      39.781 -12.501  -2.153  1.00  0.00     0.162 C 
HETATM    2  O   UNL     1      40.476 -11.608  -3.043  1.00  0.00    -0.339 OA
HETATM    3  C   UNL     1      40.895 -10.429  -2.493  1.00  0.00     0.098 A 
HETATM    4  C   UNL     1      41.094  -9.360  -3.356  1.00  0.00     0.153 A 
HETATM    5  N   UNL     1      41.506  -8.135  -2.960  1.00  0.00    -0.270 NA
HETATM    6  C   UNL     1      41.738  -7.983  -1.641  1.00  0.00     0.117 A 
HETATM    7  C   UNL     1      41.587  -8.999  -0.706  1.00  0.00     0.034 A 
HETATM    8  C   UNL     1      41.166 -10.266  -1.129  1.00  0.00     0.011 A 
HETATM    9  C   UNL     1      41.002 -11.420  -0.234  1.00  0.00    -0.014 A 
HETATM   10  C   UNL     1      41.485 -11.476   1.081  1.00  0.00     0.014 A 
HETATM   11  C   UNL     1      41.282 -12.610   1.878  1.00  0.00     0.018 A 
HETATM   12  C   UNL     1      40.593 -13.723   1.384  1.00  0.00     0.032 A 
HETATM   13  C   UNL     1      40.123 -13.685   0.067  1.00  0.00     0.027 A 
HETATM   14  C   UNL     1      40.331 -12.546  -0.738  1.00  0.00    -0.017 A 
ENDROOT
BRANCH  12  15
HETATM   15  C   UNL     1      40.376 -14.878   2.313  1.00  0.00     0.252 C 
HETATM   16  O   UNL     1      39.705 -15.838   1.948  1.00  0.00    -0.268 OA
HETATM   17  N   UNL     1      40.971 -14.823   3.553  1.00  0.00    -0.349 N 
HETATM   18  H   UNL     1      41.491 -14.017   3.856  1.00  0.00     0.163 HD
BRANCH  17  19
HETATM   19  C   UNL     1      40.896 -15.930   4.496  1.00  0.00     0.114 C 
HETATM   20  C   UNL     1      40.455 -15.438   5.876  1.00  0.00     0.037 C 
BRANCH  19  21
HETATM   21  C   UNL     1      42.226 -16.668   4.470  1.00  0.00    -0.033 A 
HETATM   22  C   UNL     1      43.127 -16.460   5.529  1.00  0.00     0.009 A 
HETATM   23  C   UNL     1      44.333 -17.156   5.589  1.00  0.00     0.003 A 
HETATM   24  C   UNL     1      44.653 -18.073   4.592  1.00  0.00     0.037 A 
HETATM   25  C   UNL     1      43.776 -18.301   3.530  1.00  0.00     0.068 A 
HETATM   26  C   UNL     1      42.563 -17.608   3.478  1.00  0.00     0.046 A 
BRANCH  25  27
HETATM   27  O   UNL     1      44.210 -19.231   2.625  1.00  0.00    -0.356 OA
HETATM   28  C   UNL     1      43.225 -20.087   2.059  1.00  0.00     0.210 C 
ENDBRANCH  25  27
ENDBRANCH  19  21
ENDBRANCH  17  19
ENDBRANCH  12  15
BRANCH   1  29
HETATM   29  C   UNL     1      38.274 -12.188  -2.162  1.00  0.00     0.033 C 
HETATM   30  C   UNL     1      37.441 -13.369  -2.643  1.00  0.00     0.008 C 
ENDBRANCH   1  29
TORSDOF 5
ENDMDL
MODEL 8
REMARK VINA RESULT:      -7.9      5.311      7.941
REMARK  5 active torsions:
REMARK  status: ('A' for Active; 'I' for Inactive)
REMARK    1  A    between atoms: C_2  and  C_3 
REMARK    2  A    between atoms: C_14  and  C_17 
REMARK       I    between atoms: C_17  and  N_19 
REMARK    3  A    between atoms: N_19  and  C_20 
REMARK    4  A    between atoms: C_20  and  C_22 
REMARK    5  A    between atoms: C_26  and  O_27 
ROOT
HETATM    1  C   UNL     1      43.390 -15.825   5.435  1.00  0.00     0.162 C 
HETATM    2  O   UNL     1      43.136 -16.311   4.104  1.00  0.00    -0.339 OA
HETATM    3  C   UNL     1      42.075 -15.742   3.455  1.00  0.00     0.098 A 
HETATM    4  C   UNL     1      41.481 -16.479   2.439  1.00  0.00     0.153 A 
HETATM    5  N   UNL     1      40.426 -16.048   1.712  1.00  0.00    -0.270 NA
HETATM    6  C   UNL     1      39.958 -14.821   2.011  1.00  0.00     0.117 A 
HETATM    7  C   UNL     1      40.500 -14.003   2.995  1.00  0.00     0.034 A 
HETATM    8  C   UNL     1      41.597 -14.457   3.738  1.00  0.00     0.011 A 
HETATM    9  C   UNL     1      42.269 -13.668   4.780  1.00  0.00    -0.014 A 
HETATM   10  C   UNL     1      42.073 -12.294   4.980  1.00  0.00     0.014 A 
HETATM   11  C   UNL     1      42.744 -11.610   6.002  1.00  0.00     0.018 A 
HETATM   12  C   UNL     1      43.633 -12.277   6.853  1.00  0.00     0.032 A 
HETATM   13  C   UNL     1      43.848 -13.643   6.650  1.00  0.00     0.027 A 
HETATM   14  C   UNL     1      43.177 -14.333   5.619  1.00  0.00    -0.017 A 
ENDROOT
BRANCH  12  15
HETATM   15  C   UNL     1      44.275 -11.485   7.950  1.00  0.00     0.252 C 
HETATM   16  O   UNL     1      45.490 -11.312   7.947  1.00  0.00    -0.268 OA
HETATM   17  N   UNL     1      43.457 -10.955   8.922  1.00  0.00    -0.349 N 
HETATM   18  H   UNL     1      42.467 -11.132   8.934  1.00  0.00     0.163 HD
BRANCH  17  19
HETATM   19  C   UNL     1      43.971 -10.098   9.981  1.00  0.00     0.114 C 
HETATM   20  C   UNL     1      43.716 -10.723  11.355  1.00  0.00     0.037 C 
BRANCH  19  21
HETATM   21  C   UNL     1      43.390  -8.705   9.789  1.00  0.00    -0.033 A 
HETATM   22  C   UNL     1      43.134  -7.924  10.930  1.00  0.00     0.009 A 
HETATM   23  C   UNL     1      42.662  -6.619  10.811  1.00  0.00     0.003 A 
HETATM   24  C   UNL     1      42.442  -6.074   9.548  1.00  0.00     0.037 A 
HETATM   25  C   UNL     1      42.690  -6.827   8.399  1.00  0.00     0.068 A 
HETATM   26  C   UNL     1      43.173  -8.133   8.522  1.00  0.00     0.046 A 
BRANCH  25  27
HETATM   27  O   UNL     1      42.439  -6.169   7.225  1.00  0.00    -0.356 OA
HETATM   28  C   UNL     1      41.163  -6.376   6.632  1.00  0.00     0.210 C 
ENDBRANCH  25  27
ENDBRANCH  19  21
ENDBRANCH  17  19
ENDBRANCH  12  15
BRANCH   1  29
HETATM   29  C   UNL     1      42.579 -16.640   6.458  1.00  0.00     0.033 C 
HETATM   30  C   UNL     1      41.286 -15.942   6.860  1.00  0.00     0.008 C 
ENDBRANCH   1  29
TORSDOF 5
ENDMDL
MODEL 9
REMARK VINA RESULT:      -7.8      5.082      8.790
REMARK  5 active torsions:
REMARK  status: ('A' for Active; 'I' for Inactive)
REMARK    1  A    between atoms: C_2  and  C_3 
REMARK    2  A    between atoms: C_14  and  C_17 
REMARK       I    between atoms: C_17  and  N_19 
REMARK    3  A    between atoms: N_19  and  C_20 
REMARK    4  A    between atoms: C_20  and  C_22 
REMARK    5  A    between atoms: C_26  and  O_27 
ROOT
HETATM    1  C   UNL     1      41.168  -8.884   7.650  1.00  0.00     0.162 C 
HETATM    2  O   UNL     1      41.360  -7.991   8.763  1.00  0.00    -0.339 OA
HETATM    3  C   UNL     1      42.083  -8.493   9.809  1.00  0.00     0.098 A 
HETATM    4  C   UNL     1      41.879  -7.920  11.057  1.00  0.00     0.153 A 
HETATM    5  N   UNL     1      42.519  -8.309  12.182  1.00  0.00    -0.270 NA
HETATM    6  C   UNL     1      43.410  -9.310  12.043  1.00  0.00     0.117 A 
HETATM    7  C   UNL     1      43.697  -9.930  10.834  1.00  0.00     0.034 A 
HETATM    8  C   UNL     1      43.032  -9.513   9.673  1.00  0.00     0.011 A 
HETATM    9  C   UNL     1      43.277 -10.076   8.337  1.00  0.00    -0.014 A 
HETATM   10  C   UNL     1      44.366 -10.897   8.013  1.00  0.00     0.014 A 
HETATM   11  C   UNL     1      44.528 -11.403   6.717  1.00  0.00     0.018 A 
HETATM   12  C   UNL     1      43.609 -11.103   5.706  1.00  0.00     0.032 A 
HETATM   13  C   UNL     1      42.529 -10.270   6.014  1.00  0.00     0.027 A 
HETATM   14  C   UNL     1      42.367  -9.756   7.318  1.00  0.00    -0.017 A 
ENDROOT
BRANCH  12  15
HETATM   15  C   UNL     1      43.827 -11.720   4.359  1.00  0.00     0.252 C 
HETATM   16  O   UNL     1      44.881 -11.528   3.762  1.00  0.00    -0.268 OA
HETATM   17  N   UNL     1      42.824 -12.511   3.846  1.00  0.00    -0.349 N 
HETATM   18  H   UNL     1      41.948 -12.634   4.327  1.00  0.00     0.163 HD
BRANCH  17  19
HETATM   19  C   UNL     1      42.970 -13.227   2.587  1.00  0.00     0.114 C 
HETATM   20  C   UNL     1      41.899 -12.788   1.586  1.00  0.00     0.037 C 
BRANCH  19  21
HETATM   21  C   UNL     1      42.999 -14.718   2.889  1.00  0.00    -0.033 A 
HETATM   22  C   UNL     1      43.242 -15.609   1.829  1.00  0.00     0.009 A 
HETATM   23  C   UNL     1      43.341 -16.981   2.057  1.00  0.00     0.003 A 
HETATM   24  C   UNL     1      43.203 -17.479   3.350  1.00  0.00     0.037 A 
HETATM   25  C   UNL     1      42.963 -16.616   4.421  1.00  0.00     0.068 A 
HETATM   26  C   UNL     1      42.873 -15.240   4.189  1.00  0.00     0.046 A 
BRANCH  25  27
HETATM   27  O   UNL     1      42.854 -17.235   5.636  1.00  0.00    -0.356 OA
HETATM   28  C   UNL     1      42.208 -16.508   6.674  1.00  0.00     0.210 C 
ENDBRANCH  25  27
ENDBRANCH  19  21
ENDBRANCH  17  19
ENDBRANCH  12  15
BRANCH   1  29
HETATM   29  C   UNL     1      39.900  -9.730   7.865  1.00  0.00     0.033 C 
HETATM   30  C   UNL     1      39.128  -9.955   6.571  1.00  0.00     0.008 C 
ENDBRANCH   1  29
TORSDOF 5
ENDMDL
MODEL 10
REMARK VINA RESULT:      -7.8      5.902      8.851
REMARK  5 active torsions:
REMARK  status: ('A' for Active; 'I' for Inactive)
REMARK    1  A    between atoms: C_2  and  C_3 
REMARK    2  A    between atoms: C_14  and  C_17 
REMARK       I    between atoms: C_17  and  N_19 
REMARK    3  A    between atoms: N_19  and  C_20 
REMARK    4  A    between atoms: C_20  and  C_22 
REMARK    5  A    between atoms: C_26  and  O_27 
ROOT
HETATM    1  C   UNL     1      42.540 -15.102   5.737  1.00  0.00     0.162 C 
HETATM    2  O   UNL     1      42.555 -15.720   4.437  1.00  0.00    -0.339 OA
HETATM    3  C   UNL     1      42.249 -14.901   3.386  1.00  0.00     0.098 A 
HETATM    4  C   UNL     1      41.758 -15.500   2.233  1.00  0.00     0.153 A 
HETATM    5  N   UNL     1      41.414 -14.820   1.117  1.00  0.00    -0.270 NA
HETATM    6  C   UNL     1      41.582 -13.485   1.157  1.00  0.00     0.117 A 
HETATM    7  C   UNL     1      42.086 -12.800   2.255  1.00  0.00     0.034 A 
HETATM    8  C   UNL     1      42.446 -13.515   3.405  1.00  0.00     0.011 A 
HETATM    9  C   UNL     1      43.016 -12.900   4.612  1.00  0.00    -0.014 A 
HETATM   10  C   UNL     1      43.508 -11.588   4.674  1.00  0.00     0.014 A 
HETATM   11  C   UNL     1      44.030 -11.068   5.865  1.00  0.00     0.018 A 
HETATM   12  C   UNL     1      44.079 -11.843   7.029  1.00  0.00     0.032 A 
HETATM   13  C   UNL     1      43.608 -13.158   6.973  1.00  0.00     0.027 A 
HETATM   14  C   UNL     1      43.086 -13.685   5.774  1.00  0.00    -0.017 A 
ENDROOT
BRANCH  12  15
HETATM   15  C   UNL     1      44.609 -11.199   8.274  1.00  0.00     0.252 C 
HETATM   16  O   UNL     1      45.806 -10.951   8.371  1.00  0.00    -0.268 OA
HETATM   17  N   UNL     1      43.709 -10.887   9.267  1.00  0.00    -0.349 N 
HETATM   18  H   UNL     1      42.734 -11.126   9.193  1.00  0.00     0.163 HD
BRANCH  17  19
HETATM   19  C   UNL     1      44.106 -10.182  10.477  1.00  0.00     0.114 C 
HETATM   20  C   UNL     1      43.681 -10.961  11.723  1.00  0.00     0.037 C 
BRANCH  19  21
HETATM   21  C   UNL     1      43.574  -8.758  10.394  1.00  0.00    -0.033 A 
HETATM   22  C   UNL     1      43.978  -7.956   9.313  1.00  0.00     0.009 A 
HETATM   23  C   UNL     1      43.474  -6.667   9.152  1.00  0.00     0.003 A 
HETATM   24  C   UNL     1      42.554  -6.164  10.069  1.00  0.00     0.037 A 
HETATM   25  C   UNL     1      42.134  -6.941  11.150  1.00  0.00     0.068 A 
HETATM   26  C   UNL     1      42.635  -8.237  11.303  1.00  0.00     0.046 A 
BRANCH  25  27
HETATM   27  O   UNL     1      41.225  -6.328  11.969  1.00  0.00    -0.356 OA
HETATM   28  C   UNL     1      40.512  -5.223  11.427  1.00  0.00     0.210 C 
ENDBRANCH  25  27
ENDBRANCH  19  21
ENDBRANCH  17  19
ENDBRANCH  12  15
BRANCH   1  29
HETATM   29  C   UNL     1      41.127 -15.177   6.342  1.00  0.00     0.033 C 
HETATM   30  C   UNL     1      40.317 -16.336   5.776  1.00  0.00     0.008 C 
ENDBRANCH   1  29
TORSDOF 5
ENDMDL
