MODEL 1
REMARK VINA RESULT:      -9.2      0.000      0.000
REMARK  6 active torsions:
REMARK  status: ('A' for Active; 'I' for Inactive)
REMARK    1  A    between atoms: C_2  and  S_3 
REMARK    2  A    between atoms: S_3  and  C_4 
REMARK    3  A    between atoms: C_5  and  C_6 
REMARK       I    between atoms: C_6  and  N_7 
REMARK    4  A    between atoms: N_7  and  C_8 
REMARK    5  A    between atoms: N_9  and  C_10 
REMARK    6  A    between atoms: C_21  and  C_22 
ROOT
HETATM    1  C   UNL     1      40.732 -15.371   1.450  1.00  0.00     0.152 A 
HETATM    2  N   UNL     1      40.654 -14.067   1.917  1.00  0.00    -0.044 N 
HETATM    3  N   UNL     1      39.959 -13.247   1.072  1.00  0.00    -0.148 NA
HETATM    4  C   UNL     1      39.604 -14.057   0.064  1.00  0.00     0.115 A 
HETATM    5  C   UNL     1      40.053 -15.380   0.253  1.00  0.00     0.087 A 
ENDROOT
BRANCH   1   6
HETATM    6  N   UNL     1      41.397 -16.365   2.149  1.00  0.00    -0.307 N 
HETATM    7  C   UNL     1      42.766 -16.538   2.110  1.00  0.00     0.258 C 
HETATM    8  O   UNL     1      43.575 -15.930   1.423  1.00  0.00    -0.267 OA
HETATM    9  H   UNL     1      40.829 -17.011   2.698  1.00  0.00     0.170 HD
BRANCH   7  10
HETATM   10  C   UNL     1      43.234 -17.664   2.945  1.00  0.00     0.049 A 
HETATM   11  C   UNL     1      43.526 -17.522   4.311  1.00  0.00     0.016 A 
HETATM   12  C   UNL     1      43.939 -18.656   5.025  1.00  0.00     0.019 A 
HETATM   13  C   UNL     1      44.045 -19.901   4.395  1.00  0.00     0.001 A 
HETATM   14  C   UNL     1      43.755 -20.027   3.038  1.00  0.00     0.001 A 
HETATM   15  C   UNL     1      43.355 -18.910   2.310  1.00  0.00     0.018 A 
BRANCH  11  16
HETATM   16  S   UNL     1      43.489 -15.952   5.167  1.00  0.00    -0.129 SA
BRANCH  16  17
HETATM   17  C   UNL     1      42.467 -16.407   6.603  1.00  0.00     0.075 C 
HETATM   18  C   UNL     1      42.939 -15.650   7.832  1.00  0.00     0.016 C 
ENDBRANCH  16  17
ENDBRANCH  11  16
ENDBRANCH   7  10
ENDBRANCH   1   6
BRANCH   2  19
HETATM   19  C   UNL     1      41.181 -13.543   3.114  1.00  0.00     0.732 A 
HETATM   20  N   UNL     1      42.313 -12.902   3.177  1.00  0.00    -0.067 NA
HETATM   21  C   UNL     1      42.647 -12.483   4.434  1.00  0.00     0.065 A 
HETATM   22  C   UNL     1      41.927 -12.671   5.541  1.00  0.00     0.036 A 
HETATM   23  C   UNL     1      43.905 -11.739   4.730  1.00  0.00     0.061 C 
HETATM   24  C   UNL     1      42.552 -12.106   6.757  1.00  0.00     0.047 C 
HETATM   25  C   UNL     1      40.657 -13.390   5.453  1.00  0.00     0.268 A 
HETATM   26  C   UNL     1      43.972 -11.801   6.263  1.00  0.00     0.011 C 
HETATM   27  O   UNL     1      39.945 -13.597   6.425  1.00  0.00    -0.267 OA
HETATM   28  N   UNL     1      40.354 -13.798   4.184  1.00  0.00    -0.152 N 
HETATM   29  H   UNL     1      39.491 -14.309   4.026  1.00  0.00     0.188 HD
ENDBRANCH   2  19
BRANCH   4  30
HETATM   30  C   UNL     1      38.825 -13.580  -1.116  1.00  0.00     0.105 A 
HETATM   31  O   UNL     1      38.148 -12.392  -1.167  1.00  0.00    -0.320 OA
HETATM   32  C   UNL     1      37.563 -12.312  -2.389  1.00  0.00     0.142 A 
HETATM   33  C   UNL     1      37.850 -13.429  -3.135  1.00  0.00     0.027 A 
HETATM   34  C   UNL     1      38.664 -14.248  -2.316  1.00  0.00     0.041 A 
ENDBRANCH   4  30
TORSDOF 6
ENDMDL
MODEL 2
REMARK VINA RESULT:      -9.0      1.377      1.847
REMARK  6 active torsions:
REMARK  status: ('A' for Active; 'I' for Inactive)
REMARK    1  A    between atoms: C_2  and  S_3 
REMARK    2  A    between atoms: S_3  and  C_4 
REMARK    3  A    between atoms: C_5  and  C_6 
REMARK       I    between atoms: C_6  and  N_7 
REMARK    4  A    between atoms: N_7  and  C_8 
REMARK    5  A    between atoms: N_9  and  C_10 
REMARK    6  A    between atoms: C_21  and  C_22 
ROOT
HETATM    1  C   UNL     1      40.816 -15.127   1.553  1.00  0.00     0.152 A 
HETATM    2  N   UNL     1      40.725 -13.759   1.765  1.00  0.00    -0.044 N 
HETATM    3  N   UNL     1      40.037 -13.119   0.771  1.00  0.00    -0.148 NA
HETATM    4  C   UNL     1      39.699 -14.107  -0.069  1.00  0.00     0.115 A 
HETATM    5  C   UNL     1      40.153 -15.367   0.372  1.00  0.00     0.087 A 
ENDROOT
BRANCH   1   6
HETATM    6  N   UNL     1      41.477 -15.965   2.435  1.00  0.00    -0.307 N 
HETATM    7  C   UNL     1      42.852 -16.073   2.500  1.00  0.00     0.258 C 
HETATM    8  O   UNL     1      43.677 -15.538   1.771  1.00  0.00    -0.267 OA
HETATM    9  H   UNL     1      40.904 -16.547   3.046  1.00  0.00     0.170 HD
BRANCH   7  10
HETATM   10  C   UNL     1      43.315 -17.031   3.525  1.00  0.00     0.049 A 
HETATM   11  C   UNL     1      43.395 -16.700   4.887  1.00  0.00     0.016 A 
HETATM   12  C   UNL     1      43.821 -17.687   5.788  1.00  0.00     0.019 A 
HETATM   13  C   UNL     1      44.144 -18.972   5.343  1.00  0.00     0.001 A 
HETATM   14  C   UNL     1      44.063 -19.287   3.988  1.00  0.00     0.001 A 
HETATM   15  C   UNL     1      43.654 -18.317   3.077  1.00  0.00     0.018 A 
BRANCH  11  16
HETATM   16  S   UNL     1      43.073 -15.058   5.522  1.00  0.00    -0.129 SA
BRANCH  16  17
HETATM   17  C   UNL     1      41.726 -15.436   6.686  1.00  0.00     0.075 C 
HETATM   18  C   UNL     1      40.523 -15.968   5.928  1.00  0.00     0.016 C 
ENDBRANCH  16  17
ENDBRANCH  11  16
ENDBRANCH   7  10
ENDBRANCH   1   6
BRANCH   2  19
HETATM   19  C   UNL     1      41.234 -13.014   2.847  1.00  0.00     0.732 A 
HETATM   20  N   UNL     1      40.546 -12.747   3.919  1.00  0.00    -0.067 NA
HETATM   21  C   UNL     1      41.221 -12.004   4.845  1.00  0.00     0.065 A 
HETATM   22  C   UNL     1      42.475 -11.563   4.734  1.00  0.00     0.036 A 
HETATM   23  C   UNL     1      40.614 -11.581   6.141  1.00  0.00     0.061 C 
HETATM   24  C   UNL     1      42.933 -10.778   5.902  1.00  0.00     0.047 C 
HETATM   25  C   UNL     1      43.237 -11.874   3.525  1.00  0.00     0.268 A 
HETATM   26  C   UNL     1      41.613 -10.529   6.644  1.00  0.00     0.011 C 
HETATM   27  O   UNL     1      44.389 -11.503   3.356  1.00  0.00    -0.267 OA
HETATM   28  N   UNL     1      42.531 -12.613   2.618  1.00  0.00    -0.152 N 
HETATM   29  H   UNL     1      42.978 -12.875   1.745  1.00  0.00     0.188 HD
ENDBRANCH   2  19
BRANCH   4  30
HETATM   30  C   UNL     1      38.932 -13.868  -1.326  1.00  0.00     0.105 A 
HETATM   31  O   UNL     1      38.059 -12.832  -1.515  1.00  0.00    -0.320 OA
HETATM   32  C   UNL     1      37.557 -12.948  -2.770  1.00  0.00     0.142 A 
HETATM   33  C   UNL     1      38.092 -14.044  -3.404  1.00  0.00     0.027 A 
HETATM   34  C   UNL     1      38.980 -14.638  -2.474  1.00  0.00     0.041 A 
ENDBRANCH   4  30
TORSDOF 6
ENDMDL
MODEL 3
REMARK VINA RESULT:      -8.6      2.483      6.715
REMARK  6 active torsions:
REMARK  status: ('A' for Active; 'I' for Inactive)
REMARK    1  A    between atoms: C_2  and  S_3 
REMARK    2  A    between atoms: S_3  and  C_4 
REMARK    3  A    between atoms: C_5  and  C_6 
REMARK       I    between atoms: C_6  and  N_7 
REMARK    4  A    between atoms: N_7  and  C_8 
REMARK    5  A    between atoms: N_9  and  C_10 
REMARK    6  A    between atoms: C_21  and  C_22 
ROOT
HETATM    1  C   UNL     1      42.440 -15.807   1.810  1.00  0.00     0.152 A 
HETATM    2  N   UNL     1      42.633 -15.361   3.109  1.00  0.00    -0.044 N 
HETATM    3  N   UNL     1      43.077 -16.349   3.943  1.00  0.00    -0.148 NA
HETATM    4  C   UNL     1      43.157 -17.425   3.147  1.00  0.00     0.115 A 
HETATM    5  C   UNL     1      42.780 -17.140   1.818  1.00  0.00     0.087 A 
ENDROOT
BRANCH   1   6
HETATM    6  N   UNL     1      41.988 -14.970   0.803  1.00  0.00    -0.307 N 
HETATM    7  C   UNL     1      40.658 -14.650   0.619  1.00  0.00     0.258 C 
HETATM    8  O   UNL     1      39.693 -15.093   1.227  1.00  0.00    -0.267 OA
HETATM    9  H   UNL     1      42.683 -14.597   0.156  1.00  0.00     0.170 HD
BRANCH   7  10
HETATM   10  C   UNL     1      40.431 -13.735  -0.520  1.00  0.00     0.049 A 
HETATM   11  C   UNL     1      40.644 -12.350  -0.430  1.00  0.00     0.016 A 
HETATM   12  C   UNL     1      40.426 -11.568  -1.574  1.00  0.00     0.019 A 
HETATM   13  C   UNL     1      40.021 -12.154  -2.777  1.00  0.00     0.001 A 
HETATM   14  C   UNL     1      39.810 -13.529  -2.851  1.00  0.00     0.001 A 
HETATM   15  C   UNL     1      40.009 -14.320  -1.723  1.00  0.00     0.018 A 
BRANCH  11  16
HETATM   16  S   UNL     1      41.088 -11.519   1.091  1.00  0.00    -0.129 SA
BRANCH  16  17
HETATM   17  C   UNL     1      39.488 -10.757   1.505  1.00  0.00     0.075 C 
HETATM   18  C   UNL     1      38.541 -11.812   2.049  1.00  0.00     0.016 C 
ENDBRANCH  16  17
ENDBRANCH  11  16
ENDBRANCH   7  10
ENDBRANCH   1   6
BRANCH   2  19
HETATM   19  C   UNL     1      42.437 -14.061   3.616  1.00  0.00     0.732 A 
HETATM   20  N   UNL     1      41.342 -13.682   4.210  1.00  0.00    -0.067 NA
HETATM   21  C   UNL     1      41.353 -12.379   4.620  1.00  0.00     0.065 A 
HETATM   22  C   UNL     1      42.359 -11.517   4.467  1.00  0.00     0.036 A 
HETATM   23  C   UNL     1      40.196 -11.740   5.313  1.00  0.00     0.061 C 
HETATM   24  C   UNL     1      42.073 -10.171   5.011  1.00  0.00     0.047 C 
HETATM   25  C   UNL     1      43.584 -11.958   3.801  1.00  0.00     0.268 A 
HETATM   26  C   UNL     1      40.560 -10.249   5.254  1.00  0.00     0.011 C 
HETATM   27  O   UNL     1      44.545 -11.223   3.629  1.00  0.00    -0.267 OA
HETATM   28  N   UNL     1      43.538 -13.264   3.400  1.00  0.00    -0.152 N 
HETATM   29  H   UNL     1      44.344 -13.660   2.925  1.00  0.00     0.188 HD
ENDBRANCH   2  19
BRANCH   4  30
HETATM   30  C   UNL     1      43.596 -18.762   3.642  1.00  0.00     0.105 A 
HETATM   31  O   UNL     1      44.056 -19.006   4.907  1.00  0.00    -0.320 OA
HETATM   32  C   UNL     1      44.360 -20.327   4.980  1.00  0.00     0.142 A 
HETATM   33  C   UNL     1      44.102 -20.948   3.782  1.00  0.00     0.027 A 
HETATM   34  C   UNL     1      43.608 -19.941   2.918  1.00  0.00     0.041 A 
ENDBRANCH   4  30
TORSDOF 6
ENDMDL
MODEL 4
REMARK VINA RESULT:      -8.5      2.274      6.475
REMARK  6 active torsions:
REMARK  status: ('A' for Active; 'I' for Inactive)
REMARK    1  A    between atoms: C_2  and  S_3 
REMARK    2  A    between atoms: S_3  and  C_4 
REMARK    3  A    between atoms: C_5  and  C_6 
REMARK       I    between atoms: C_6  and  N_7 
REMARK    4  A    between atoms: N_7  and  C_8 
REMARK    5  A    between atoms: N_9  and  C_10 
REMARK    6  A    between atoms: C_21  and  C_22 
ROOT
HETATM    1  C   UNL     1      42.388 -15.769   2.086  1.00  0.00     0.152 A 
HETATM    2  N   UNL     1      42.472 -15.516   3.448  1.00  0.00    -0.044 N 
HETATM    3  N   UNL     1      42.904 -16.603   4.157  1.00  0.00    -0.148 NA
HETATM    4  C   UNL     1      43.086 -17.543   3.220  1.00  0.00     0.115 A 
HETATM    5  C   UNL     1      42.786 -17.076   1.924  1.00  0.00     0.087 A 
ENDROOT
BRANCH   1   6
HETATM    6  N   UNL     1      41.966 -14.807   1.183  1.00  0.00    -0.307 N 
HETATM    7  C   UNL     1      40.679 -14.735   0.692  1.00  0.00     0.258 C 
HETATM    8  O   UNL     1      39.759 -15.518   0.892  1.00  0.00    -0.267 OA
HETATM    9  H   UNL     1      42.662 -14.137   0.855  1.00  0.00     0.170 HD
BRANCH   7  10
HETATM   10  C   UNL     1      40.477 -13.618  -0.254  1.00  0.00     0.049 A 
HETATM   11  C   UNL     1      40.330 -12.287   0.170  1.00  0.00     0.016 A 
HETATM   12  C   UNL     1      40.170 -11.291  -0.805  1.00  0.00     0.019 A 
HETATM   13  C   UNL     1      40.170 -11.614  -2.165  1.00  0.00     0.001 A 
HETATM   14  C   UNL     1      40.314 -12.939  -2.572  1.00  0.00     0.001 A 
HETATM   15  C   UNL     1      40.462 -13.943  -1.618  1.00  0.00     0.018 A 
BRANCH  11  16
HETATM   16  S   UNL     1      40.242 -11.806   1.891  1.00  0.00    -0.129 SA
BRANCH  16  17
HETATM   17  C   UNL     1      41.299 -10.324   1.852  1.00  0.00     0.075 C 
HETATM   18  C   UNL     1      40.715  -9.251   2.754  1.00  0.00     0.016 C 
ENDBRANCH  16  17
ENDBRANCH  11  16
ENDBRANCH   7  10
ENDBRANCH   1   6
BRANCH   2  19
HETATM   19  C   UNL     1      42.184 -14.315   4.125  1.00  0.00     0.732 A 
HETATM   20  N   UNL     1      42.964 -13.273   4.098  1.00  0.00    -0.067 NA
HETATM   21  C   UNL     1      42.505 -12.214   4.828  1.00  0.00     0.065 A 
HETATM   22  C   UNL     1      41.368 -12.175   5.525  1.00  0.00     0.036 A 
HETATM   23  C   UNL     1      43.249 -10.926   4.939  1.00  0.00     0.061 C 
HETATM   24  C   UNL     1      41.142 -10.888   6.219  1.00  0.00     0.047 C 
HETATM   25  C   UNL     1      40.501 -13.352   5.542  1.00  0.00     0.268 A 
HETATM   26  C   UNL     1      42.519 -10.222   6.092  1.00  0.00     0.011 C 
HETATM   27  O   UNL     1      39.445 -13.386   6.158  1.00  0.00    -0.267 OA
HETATM   28  N   UNL     1      40.991 -14.394   4.806  1.00  0.00    -0.152 N 
HETATM   29  H   UNL     1      40.457 -15.257   4.762  1.00  0.00     0.188 HD
ENDBRANCH   2  19
BRANCH   4  30
HETATM   30  C   UNL     1      43.551 -18.923   3.543  1.00  0.00     0.105 A 
HETATM   31  O   UNL     1      44.024 -19.314   4.767  1.00  0.00    -0.320 OA
HETATM   32  C   UNL     1      44.351 -20.627   4.674  1.00  0.00     0.142 A 
HETATM   33  C   UNL     1      44.096 -21.100   3.410  1.00  0.00     0.027 A 
HETATM   34  C   UNL     1      43.580 -20.003   2.679  1.00  0.00     0.041 A 
ENDBRANCH   4  30
TORSDOF 6
ENDMDL
MODEL 5
REMARK VINA RESULT:      -8.1      3.782      7.515
REMARK  6 active torsions:
REMARK  status: ('A' for Active; 'I' for Inactive)
REMARK    1  A    between atoms: C_2  and  S_3 
REMARK    2  A    between atoms: S_3  and  C_4 
REMARK    3  A    between atoms: C_5  and  C_6 
REMARK       I    between atoms: C_6  and  N_7 
REMARK    4  A    between atoms: N_7  and  C_8 
REMARK    5  A    between atoms: N_9  and  C_10 
REMARK    6  A    between atoms: C_21  and  C_22 
ROOT
HETATM    1  C   UNL     1      43.206 -13.645   6.381  1.00  0.00     0.152 A 
HETATM    2  N   UNL     1      42.204 -13.614   5.422  1.00  0.00    -0.044 N 
HETATM    3  N   UNL     1      42.194 -14.735   4.638  1.00  0.00    -0.148 NA
HETATM    4  C   UNL     1      43.208 -15.469   5.118  1.00  0.00     0.115 A 
HETATM    5  C   UNL     1      43.861 -14.841   6.199  1.00  0.00     0.087 A 
ENDROOT
BRANCH   1   6
HETATM    6  N   UNL     1      43.398 -12.607   7.278  1.00  0.00    -0.307 N 
HETATM    7  C   UNL     1      44.177 -11.501   7.007  1.00  0.00     0.258 C 
HETATM    8  O   UNL     1      44.863 -11.297   6.014  1.00  0.00    -0.267 OA
HETATM    9  H   UNL     1      42.955 -12.691   8.193  1.00  0.00     0.170 HD
BRANCH   7  10
HETATM   10  C   UNL     1      44.222 -10.531   8.122  1.00  0.00     0.049 A 
HETATM   11  C   UNL     1      43.299  -9.481   8.247  1.00  0.00     0.016 A 
HETATM   12  C   UNL     1      43.407  -8.628   9.355  1.00  0.00     0.019 A 
HETATM   13  C   UNL     1      44.400  -8.827  10.319  1.00  0.00     0.001 A 
HETATM   14  C   UNL     1      45.311  -9.872  10.181  1.00  0.00     0.001 A 
HETATM   15  C   UNL     1      45.228 -10.722   9.081  1.00  0.00     0.018 A 
BRANCH  11  16
HETATM   16  S   UNL     1      42.051  -9.116   7.018  1.00  0.00    -0.129 SA
BRANCH  16  17
HETATM   17  C   UNL     1      40.675  -8.635   8.108  1.00  0.00     0.075 C 
HETATM   18  C   UNL     1      39.822  -7.579   7.427  1.00  0.00     0.016 C 
ENDBRANCH  16  17
ENDBRANCH  11  16
ENDBRANCH   7  10
ENDBRANCH   1   6
BRANCH   2  19
HETATM   19  C   UNL     1      41.247 -12.604   5.201  1.00  0.00     0.732 A 
HETATM   20  N   UNL     1      41.218 -11.869   4.127  1.00  0.00    -0.067 NA
HETATM   21  C   UNL     1      40.215 -10.941   4.114  1.00  0.00     0.065 A 
HETATM   22  C   UNL     1      39.308 -10.753   5.073  1.00  0.00     0.036 A 
HETATM   23  C   UNL     1      40.007  -9.992   2.982  1.00  0.00     0.061 C 
HETATM   24  C   UNL     1      38.347  -9.667   4.776  1.00  0.00     0.047 C 
HETATM   25  C   UNL     1      39.352 -11.589   6.272  1.00  0.00     0.268 A 
HETATM   26  C   UNL     1      39.018  -8.980   3.579  1.00  0.00     0.011 C 
HETATM   27  O   UNL     1      38.553 -11.473   7.189  1.00  0.00    -0.267 OA
HETATM   28  N   UNL     1      40.369 -12.503   6.256  1.00  0.00    -0.152 N 
HETATM   29  H   UNL     1      40.480 -13.126   7.049  1.00  0.00     0.188 HD
ENDBRANCH   2  19
BRANCH   4  30
HETATM   30  C   UNL     1      43.582 -16.795   4.548  1.00  0.00     0.105 A 
HETATM   31  O   UNL     1      44.276 -17.761   5.226  1.00  0.00    -0.320 OA
HETATM   32  C   UNL     1      44.430 -18.815   4.386  1.00  0.00     0.142 A 
HETATM   33  C   UNL     1      43.844 -18.553   3.171  1.00  0.00     0.027 A 
HETATM   34  C   UNL     1      43.296 -17.250   3.274  1.00  0.00     0.041 A 
ENDBRANCH   4  30
TORSDOF 6
ENDMDL
MODEL 6
REMARK VINA RESULT:      -8.1      2.014      7.060
REMARK  6 active torsions:
REMARK  status: ('A' for Active; 'I' for Inactive)
REMARK    1  A    between atoms: C_2  and  S_3 
REMARK    2  A    between atoms: S_3  and  C_4 
REMARK    3  A    between atoms: C_5  and  C_6 
REMARK       I    between atoms: C_6  and  N_7 
REMARK    4  A    between atoms: N_7  and  C_8 
REMARK    5  A    between atoms: N_9  and  C_10 
REMARK    6  A    between atoms: C_21  and  C_22 
ROOT
HETATM    1  C   UNL     1      42.283 -14.677   3.580  1.00  0.00     0.152 A 
HETATM    2  N   UNL     1      41.620 -14.999   2.404  1.00  0.00    -0.044 N 
HETATM    3  N   UNL     1      41.832 -16.294   2.021  1.00  0.00    -0.148 NA
HETATM    4  C   UNL     1      42.641 -16.780   2.973  1.00  0.00     0.115 A 
HETATM    5  C   UNL     1      42.944 -15.821   3.961  1.00  0.00     0.087 A 
ENDROOT
BRANCH   1   6
HETATM    6  N   UNL     1      42.209 -13.414   4.145  1.00  0.00    -0.307 N 
HETATM    7  C   UNL     1      41.568 -13.149   5.338  1.00  0.00     0.258 C 
HETATM    8  O   UNL     1      40.916 -13.926   6.023  1.00  0.00    -0.267 OA
HETATM    9  H   UNL     1      42.634 -12.645   3.627  1.00  0.00     0.170 HD
BRANCH   7  10
HETATM   10  C   UNL     1      41.632 -11.725   5.730  1.00  0.00     0.049 A 
HETATM   11  C   UNL     1      42.690 -11.198   6.487  1.00  0.00     0.016 A 
HETATM   12  C   UNL     1      42.676  -9.828   6.787  1.00  0.00     0.019 A 
HETATM   13  C   UNL     1      41.640  -9.005   6.333  1.00  0.00     0.001 A 
HETATM   14  C   UNL     1      40.594  -9.543   5.585  1.00  0.00     0.001 A 
HETATM   15  C   UNL     1      40.585 -10.903   5.288  1.00  0.00     0.018 A 
BRANCH  11  16
HETATM   16  S   UNL     1      44.008 -12.198   7.168  1.00  0.00    -0.129 SA
BRANCH  16  17
HETATM   17  C   UNL     1      45.448 -11.322   6.480  1.00  0.00     0.075 C 
HETATM   18  C   UNL     1      46.214 -10.635   7.596  1.00  0.00     0.016 C 
ENDBRANCH  16  17
ENDBRANCH  11  16
ENDBRANCH   7  10
ENDBRANCH   1   6
BRANCH   2  19
HETATM   19  C   UNL     1      40.791 -14.170   1.623  1.00  0.00     0.732 A 
HETATM   20  N   UNL     1      40.007 -13.261   2.128  1.00  0.00    -0.067 NA
HETATM   21  C   UNL     1      39.280 -12.573   1.199  1.00  0.00     0.065 A 
HETATM   22  C   UNL     1      39.322 -12.755  -0.122  1.00  0.00     0.036 A 
HETATM   23  C   UNL     1      38.315 -11.496   1.564  1.00  0.00     0.061 C 
HETATM   24  C   UNL     1      38.415 -11.859  -0.872  1.00  0.00     0.047 C 
HETATM   25  C   UNL     1      40.210 -13.777  -0.674  1.00  0.00     0.268 A 
HETATM   26  C   UNL     1      37.542 -11.289   0.253  1.00  0.00     0.011 C 
HETATM   27  O   UNL     1      40.301 -13.997  -1.873  1.00  0.00    -0.267 OA
HETATM   28  N   UNL     1      40.919 -14.450   0.282  1.00  0.00    -0.152 N 
HETATM   29  H   UNL     1      41.561 -15.181  -0.008  1.00  0.00     0.188 HD
ENDBRANCH   2  19
BRANCH   4  30
HETATM   30  C   UNL     1      43.151 -18.182   2.958  1.00  0.00     0.105 A 
HETATM   31  O   UNL     1      42.889 -19.090   1.969  1.00  0.00    -0.320 OA
HETATM   32  C   UNL     1      43.515 -20.246   2.304  1.00  0.00     0.142 A 
HETATM   33  C   UNL     1      44.183 -20.105   3.496  1.00  0.00     0.027 A 
HETATM   34  C   UNL     1      43.951 -18.773   3.919  1.00  0.00     0.041 A 
ENDBRANCH   4  30
TORSDOF 6
ENDMDL
MODEL 7
REMARK VINA RESULT:      -8.0      2.709      7.029
REMARK  6 active torsions:
REMARK  status: ('A' for Active; 'I' for Inactive)
REMARK    1  A    between atoms: C_2  and  S_3 
REMARK    2  A    between atoms: S_3  and  C_4 
REMARK    3  A    between atoms: C_5  and  C_6 
REMARK       I    between atoms: C_6  and  N_7 
REMARK    4  A    between atoms: N_7  and  C_8 
REMARK    5  A    between atoms: N_9  and  C_10 
REMARK    6  A    between atoms: C_21  and  C_22 
ROOT
HETATM    1  C   UNL     1      41.037 -15.045   2.584  1.00  0.00     0.152 A 
HETATM    2  N   UNL     1      41.842 -14.717   3.665  1.00  0.00    -0.044 N 
HETATM    3  N   UNL     1      42.665 -15.744   4.036  1.00  0.00    -0.148 NA
HETATM    4  C   UNL     1      42.362 -16.723   3.172  1.00  0.00     0.115 A 
HETATM    5  C   UNL     1      41.366 -16.339   2.251  1.00  0.00     0.087 A 
ENDROOT
BRANCH   1   6
HETATM    6  N   UNL     1      40.124 -14.151   2.048  1.00  0.00    -0.307 N 
HETATM    7  C   UNL     1      40.464 -13.160   1.150  1.00  0.00     0.258 C 
HETATM    8  O   UNL     1      41.584 -12.862   0.757  1.00  0.00    -0.267 OA
HETATM    9  H   UNL     1      39.157 -14.225   2.364  1.00  0.00     0.170 HD
BRANCH   7  10
HETATM   10  C   UNL     1      39.312 -12.339   0.723  1.00  0.00     0.049 A 
HETATM   11  C   UNL     1      38.658 -12.535  -0.505  1.00  0.00     0.016 A 
HETATM   12  C   UNL     1      37.556 -11.722  -0.809  1.00  0.00     0.019 A 
HETATM   13  C   UNL     1      37.111 -10.751   0.093  1.00  0.00     0.001 A 
HETATM   14  C   UNL     1      37.771 -10.565   1.306  1.00  0.00     0.001 A 
HETATM   15  C   UNL     1      38.874 -11.354   1.621  1.00  0.00     0.018 A 
BRANCH  11  16
HETATM   16  S   UNL     1      39.215 -13.702  -1.741  1.00  0.00    -0.129 SA
BRANCH  16  17
HETATM   17  C   UNL     1      39.773 -12.544  -3.030  1.00  0.00     0.075 C 
HETATM   18  C   UNL     1      41.177 -12.061  -2.715  1.00  0.00     0.016 C 
ENDBRANCH  16  17
ENDBRANCH  11  16
ENDBRANCH   7  10
ENDBRANCH   1   6
BRANCH   2  19
HETATM   19  C   UNL     1      41.896 -13.497   4.366  1.00  0.00     0.732 A 
HETATM   20  N   UNL     1      40.876 -12.987   4.996  1.00  0.00    -0.067 NA
HETATM   21  C   UNL     1      41.137 -11.793   5.605  1.00  0.00     0.065 A 
HETATM   22  C   UNL     1      42.306 -11.150   5.603  1.00  0.00     0.036 A 
HETATM   23  C   UNL     1      40.106 -11.034   6.372  1.00  0.00     0.061 C 
HETATM   24  C   UNL     1      42.280  -9.871   6.347  1.00  0.00     0.047 C 
HETATM   25  C   UNL     1      43.442 -11.737   4.895  1.00  0.00     0.268 A 
HETATM   26  C   UNL     1      40.773  -9.663   6.552  1.00  0.00     0.011 C 
HETATM   27  O   UNL     1      44.542 -11.204   4.853  1.00  0.00    -0.267 OA
HETATM   28  N   UNL     1      43.147 -12.928   4.294  1.00  0.00    -0.152 N 
HETATM   29  H   UNL     1      43.875 -13.409   3.775  1.00  0.00     0.188 HD
ENDBRANCH   2  19
BRANCH   4  30
HETATM   30  C   UNL     1      43.019 -18.062   3.209  1.00  0.00     0.105 A 
HETATM   31  O   UNL     1      43.702 -18.560   4.285  1.00  0.00    -0.320 OA
HETATM   32  C   UNL     1      44.157 -19.791   3.943  1.00  0.00     0.142 A 
HETATM   33  C   UNL     1      43.779 -20.105   2.660  1.00  0.00     0.027 A 
HETATM   34  C   UNL     1      43.044 -18.992   2.185  1.00  0.00     0.041 A 
ENDBRANCH   4  30
TORSDOF 6
ENDMDL
MODEL 8
REMARK VINA RESULT:      -7.9      2.332      6.986
REMARK  6 active torsions:
REMARK  status: ('A' for Active; 'I' for Inactive)
REMARK    1  A    between atoms: C_2  and  S_3 
REMARK    2  A    between atoms: S_3  and  C_4 
REMARK    3  A    between atoms: C_5  and  C_6 
REMARK       I    between atoms: C_6  and  N_7 
REMARK    4  A    between atoms: N_7  and  C_8 
REMARK    5  A    between atoms: N_9  and  C_10 
REMARK    6  A    between atoms: C_21  and  C_22 
ROOT
HETATM    1  C   UNL     1      43.042 -15.234   3.968  1.00  0.00     0.152 A 
HETATM    2  N   UNL     1      42.473 -15.381   2.712  1.00  0.00    -0.044 N 
HETATM    3  N   UNL     1      42.541 -16.667   2.252  1.00  0.00    -0.148 NA
HETATM    4  C   UNL     1      43.166 -17.325   3.238  1.00  0.00     0.115 A 
HETATM    5  C   UNL     1      43.492 -16.485   4.323  1.00  0.00     0.087 A 
ENDROOT
BRANCH   1   6
HETATM    6  N   UNL     1      43.086 -14.012   4.619  1.00  0.00    -0.307 N 
HETATM    7  C   UNL     1      42.444 -13.762   5.815  1.00  0.00     0.258 C 
HETATM    8  O   UNL     1      41.697 -14.510   6.431  1.00  0.00    -0.267 OA
HETATM    9  H   UNL     1      43.602 -13.258   4.165  1.00  0.00     0.170 HD
BRANCH   7  10
HETATM   10  C   UNL     1      42.646 -12.383   6.307  1.00  0.00     0.049 A 
HETATM   11  C   UNL     1      41.738 -11.345   6.040  1.00  0.00     0.016 A 
HETATM   12  C   UNL     1      42.002 -10.076   6.574  1.00  0.00     0.019 A 
HETATM   13  C   UNL     1      43.134  -9.852   7.364  1.00  0.00     0.001 A 
HETATM   14  C   UNL     1      44.028 -10.890   7.618  1.00  0.00     0.001 A 
HETATM   15  C   UNL     1      43.789 -12.154   7.087  1.00  0.00     0.018 A 
BRANCH  11  16
HETATM   16  S   UNL     1      40.312 -11.535   4.977  1.00  0.00    -0.129 SA
BRANCH  16  17
HETATM   17  C   UNL     1      40.034  -9.795   4.519  1.00  0.00     0.075 C 
HETATM   18  C   UNL     1      38.741  -9.669   3.733  1.00  0.00     0.016 C 
ENDBRANCH  16  17
ENDBRANCH  11  16
ENDBRANCH   7  10
ENDBRANCH   1   6
BRANCH   2  19
HETATM   19  C   UNL     1      41.857 -14.392   1.919  1.00  0.00     0.732 A 
HETATM   20  N   UNL     1      42.080 -13.117   2.064  1.00  0.00    -0.067 NA
HETATM   21  C   UNL     1      41.376 -12.327   1.200  1.00  0.00     0.065 A 
HETATM   22  C   UNL     1      40.526 -12.751   0.264  1.00  0.00     0.036 A 
HETATM   23  C   UNL     1      41.477 -10.839   1.203  1.00  0.00     0.061 C 
HETATM   24  C   UNL     1      39.910 -11.655  -0.516  1.00  0.00     0.047 C 
HETATM   25  C   UNL     1      40.289 -14.186   0.111  1.00  0.00     0.268 A 
HETATM   26  C   UNL     1      40.288 -10.427   0.322  1.00  0.00     0.011 C 
HETATM   27  O   UNL     1      39.526 -14.644  -0.726  1.00  0.00    -0.267 OA
HETATM   28  N   UNL     1      41.005 -14.947   0.992  1.00  0.00    -0.152 N 
HETATM   29  H   UNL     1      40.902 -15.957   0.963  1.00  0.00     0.188 HD
ENDBRANCH   2  19
BRANCH   4  30
HETATM   30  C   UNL     1      43.474 -18.783   3.165  1.00  0.00     0.105 A 
HETATM   31  O   UNL     1      43.903 -19.537   4.223  1.00  0.00    -0.320 OA
HETATM   32  C   UNL     1      44.079 -20.805   3.772  1.00  0.00     0.142 A 
HETATM   33  C   UNL     1      43.769 -20.889   2.437  1.00  0.00     0.027 A 
HETATM   34  C   UNL     1      43.378 -19.586   2.043  1.00  0.00     0.041 A 
ENDBRANCH   4  30
TORSDOF 6
ENDMDL
MODEL 9
REMARK VINA RESULT:      -7.4      2.797      7.704
REMARK  6 active torsions:
REMARK  status: ('A' for Active; 'I' for Inactive)
REMARK    1  A    between atoms: C_2  and  S_3 
REMARK    2  A    between atoms: S_3  and  C_4 
REMARK    3  A    between atoms: C_5  and  C_6 
REMARK       I    between atoms: C_6  and  N_7 
REMARK    4  A    between atoms: N_7  and  C_8 
REMARK    5  A    between atoms: N_9  and  C_10 
REMARK    6  A    between atoms: C_21  and  C_22 
ROOT
HETATM    1  C   UNL     1      40.573 -13.928   3.007  1.00  0.00     0.152 A 
HETATM    2  N   UNL     1      40.558 -14.427   1.713  1.00  0.00    -0.044 N 
HETATM    3  N   UNL     1      41.292 -15.573   1.583  1.00  0.00    -0.148 NA
HETATM    4  C   UNL     1      41.772 -15.785   2.817  1.00  0.00     0.115 A 
HETATM    5  C   UNL     1      41.352 -14.799   3.734  1.00  0.00     0.087 A 
ENDROOT
BRANCH   1   6
HETATM    6  N   UNL     1      39.898 -12.770   3.358  1.00  0.00    -0.307 N 
HETATM    7  C   UNL     1      40.508 -11.537   3.471  1.00  0.00     0.258 C 
HETATM    8  O   UNL     1      41.700 -11.283   3.368  1.00  0.00    -0.267 OA
HETATM    9  H   UNL     1      38.903 -12.854   3.566  1.00  0.00     0.170 HD
BRANCH   7  10
HETATM   10  C   UNL     1      39.574 -10.458   3.854  1.00  0.00     0.049 A 
HETATM   11  C   UNL     1      39.362 -10.081   5.190  1.00  0.00     0.016 A 
HETATM   12  C   UNL     1      38.475  -9.026   5.452  1.00  0.00     0.019 A 
HETATM   13  C   UNL     1      37.828  -8.358   4.408  1.00  0.00     0.001 A 
HETATM   14  C   UNL     1      38.045  -8.745   3.087  1.00  0.00     0.001 A 
HETATM   15  C   UNL     1      38.912  -9.798   2.808  1.00  0.00     0.018 A 
BRANCH  11  16
HETATM   16  S   UNL     1      40.093 -10.936   6.581  1.00  0.00    -0.129 SA
BRANCH  16  17
HETATM   17  C   UNL     1      41.640  -9.991   6.746  1.00  0.00     0.075 C 
HETATM   18  C   UNL     1      42.826 -10.939   6.728  1.00  0.00     0.016 C 
ENDBRANCH  16  17
ENDBRANCH  11  16
ENDBRANCH   7  10
ENDBRANCH   1   6
BRANCH   2  19
HETATM   19  C   UNL     1      39.888 -13.901   0.590  1.00  0.00     0.732 A 
HETATM   20  N   UNL     1      39.507 -12.659   0.501  1.00  0.00    -0.067 NA
HETATM   21  C   UNL     1      38.866 -12.356  -0.667  1.00  0.00     0.065 A 
HETATM   22  C   UNL     1      38.623 -13.200  -1.671  1.00  0.00     0.036 A 
HETATM   23  C   UNL     1      38.341 -10.993  -0.970  1.00  0.00     0.061 C 
HETATM   24  C   UNL     1      37.904 -12.579  -2.806  1.00  0.00     0.047 C 
HETATM   25  C   UNL     1      39.060 -14.591  -1.557  1.00  0.00     0.268 A 
HETATM   26  C   UNL     1      37.448 -11.249  -2.193  1.00  0.00     0.011 C 
HETATM   27  O   UNL     1      38.872 -15.417  -2.437  1.00  0.00    -0.267 OA
HETATM   28  N   UNL     1      39.693 -14.862  -0.376  1.00  0.00    -0.152 N 
HETATM   29  H   UNL     1      40.030 -15.805  -0.205  1.00  0.00     0.188 HD
ENDBRANCH   2  19
BRANCH   4  30
HETATM   30  C   UNL     1      42.654 -16.941   3.151  1.00  0.00     0.105 A 
HETATM   31  O   UNL     1      43.246 -17.136   4.369  1.00  0.00    -0.320 OA
HETATM   32  C   UNL     1      43.969 -18.281   4.289  1.00  0.00     0.142 A 
HETATM   33  C   UNL     1      43.856 -18.837   3.038  1.00  0.00     0.027 A 
HETATM   34  C   UNL     1      43.008 -17.974   2.302  1.00  0.00     0.041 A 
ENDBRANCH   4  30
TORSDOF 6
ENDMDL
MODEL 10
REMARK VINA RESULT:      -7.4     15.538     17.188
REMARK  6 active torsions:
REMARK  status: ('A' for Active; 'I' for Inactive)
REMARK    1  A    between atoms: C_2  and  S_3 
REMARK    2  A    between atoms: S_3  and  C_4 
REMARK    3  A    between atoms: C_5  and  C_6 
REMARK       I    between atoms: C_6  and  N_7 
REMARK    4  A    between atoms: N_7  and  C_8 
REMARK    5  A    between atoms: N_9  and  C_10 
REMARK    6  A    between atoms: C_21  and  C_22 
ROOT
HETATM    1  C   UNL     1      43.121 -30.437   1.784  1.00  0.00     0.152 A 
HETATM    2  N   UNL     1      43.990 -30.899   2.763  1.00  0.00    -0.044 N 
HETATM    3  N   UNL     1      43.334 -31.455   3.826  1.00  0.00    -0.148 NA
HETATM    4  C   UNL     1      42.039 -31.331   3.502  1.00  0.00     0.115 A 
HETATM    5  C   UNL     1      41.856 -30.714   2.248  1.00  0.00     0.087 A 
ENDROOT
BRANCH   1   6
HETATM    6  N   UNL     1      43.575 -29.832   0.623  1.00  0.00    -0.307 N 
HETATM    7  C   UNL     1      44.064 -30.534  -0.460  1.00  0.00     0.258 C 
HETATM    8  O   UNL     1      44.250 -31.741  -0.545  1.00  0.00    -0.267 OA
HETATM    9  H   UNL     1      43.564 -28.813   0.592  1.00  0.00     0.170 HD
BRANCH   7  10
HETATM   10  C   UNL     1      44.481 -29.663  -1.579  1.00  0.00     0.049 A 
HETATM   11  C   UNL     1      45.531 -28.737  -1.464  1.00  0.00     0.016 A 
HETATM   12  C   UNL     1      45.871 -27.974  -2.590  1.00  0.00     0.019 A 
HETATM   13  C   UNL     1      45.191 -28.140  -3.801  1.00  0.00     0.001 A 
HETATM   14  C   UNL     1      44.149 -29.059  -3.899  1.00  0.00     0.001 A 
HETATM   15  C   UNL     1      43.789 -29.818  -2.789  1.00  0.00     0.018 A 
BRANCH  11  16
HETATM   16  S   UNL     1      46.395 -28.414   0.069  1.00  0.00    -0.129 SA
BRANCH  16  17
HETATM   17  C   UNL     1      48.106 -28.351  -0.549  1.00  0.00     0.075 C 
HETATM   18  C   UNL     1      48.598 -29.756  -0.848  1.00  0.00     0.016 C 
ENDBRANCH  16  17
ENDBRANCH  11  16
ENDBRANCH   7  10
ENDBRANCH   1   6
BRANCH   2  19
HETATM   19  C   UNL     1      45.398 -30.862   2.758  1.00  0.00     0.732 A 
HETATM   20  N   UNL     1      46.092 -29.954   3.381  1.00  0.00    -0.067 NA
HETATM   21  C   UNL     1      47.444 -30.094   3.243  1.00  0.00     0.065 A 
HETATM   22  C   UNL     1      48.068 -31.051   2.555  1.00  0.00     0.036 A 
HETATM   23  C   UNL     1      48.422 -29.156   3.868  1.00  0.00     0.061 C 
HETATM   24  C   UNL     1      49.543 -30.938   2.585  1.00  0.00     0.047 C 
HETATM   25  C   UNL     1      47.274 -32.066   1.863  1.00  0.00     0.268 A 
HETATM   26  C   UNL     1      49.733 -29.528   3.161  1.00  0.00     0.011 C 
HETATM   27  O   UNL     1      47.778 -32.972   1.216  1.00  0.00    -0.267 OA
HETATM   28  N   UNL     1      45.927 -31.895   2.018  1.00  0.00    -0.152 N 
HETATM   29  H   UNL     1      45.295 -32.551   1.570  1.00  0.00     0.188 HD
ENDBRANCH   2  19
BRANCH   4  30
HETATM   30  C   UNL     1      40.938 -31.800   4.392  1.00  0.00     0.105 A 
HETATM   31  O   UNL     1      40.918 -31.637   5.750  1.00  0.00    -0.320 OA
HETATM   32  C   UNL     1      39.768 -32.192   6.208  1.00  0.00     0.142 A 
HETATM   33  C   UNL     1      39.036 -32.713   5.169  1.00  0.00     0.027 A 
HETATM   34  C   UNL     1      39.788 -32.460   3.996  1.00  0.00     0.041 A 
ENDBRANCH   4  30
TORSDOF 6
ENDMDL
