MODEL 1
REMARK VINA RESULT:      -9.1      0.000      0.000
REMARK  6 active torsions:
REMARK  status: ('A' for Active; 'I' for Inactive)
REMARK    1  A    between atoms: O_2  and  C_3 
REMARK    2  A    between atoms: C_6  and  C_7 
REMARK    3  A    between atoms: C_12  and  C_13 
REMARK       I    between atoms: C_13  and  N_14 
REMARK    4  A    between atoms: N_14  and  C_15 
REMARK    5  A    between atoms: C_15  and  C_16 
REMARK    6  A    between atoms: C_24  and  C_25 
ROOT
HETATM    1  C   UNL     1      40.636 -15.436   3.131  1.00  0.00     0.118 C 
HETATM    2  N   UNL     1      40.086 -14.902   4.371  1.00  0.00    -0.366 N 
HETATM    3  C   UNL     1      40.295 -13.634   4.781  1.00  0.00     0.123 A 
HETATM    4  N   UNL     1      41.047 -12.756   4.052  1.00  0.00    -0.240 N 
HETATM    5  N   UNL     1      41.111 -11.520   4.577  1.00  0.00    -0.165 NA
HETATM    6  C   UNL     1      40.414 -11.631   5.732  1.00  0.00     0.148 A 
HETATM    7  C   UNL     1      39.881 -12.941   5.888  1.00  0.00     0.088 A 
HETATM    8  C   UNL     1      41.692 -13.089   2.797  1.00  0.00     0.221 C 
HETATM    9  C   UNL     1      41.004 -14.305   2.152  1.00  0.00     0.066 C 
HETATM   10  H   UNL     1      39.595 -15.575   4.960  1.00  0.00     0.161 HD
ENDROOT
BRANCH   6  11
HETATM   11  C   UNL     1      40.267 -10.507   6.670  1.00  0.00     0.272 C 
HETATM   12  N   UNL     1      41.407 -10.255   7.394  1.00  0.00    -0.351 N 
HETATM   13  H   UNL     1      42.215 -10.826   7.165  1.00  0.00     0.163 HD
HETATM   14  O   UNL     1      39.221  -9.878   6.794  1.00  0.00    -0.266 OA
BRANCH  12  15
HETATM   15  C   UNL     1      41.503  -9.220   8.387  1.00  0.00     0.161 C 
BRANCH  15  16
HETATM   16  C   UNL     1      42.780  -9.342   9.174  1.00  0.00    -0.041 A 
HETATM   17  C   UNL     1      43.921  -9.905   8.585  1.00  0.00     0.009 A 
HETATM   18  C   UNL     1      45.107 -10.025   9.311  1.00  0.00     0.001 A 
HETATM   19  C   UNL     1      45.162  -9.592  10.635  1.00  0.00     0.000 A 
HETATM   20  C   UNL     1      44.029  -9.044  11.236  1.00  0.00     0.001 A 
HETATM   21  C   UNL     1      42.843  -8.922  10.511  1.00  0.00     0.009 A 
ENDBRANCH  15  16
ENDBRANCH  12  15
ENDBRANCH   6  11
BRANCH   8  22
HETATM   22  C   UNL     1      43.180 -13.249   3.007  1.00  0.00     0.409 C 
HETATM   23  F   UNL     1      43.877 -12.102   2.906  1.00  0.00    -0.169 F 
HETATM   24  F   UNL     1      43.427 -13.764   4.239  1.00  0.00    -0.169 F 
HETATM   25  F   UNL     1      43.718 -14.122   2.122  1.00  0.00    -0.169 F 
ENDBRANCH   8  22
BRANCH   1  26
HETATM   26  C   UNL     1      41.740 -16.452   3.366  1.00  0.00    -0.035 A 
HETATM   27  C   UNL     1      42.226 -16.642   4.670  1.00  0.00     0.012 A 
HETATM   28  C   UNL     1      43.239 -17.571   4.931  1.00  0.00     0.037 A 
HETATM   29  C   UNL     1      43.784 -18.336   3.902  1.00  0.00     0.068 A 
HETATM   30  C   UNL     1      43.328 -18.143   2.600  1.00  0.00     0.037 A 
HETATM   31  C   UNL     1      42.322 -17.205   2.336  1.00  0.00     0.012 A 
BRANCH  29  32
HETATM   32  O   UNL     1      44.751 -19.221   4.292  1.00  0.00    -0.356 OA
HETATM   33  C   UNL     1      44.305 -20.385   4.978  1.00  0.00     0.210 C 
ENDBRANCH  29  32
ENDBRANCH   1  26
TORSDOF 6
ENDMDL
MODEL 2
REMARK VINA RESULT:      -8.4      3.333      9.117
REMARK  6 active torsions:
REMARK  status: ('A' for Active; 'I' for Inactive)
REMARK    1  A    between atoms: O_2  and  C_3 
REMARK    2  A    between atoms: C_6  and  C_7 
REMARK    3  A    between atoms: C_12  and  C_13 
REMARK       I    between atoms: C_13  and  N_14 
REMARK    4  A    between atoms: N_14  and  C_15 
REMARK    5  A    between atoms: C_15  and  C_16 
REMARK    6  A    between atoms: C_24  and  C_25 
ROOT
HETATM    1  C   UNL     1      44.701  -9.490   9.560  1.00  0.00     0.118 C 
HETATM    2  N   UNL     1      44.768 -10.822   8.970  1.00  0.00    -0.366 N 
HETATM    3  C   UNL     1      44.128 -11.152   7.830  1.00  0.00     0.123 A 
HETATM    4  N   UNL     1      43.364 -10.250   7.145  1.00  0.00    -0.240 N 
HETATM    5  N   UNL     1      42.839 -10.730   6.003  1.00  0.00    -0.165 NA
HETATM    6  C   UNL     1      43.241 -12.022   5.990  1.00  0.00     0.148 A 
HETATM    7  C   UNL     1      44.057 -12.320   7.116  1.00  0.00     0.088 A 
HETATM    8  C   UNL     1      43.157  -8.879   7.565  1.00  0.00     0.221 C 
HETATM    9  C   UNL     1      44.285  -8.438   8.514  1.00  0.00     0.066 C 
HETATM   10  H   UNL     1      45.267 -11.521   9.520  1.00  0.00     0.161 HD
ENDROOT
BRANCH   6  11
HETATM   11  C   UNL     1      42.844 -12.955   4.923  1.00  0.00     0.272 C 
HETATM   12  N   UNL     1      42.038 -13.974   5.369  1.00  0.00    -0.351 N 
HETATM   13  H   UNL     1      41.772 -13.936   6.348  1.00  0.00     0.163 HD
HETATM   14  O   UNL     1      43.217 -12.832   3.760  1.00  0.00    -0.266 OA
BRANCH  12  15
HETATM   15  C   UNL     1      41.538 -15.020   4.518  1.00  0.00     0.161 C 
BRANCH  15  16
HETATM   16  C   UNL     1      42.500 -16.176   4.459  1.00  0.00    -0.041 A 
HETATM   17  C   UNL     1      42.755 -16.822   3.241  1.00  0.00     0.009 A 
HETATM   18  C   UNL     1      43.643 -17.896   3.182  1.00  0.00     0.001 A 
HETATM   19  C   UNL     1      44.277 -18.343   4.340  1.00  0.00     0.000 A 
HETATM   20  C   UNL     1      44.021 -17.717   5.559  1.00  0.00     0.001 A 
HETATM   21  C   UNL     1      43.134 -16.642   5.620  1.00  0.00     0.009 A 
ENDBRANCH  15  16
ENDBRANCH  12  15
ENDBRANCH   6  11
BRANCH   8  22
HETATM   22  C   UNL     1      41.764  -8.715   8.129  1.00  0.00     0.409 C 
HETATM   23  F   UNL     1      41.367  -9.729   8.919  1.00  0.00    -0.169 F 
HETATM   24  F   UNL     1      41.688  -7.576   8.865  1.00  0.00    -0.169 F 
HETATM   25  F   UNL     1      40.839  -8.587   7.147  1.00  0.00    -0.169 F 
ENDBRANCH   8  22
BRANCH   1  26
HETATM   26  C   UNL     1      43.894  -9.455  10.845  1.00  0.00    -0.035 A 
HETATM   27  C   UNL     1      43.581  -8.211  11.421  1.00  0.00     0.012 A 
HETATM   28  C   UNL     1      42.836  -8.134  12.602  1.00  0.00     0.037 A 
HETATM   29  C   UNL     1      42.377  -9.290  13.230  1.00  0.00     0.068 A 
HETATM   30  C   UNL     1      42.697 -10.531  12.684  1.00  0.00     0.037 A 
HETATM   31  C   UNL     1      43.454 -10.610  11.508  1.00  0.00     0.012 A 
BRANCH  29  32
HETATM   32  O   UNL     1      41.643  -9.077  14.364  1.00  0.00    -0.356 OA
HETATM   33  C   UNL     1      41.934  -7.889  15.093  1.00  0.00     0.210 C 
ENDBRANCH  29  32
ENDBRANCH   1  26
TORSDOF 6
ENDMDL
MODEL 3
REMARK VINA RESULT:      -8.2      3.851      6.849
REMARK  6 active torsions:
REMARK  status: ('A' for Active; 'I' for Inactive)
REMARK    1  A    between atoms: O_2  and  C_3 
REMARK    2  A    between atoms: C_6  and  C_7 
REMARK    3  A    between atoms: C_12  and  C_13 
REMARK       I    between atoms: C_13  and  N_14 
REMARK    4  A    between atoms: N_14  and  C_15 
REMARK    5  A    between atoms: C_15  and  C_16 
REMARK    6  A    between atoms: C_24  and  C_25 
ROOT
HETATM    1  C   UNL     1      43.612 -14.956   4.799  1.00  0.00     0.118 C 
HETATM    2  N   UNL     1      43.063 -14.109   3.747  1.00  0.00    -0.366 N 
HETATM    3  C   UNL     1      41.850 -13.527   3.832  1.00  0.00     0.123 A 
HETATM    4  N   UNL     1      41.045 -13.694   4.924  1.00  0.00    -0.240 N 
HETATM    5  N   UNL     1      39.893 -13.002   4.868  1.00  0.00    -0.165 NA
HETATM    6  C   UNL     1      39.939 -12.410   3.652  1.00  0.00     0.148 A 
HETATM    7  C   UNL     1      41.155 -12.711   2.978  1.00  0.00     0.088 A 
HETATM    8  C   UNL     1      41.396 -14.504   6.073  1.00  0.00     0.221 C 
HETATM    9  C   UNL     1      42.923 -14.684   6.150  1.00  0.00     0.066 C 
HETATM   10  H   UNL     1      43.621 -14.049   2.895  1.00  0.00     0.161 HD
ENDROOT
BRANCH   6  11
HETATM   11  C   UNL     1      38.836 -11.579   3.143  1.00  0.00     0.272 C 
HETATM   12  N   UNL     1      38.273 -12.074   1.993  1.00  0.00    -0.351 N 
HETATM   13  H   UNL     1      38.638 -12.963   1.665  1.00  0.00     0.163 HD
HETATM   14  O   UNL     1      38.479 -10.541   3.693  1.00  0.00    -0.266 OA
BRANCH  12  15
HETATM   15  C   UNL     1      37.193 -11.428   1.297  1.00  0.00     0.161 C 
BRANCH  15  16
HETATM   16  C   UNL     1      37.502 -11.289  -0.170  1.00  0.00    -0.041 A 
HETATM   17  C   UNL     1      36.917 -10.260  -0.921  1.00  0.00     0.009 A 
HETATM   18  C   UNL     1      37.196 -10.129  -2.282  1.00  0.00     0.001 A 
HETATM   19  C   UNL     1      38.056 -11.030  -2.908  1.00  0.00     0.000 A 
HETATM   20  C   UNL     1      38.633 -12.066  -2.174  1.00  0.00     0.001 A 
HETATM   21  C   UNL     1      38.355 -12.198  -0.813  1.00  0.00     0.009 A 
ENDBRANCH  15  16
ENDBRANCH  12  15
ENDBRANCH   6  11
BRANCH   8  22
HETATM   22  C   UNL     1      40.613 -15.797   6.054  1.00  0.00     0.409 C 
HETATM   23  F   UNL     1      40.264 -16.211   4.823  1.00  0.00    -0.169 F 
HETATM   24  F   UNL     1      41.341 -16.793   6.623  1.00  0.00    -0.169 F 
HETATM   25  F   UNL     1      39.475 -15.702   6.783  1.00  0.00    -0.169 F 
ENDBRANCH   8  22
BRANCH   1  26
HETATM   26  C   UNL     1      43.672 -16.422   4.406  1.00  0.00    -0.035 A 
HETATM   27  C   UNL     1      43.179 -16.811   3.148  1.00  0.00     0.012 A 
HETATM   28  C   UNL     1      43.220 -18.149   2.745  1.00  0.00     0.037 A 
HETATM   29  C   UNL     1      43.759 -19.128   3.578  1.00  0.00     0.068 A 
HETATM   30  C   UNL     1      44.231 -18.760   4.836  1.00  0.00     0.037 A 
HETATM   31  C   UNL     1      44.180 -17.422   5.246  1.00  0.00     0.012 A 
BRANCH  29  32
HETATM   32  O   UNL     1      43.758 -20.392   3.058  1.00  0.00    -0.356 OA
HETATM   33  C   UNL     1      43.533 -20.500   1.657  1.00  0.00     0.210 C 
ENDBRANCH  29  32
ENDBRANCH   1  26
TORSDOF 6
ENDMDL
MODEL 4
REMARK VINA RESULT:      -8.1     17.101     19.023
REMARK  6 active torsions:
REMARK  status: ('A' for Active; 'I' for Inactive)
REMARK    1  A    between atoms: O_2  and  C_3 
REMARK    2  A    between atoms: C_6  and  C_7 
REMARK    3  A    between atoms: C_12  and  C_13 
REMARK       I    between atoms: C_13  and  N_14 
REMARK    4  A    between atoms: N_14  and  C_15 
REMARK    5  A    between atoms: C_15  and  C_16 
REMARK    6  A    between atoms: C_24  and  C_25 
ROOT
HETATM    1  C   UNL     1      45.799 -27.838  -0.725  1.00  0.00     0.118 C 
HETATM    2  N   UNL     1      45.307 -28.363   0.544  1.00  0.00    -0.366 N 
HETATM    3  C   UNL     1      46.085 -29.049   1.405  1.00  0.00     0.123 A 
HETATM    4  N   UNL     1      47.402 -29.302   1.141  1.00  0.00    -0.240 N 
HETATM    5  N   UNL     1      48.044 -29.952   2.128  1.00  0.00    -0.165 NA
HETATM    6  C   UNL     1      47.072 -30.178   3.042  1.00  0.00     0.148 A 
HETATM    7  C   UNL     1      45.833 -29.618   2.625  1.00  0.00     0.088 A 
HETATM    8  C   UNL     1      48.083 -28.880  -0.066  1.00  0.00     0.221 C 
HETATM    9  C   UNL     1      47.333 -27.703  -0.715  1.00  0.00     0.066 C 
HETATM   10  H   UNL     1      44.307 -28.250   0.707  1.00  0.00     0.161 HD
ENDROOT
BRANCH   6  11
HETATM   11  C   UNL     1      47.324 -30.922   4.287  1.00  0.00     0.272 C 
HETATM   12  N   UNL     1      48.228 -31.945   4.131  1.00  0.00    -0.351 N 
HETATM   13  H   UNL     1      48.646 -32.033   3.211  1.00  0.00     0.163 HD
HETATM   14  O   UNL     1      46.764 -30.653   5.345  1.00  0.00    -0.266 OA
BRANCH  12  15
HETATM   15  C   UNL     1      48.621 -32.825   5.199  1.00  0.00     0.161 C 
BRANCH  15  16
HETATM   16  C   UNL     1      49.971 -32.443   5.745  1.00  0.00    -0.041 A 
HETATM   17  C   UNL     1      50.714 -31.419   5.139  1.00  0.00     0.009 A 
HETATM   18  C   UNL     1      51.967 -31.065   5.638  1.00  0.00     0.001 A 
HETATM   19  C   UNL     1      52.496 -31.735   6.740  1.00  0.00     0.000 A 
HETATM   20  C   UNL     1      51.772 -32.764   7.342  1.00  0.00     0.001 A 
HETATM   21  C   UNL     1      50.518 -33.120   6.844  1.00  0.00     0.009 A 
ENDBRANCH  15  16
ENDBRANCH  12  15
ENDBRANCH   6  11
BRANCH   8  22
HETATM   22  C   UNL     1      48.300 -30.064  -0.980  1.00  0.00     0.409 C 
HETATM   23  F   UNL     1      47.342 -31.005  -0.898  1.00  0.00    -0.169 F 
HETATM   24  F   UNL     1      48.353 -29.654  -2.273  1.00  0.00    -0.169 F 
HETATM   25  F   UNL     1      49.483 -30.675  -0.733  1.00  0.00    -0.169 F 
ENDBRANCH   8  22
BRANCH   1  26
HETATM   26  C   UNL     1      45.239 -28.581  -1.926  1.00  0.00    -0.035 A 
HETATM   27  C   UNL     1      45.420 -28.037  -3.209  1.00  0.00     0.012 A 
HETATM   28  C   UNL     1      44.926 -28.690  -4.342  1.00  0.00     0.037 A 
HETATM   29  C   UNL     1      44.249 -29.903  -4.225  1.00  0.00     0.068 A 
HETATM   30  C   UNL     1      44.042 -30.443  -2.958  1.00  0.00     0.037 A 
HETATM   31  C   UNL     1      44.527 -29.784  -1.822  1.00  0.00     0.012 A 
BRANCH  29  32
HETATM   32  O   UNL     1      43.835 -30.448  -5.409  1.00  0.00    -0.356 OA
HETATM   33  C   UNL     1      44.753 -31.317  -6.061  1.00  0.00     0.210 C 
ENDBRANCH  29  32
ENDBRANCH   1  26
TORSDOF 6
ENDMDL
MODEL 5
REMARK VINA RESULT:      -8.0      3.781      9.882
REMARK  6 active torsions:
REMARK  status: ('A' for Active; 'I' for Inactive)
REMARK    1  A    between atoms: O_2  and  C_3 
REMARK    2  A    between atoms: C_6  and  C_7 
REMARK    3  A    between atoms: C_12  and  C_13 
REMARK       I    between atoms: C_13  and  N_14 
REMARK    4  A    between atoms: N_14  and  C_15 
REMARK    5  A    between atoms: C_15  and  C_16 
REMARK    6  A    between atoms: C_24  and  C_25 
ROOT
HETATM    1  C   UNL     1      41.674  -9.188  10.109  1.00  0.00     0.118 C 
HETATM    2  N   UNL     1      41.440  -9.359   8.679  1.00  0.00    -0.366 N 
HETATM    3  C   UNL     1      42.319  -9.971   7.860  1.00  0.00     0.123 A 
HETATM    4  N   UNL     1      43.501 -10.478   8.321  1.00  0.00    -0.240 N 
HETATM    5  N   UNL     1      44.235 -11.102   7.381  1.00  0.00    -0.165 NA
HETATM    6  C   UNL     1      43.511 -10.931   6.251  1.00  0.00     0.148 A 
HETATM    7  C   UNL     1      42.299 -10.234   6.515  1.00  0.00     0.088 A 
HETATM    8  C   UNL     1      43.931 -10.405   9.702  1.00  0.00     0.221 C 
HETATM    9  C   UNL     1      42.718 -10.197  10.626  1.00  0.00     0.066 C 
HETATM   10  H   UNL     1      40.601  -8.909   8.315  1.00  0.00     0.161 HD
ENDROOT
BRANCH   6  11
HETATM   11  C   UNL     1      43.973 -11.420   4.942  1.00  0.00     0.272 C 
HETATM   12  N   UNL     1      43.007 -12.112   4.252  1.00  0.00    -0.351 N 
HETATM   13  H   UNL     1      42.093 -12.158   4.691  1.00  0.00     0.163 HD
HETATM   14  O   UNL     1      45.114 -11.236   4.530  1.00  0.00    -0.266 OA
BRANCH  12  15
HETATM   15  C   UNL     1      43.227 -12.703   2.960  1.00  0.00     0.161 C 
BRANCH  15  16
HETATM   16  C   UNL     1      43.115 -14.203   3.025  1.00  0.00    -0.041 A 
HETATM   17  C   UNL     1      42.829 -14.837   4.243  1.00  0.00     0.009 A 
HETATM   18  C   UNL     1      42.727 -16.227   4.311  1.00  0.00     0.001 A 
HETATM   19  C   UNL     1      42.921 -16.998   3.165  1.00  0.00     0.000 A 
HETATM   20  C   UNL     1      43.219 -16.379   1.952  1.00  0.00     0.001 A 
HETATM   21  C   UNL     1      43.320 -14.989   1.883  1.00  0.00     0.009 A 
ENDBRANCH  15  16
ENDBRANCH  12  15
ENDBRANCH   6  11
BRANCH   8  22
HETATM   22  C   UNL     1      45.018  -9.365   9.852  1.00  0.00     0.409 C 
HETATM   23  F   UNL     1      44.904  -8.325   9.007  1.00  0.00    -0.169 F 
HETATM   24  F   UNL     1      45.014  -8.862  11.114  1.00  0.00    -0.169 F 
HETATM   25  F   UNL     1      46.249  -9.899   9.667  1.00  0.00    -0.169 F 
ENDBRANCH   8  22
BRANCH   1  26
HETATM   26  C   UNL     1      41.947  -7.745  10.494  1.00  0.00    -0.035 A 
HETATM   27  C   UNL     1      41.969  -7.395  11.854  1.00  0.00     0.012 A 
HETATM   28  C   UNL     1      42.221  -6.079  12.253  1.00  0.00     0.037 A 
HETATM   29  C   UNL     1      42.466  -5.084  11.307  1.00  0.00     0.068 A 
HETATM   30  C   UNL     1      42.426  -5.411   9.954  1.00  0.00     0.037 A 
HETATM   31  C   UNL     1      42.162  -6.727   9.554  1.00  0.00     0.012 A 
BRANCH  29  32
HETATM   32  O   UNL     1      42.719  -3.845  11.827  1.00  0.00    -0.356 OA
HETATM   33  C   UNL     1      43.250  -2.877  10.928  1.00  0.00     0.210 C 
ENDBRANCH  29  32
ENDBRANCH   1  26
TORSDOF 6
ENDMDL
MODEL 6
REMARK VINA RESULT:      -7.6      3.254      8.993
REMARK  6 active torsions:
REMARK  status: ('A' for Active; 'I' for Inactive)
REMARK    1  A    between atoms: O_2  and  C_3 
REMARK    2  A    between atoms: C_6  and  C_7 
REMARK    3  A    between atoms: C_12  and  C_13 
REMARK       I    between atoms: C_13  and  N_14 
REMARK    4  A    between atoms: N_14  and  C_15 
REMARK    5  A    between atoms: C_15  and  C_16 
REMARK    6  A    between atoms: C_24  and  C_25 
ROOT
HETATM    1  C   UNL     1      43.467  -8.603   7.975  1.00  0.00     0.118 C 
HETATM    2  N   UNL     1      43.614 -10.006   7.604  1.00  0.00    -0.366 N 
HETATM    3  C   UNL     1      42.652 -10.701   6.962  1.00  0.00     0.123 A 
HETATM    4  N   UNL     1      41.461 -10.128   6.613  1.00  0.00    -0.240 N 
HETATM    5  N   UNL     1      40.637 -10.946   5.934  1.00  0.00    -0.165 NA
HETATM    6  C   UNL     1      41.313 -12.118   5.901  1.00  0.00     0.148 A 
HETATM    7  C   UNL     1      42.584 -11.998   6.529  1.00  0.00     0.088 A 
HETATM    8  C   UNL     1      41.110  -8.752   6.897  1.00  0.00     0.221 C 
HETATM    9  C   UNL     1      42.381  -7.915   7.126  1.00  0.00     0.066 C 
HETATM   10  H   UNL     1      44.464 -10.461   7.936  1.00  0.00     0.161 HD
ENDROOT
BRANCH   6  11
HETATM   11  C   UNL     1      40.750 -13.330   5.285  1.00  0.00     0.272 C 
HETATM   12  N   UNL     1      41.047 -14.477   5.980  1.00  0.00    -0.351 N 
HETATM   13  H   UNL     1      41.564 -14.352   6.846  1.00  0.00     0.163 HD
HETATM   14  O   UNL     1      40.096 -13.305   4.247  1.00  0.00    -0.266 OA
BRANCH  12  15
HETATM   15  C   UNL     1      40.625 -15.788   5.566  1.00  0.00     0.161 C 
BRANCH  15  16
HETATM   16  C   UNL     1      41.631 -16.411   4.635  1.00  0.00    -0.041 A 
HETATM   17  C   UNL     1      42.829 -16.935   5.140  1.00  0.00     0.009 A 
HETATM   18  C   UNL     1      43.767 -17.511   4.283  1.00  0.00     0.001 A 
HETATM   19  C   UNL     1      43.522 -17.560   2.911  1.00  0.00     0.000 A 
HETATM   20  C   UNL     1      42.340 -17.029   2.396  1.00  0.00     0.001 A 
HETATM   21  C   UNL     1      41.400 -16.454   3.253  1.00  0.00     0.009 A 
ENDBRANCH  15  16
ENDBRANCH  12  15
ENDBRANCH   6  11
BRANCH   8  22
HETATM   22  C   UNL     1      40.111  -8.696   8.030  1.00  0.00     0.409 C 
HETATM   23  F   UNL     1      40.082  -7.519   8.681  1.00  0.00    -0.169 F 
HETATM   24  F   UNL     1      38.857  -8.929   7.562  1.00  0.00    -0.169 F 
HETATM   25  F   UNL     1      40.349  -9.658   8.954  1.00  0.00    -0.169 F 
ENDBRANCH   8  22
BRANCH   1  26
HETATM   26  C   UNL     1      43.320  -8.401   9.472  1.00  0.00    -0.035 A 
HETATM   27  C   UNL     1      43.598  -9.474  10.336  1.00  0.00     0.012 A 
HETATM   28  C   UNL     1      43.480  -9.329  11.722  1.00  0.00     0.037 A 
HETATM   29  C   UNL     1      43.092  -8.112  12.279  1.00  0.00     0.068 A 
HETATM   30  C   UNL     1      42.791  -7.046  11.435  1.00  0.00     0.037 A 
HETATM   31  C   UNL     1      42.897  -7.193  10.046  1.00  0.00     0.012 A 
BRANCH  29  32
HETATM   32  O   UNL     1      43.035  -8.096  13.645  1.00  0.00    -0.356 OA
HETATM   33  C   UNL     1      42.087  -8.970  14.250  1.00  0.00     0.210 C 
ENDBRANCH  29  32
ENDBRANCH   1  26
TORSDOF 6
ENDMDL
MODEL 7
REMARK VINA RESULT:      -7.5     17.139     19.163
REMARK  6 active torsions:
REMARK  status: ('A' for Active; 'I' for Inactive)
REMARK    1  A    between atoms: O_2  and  C_3 
REMARK    2  A    between atoms: C_6  and  C_7 
REMARK    3  A    between atoms: C_12  and  C_13 
REMARK       I    between atoms: C_13  and  N_14 
REMARK    4  A    between atoms: N_14  and  C_15 
REMARK    5  A    between atoms: C_15  and  C_16 
REMARK    6  A    between atoms: C_24  and  C_25 
ROOT
HETATM    1  C   UNL     1      44.132 -28.946  -1.170  1.00  0.00     0.118 C 
HETATM    2  N   UNL     1      44.243 -29.587   0.135  1.00  0.00    -0.366 N 
HETATM    3  C   UNL     1      45.352 -29.510   0.899  1.00  0.00     0.123 A 
HETATM    4  N   UNL     1      46.458 -28.817   0.495  1.00  0.00    -0.240 N 
HETATM    5  N   UNL     1      47.454 -28.798   1.398  1.00  0.00    -0.165 NA
HETATM    6  C   UNL     1      46.982 -29.569   2.405  1.00  0.00     0.148 A 
HETATM    7  C   UNL     1      45.663 -30.025   2.130  1.00  0.00     0.088 A 
HETATM    8  C   UNL     1      46.559 -28.117  -0.770  1.00  0.00     0.221 C 
HETATM    9  C   UNL     1      45.155 -27.804  -1.318  1.00  0.00     0.066 C 
HETATM   10  H   UNL     1      43.454 -30.174   0.405  1.00  0.00     0.161 HD
ENDROOT
BRANCH   6  11
HETATM   11  C   UNL     1      47.781 -29.867   3.604  1.00  0.00     0.272 C 
HETATM   12  N   UNL     1      49.134 -29.755   3.394  1.00  0.00    -0.351 N 
HETATM   13  H   UNL     1      49.416 -29.435   2.472  1.00  0.00     0.163 HD
HETATM   14  O   UNL     1      47.276 -30.198   4.673  1.00  0.00    -0.266 OA
BRANCH  12  15
HETATM   15  C   UNL     1      50.118 -30.016   4.409  1.00  0.00     0.161 C 
BRANCH  15  16
HETATM   16  C   UNL     1      50.541 -31.460   4.394  1.00  0.00    -0.041 A 
HETATM   17  C   UNL     1      50.594 -32.168   3.184  1.00  0.00     0.009 A 
HETATM   18  C   UNL     1      50.981 -33.508   3.165  1.00  0.00     0.001 A 
HETATM   19  C   UNL     1      51.310 -34.158   4.354  1.00  0.00     0.000 A 
HETATM   20  C   UNL     1      51.248 -33.468   5.564  1.00  0.00     0.001 A 
HETATM   21  C   UNL     1      50.862 -32.127   5.585  1.00  0.00     0.009 A 
ENDBRANCH  15  16
ENDBRANCH  12  15
ENDBRANCH   6  11
BRANCH   8  22
HETATM   22  C   UNL     1      47.443 -28.892  -1.721  1.00  0.00     0.409 C 
HETATM   23  F   UNL     1      48.749 -28.580  -1.636  1.00  0.00    -0.169 F 
HETATM   24  F   UNL     1      47.331 -30.225  -1.485  1.00  0.00    -0.169 F 
HETATM   25  F   UNL     1      47.071 -28.708  -3.010  1.00  0.00    -0.169 F 
ENDBRANCH   8  22
BRANCH   1  26
HETATM   26  C   UNL     1      44.126 -29.940  -2.317  1.00  0.00    -0.035 A 
HETATM   27  C   UNL     1      43.972 -29.465  -3.630  1.00  0.00     0.012 A 
HETATM   28  C   UNL     1      43.965 -30.346  -4.716  1.00  0.00     0.037 A 
HETATM   29  C   UNL     1      44.121 -31.717  -4.521  1.00  0.00     0.068 A 
HETATM   30  C   UNL     1      44.253 -32.206  -3.223  1.00  0.00     0.037 A 
HETATM   31  C   UNL     1      44.247 -31.325  -2.134  1.00  0.00     0.012 A 
BRANCH  29  32
HETATM   32  O   UNL     1      44.118 -32.467  -5.664  1.00  0.00    -0.356 OA
HETATM   33  C   UNL     1      44.339 -31.764  -6.882  1.00  0.00     0.210 C 
ENDBRANCH  29  32
ENDBRANCH   1  26
TORSDOF 6
ENDMDL
MODEL 8
REMARK VINA RESULT:      -7.5     17.617     19.378
REMARK  6 active torsions:
REMARK  status: ('A' for Active; 'I' for Inactive)
REMARK    1  A    between atoms: O_2  and  C_3 
REMARK    2  A    between atoms: C_6  and  C_7 
REMARK    3  A    between atoms: C_12  and  C_13 
REMARK       I    between atoms: C_13  and  N_14 
REMARK    4  A    between atoms: N_14  and  C_15 
REMARK    5  A    between atoms: C_15  and  C_16 
REMARK    6  A    between atoms: C_24  and  C_25 
ROOT
HETATM    1  C   UNL     1      44.248 -30.336  -1.133  1.00  0.00     0.118 C 
HETATM    2  N   UNL     1      45.207 -31.147  -0.392  1.00  0.00    -0.366 N 
HETATM    3  C   UNL     1      46.383 -30.665   0.058  1.00  0.00     0.123 A 
HETATM    4  N   UNL     1      46.759 -29.368  -0.156  1.00  0.00    -0.240 N 
HETATM    5  N   UNL     1      47.937 -29.039   0.403  1.00  0.00    -0.165 NA
HETATM    6  C   UNL     1      48.363 -30.202   0.951  1.00  0.00     0.148 A 
HETATM    7  C   UNL     1      47.409 -31.240   0.760  1.00  0.00     0.088 A 
HETATM    8  C   UNL     1      45.959 -28.401  -0.879  1.00  0.00     0.221 C 
HETATM    9  C   UNL     1      44.482 -28.834  -0.887  1.00  0.00     0.066 C 
HETATM   10  H   UNL     1      44.970 -32.135  -0.303  1.00  0.00     0.161 HD
ENDROOT
BRANCH   6  11
HETATM   11  C   UNL     1      49.659 -30.316   1.637  1.00  0.00     0.272 C 
HETATM   12  N   UNL     1      49.596 -29.992   2.970  1.00  0.00    -0.351 N 
HETATM   13  H   UNL     1      48.673 -29.767   3.330  1.00  0.00     0.163 HD
HETATM   14  O   UNL     1      50.688 -30.654   1.060  1.00  0.00    -0.266 OA
BRANCH  12  15
HETATM   15  C   UNL     1      50.736 -30.008   3.846  1.00  0.00     0.161 C 
BRANCH  15  16
HETATM   16  C   UNL     1      50.602 -31.087   4.887  1.00  0.00    -0.041 A 
HETATM   17  C   UNL     1      49.362 -31.703   5.112  1.00  0.00     0.009 A 
HETATM   18  C   UNL     1      49.232 -32.700   6.078  1.00  0.00     0.001 A 
HETATM   19  C   UNL     1      50.336 -33.086   6.837  1.00  0.00     0.000 A 
HETATM   20  C   UNL     1      51.570 -32.472   6.632  1.00  0.00     0.001 A 
HETATM   21  C   UNL     1      51.703 -31.474   5.665  1.00  0.00     0.009 A 
ENDBRANCH  15  16
ENDBRANCH  12  15
ENDBRANCH   6  11
BRANCH   8  22
HETATM   22  C   UNL     1      46.549 -28.161  -2.249  1.00  0.00     0.409 C 
HETATM   23  F   UNL     1      45.709 -27.566  -3.114  1.00  0.00    -0.169 F 
HETATM   24  F   UNL     1      47.652 -27.374  -2.153  1.00  0.00    -0.169 F 
HETATM   25  F   UNL     1      46.963 -29.316  -2.824  1.00  0.00    -0.169 F 
ENDBRANCH   8  22
BRANCH   1  26
HETATM   26  C   UNL     1      44.152 -30.728  -2.597  1.00  0.00    -0.035 A 
HETATM   27  C   UNL     1      44.381 -32.066  -2.961  1.00  0.00     0.012 A 
HETATM   28  C   UNL     1      44.298 -32.471  -4.297  1.00  0.00     0.037 A 
HETATM   29  C   UNL     1      43.976 -31.556  -5.299  1.00  0.00     0.068 A 
HETATM   30  C   UNL     1      43.767 -30.222  -4.956  1.00  0.00     0.037 A 
HETATM   31  C   UNL     1      43.862 -29.814  -3.620  1.00  0.00     0.012 A 
BRANCH  29  32
HETATM   32  O   UNL     1      43.906 -32.082  -6.559  1.00  0.00    -0.356 OA
HETATM   33  C   UNL     1      43.911 -31.151  -7.635  1.00  0.00     0.210 C 
ENDBRANCH  29  32
ENDBRANCH   1  26
TORSDOF 6
ENDMDL
MODEL 9
REMARK VINA RESULT:      -7.4      3.432      9.507
REMARK  6 active torsions:
REMARK  status: ('A' for Active; 'I' for Inactive)
REMARK    1  A    between atoms: O_2  and  C_3 
REMARK    2  A    between atoms: C_6  and  C_7 
REMARK    3  A    between atoms: C_12  and  C_13 
REMARK       I    between atoms: C_13  and  N_14 
REMARK    4  A    between atoms: N_14  and  C_15 
REMARK    5  A    between atoms: C_15  and  C_16 
REMARK    6  A    between atoms: C_24  and  C_25 
ROOT
HETATM    1  C   UNL     1      43.767  -8.025   8.621  1.00  0.00     0.118 C 
HETATM    2  N   UNL     1      44.445  -9.304   8.440  1.00  0.00    -0.366 N 
HETATM    3  C   UNL     1      43.893 -10.340   7.778  1.00  0.00     0.123 A 
HETATM    4  N   UNL     1      42.645 -10.259   7.226  1.00  0.00    -0.240 N 
HETATM    5  N   UNL     1      42.268 -11.364   6.557  1.00  0.00    -0.165 NA
HETATM    6  C   UNL     1      43.305 -12.214   6.743  1.00  0.00     0.148 A 
HETATM    7  C   UNL     1      44.344 -11.603   7.497  1.00  0.00     0.088 A 
HETATM    8  C   UNL     1      41.800  -9.085   7.301  1.00  0.00     0.221 C 
HETATM    9  C   UNL     1      42.653  -7.833   7.576  1.00  0.00     0.066 C 
HETATM   10  H   UNL     1      45.340  -9.398   8.921  1.00  0.00     0.161 HD
ENDROOT
BRANCH   6  11
HETATM   11  C   UNL     1      43.296 -13.588   6.214  1.00  0.00     0.272 C 
HETATM   12  N   UNL     1      42.315 -13.799   5.276  1.00  0.00    -0.351 N 
HETATM   13  H   UNL     1      41.757 -12.988   5.024  1.00  0.00     0.163 HD
HETATM   14  O   UNL     1      44.081 -14.450   6.595  1.00  0.00    -0.266 OA
BRANCH  12  15
HETATM   15  C   UNL     1      42.094 -15.065   4.631  1.00  0.00     0.161 C 
BRANCH  15  16
HETATM   16  C   UNL     1      41.509 -14.876   3.256  1.00  0.00    -0.041 A 
HETATM   17  C   UNL     1      41.881 -13.772   2.476  1.00  0.00     0.009 A 
HETATM   18  C   UNL     1      41.339 -13.591   1.203  1.00  0.00     0.001 A 
HETATM   19  C   UNL     1      40.414 -14.504   0.701  1.00  0.00     0.000 A 
HETATM   20  C   UNL     1      40.026 -15.598   1.474  1.00  0.00     0.001 A 
HETATM   21  C   UNL     1      40.568 -15.782   2.747  1.00  0.00     0.009 A 
ENDBRANCH  15  16
ENDBRANCH  12  15
ENDBRANCH   6  11
BRANCH   8  22
HETATM   22  C   UNL     1      40.684  -9.313   8.295  1.00  0.00     0.409 C 
HETATM   23  F   UNL     1      41.088  -9.837   9.465  1.00  0.00    -0.169 F 
HETATM   24  F   UNL     1      40.057  -8.140   8.572  1.00  0.00    -0.169 F 
HETATM   25  F   UNL     1      39.731 -10.136   7.795  1.00  0.00    -0.169 F 
ENDBRANCH   8  22
BRANCH   1  26
HETATM   26  C   UNL     1      43.334  -7.786  10.057  1.00  0.00    -0.035 A 
HETATM   27  C   UNL     1      43.771  -8.670  11.058  1.00  0.00     0.012 A 
HETATM   28  C   UNL     1      43.399  -8.483  12.393  1.00  0.00     0.037 A 
HETATM   29  C   UNL     1      42.593  -7.408  12.763  1.00  0.00     0.068 A 
HETATM   30  C   UNL     1      42.134  -6.535  11.779  1.00  0.00     0.037 A 
HETATM   31  C   UNL     1      42.496  -6.728  10.440  1.00  0.00     0.012 A 
BRANCH  29  32
HETATM   32  O   UNL     1      42.319  -7.326  14.100  1.00  0.00    -0.356 OA
HETATM   33  C   UNL     1      41.778  -8.494  14.708  1.00  0.00     0.210 C 
ENDBRANCH  29  32
ENDBRANCH   1  26
TORSDOF 6
ENDMDL
MODEL 10
REMARK VINA RESULT:      -7.3      3.751      9.237
REMARK  6 active torsions:
REMARK  status: ('A' for Active; 'I' for Inactive)
REMARK    1  A    between atoms: O_2  and  C_3 
REMARK    2  A    between atoms: C_6  and  C_7 
REMARK    3  A    between atoms: C_12  and  C_13 
REMARK       I    between atoms: C_13  and  N_14 
REMARK    4  A    between atoms: N_14  and  C_15 
REMARK    5  A    between atoms: C_15  and  C_16 
REMARK    6  A    between atoms: C_24  and  C_25 
ROOT
HETATM    1  C   UNL     1      44.537  -9.294   9.564  1.00  0.00     0.118 C 
HETATM    2  N   UNL     1      44.624 -10.628   8.980  1.00  0.00    -0.366 N 
HETATM    3  C   UNL     1      43.928 -10.997   7.886  1.00  0.00     0.123 A 
HETATM    4  N   UNL     1      43.083 -10.135   7.245  1.00  0.00    -0.240 N 
HETATM    5  N   UNL     1      42.508 -10.648   6.142  1.00  0.00    -0.165 NA
HETATM    6  C   UNL     1      42.963 -11.922   6.113  1.00  0.00     0.148 A 
HETATM    7  C   UNL     1      43.862 -12.173   7.187  1.00  0.00     0.088 A 
HETATM    8  C   UNL     1      42.844  -8.770   7.667  1.00  0.00     0.221 C 
HETATM    9  C   UNL     1      44.011  -8.271   8.539  1.00  0.00     0.066 C 
HETATM   10  H   UNL     1      45.186 -11.300   9.502  1.00  0.00     0.161 HD
ENDROOT
BRANCH   6  11
HETATM   11  C   UNL     1      42.541 -12.882   5.080  1.00  0.00     0.272 C 
HETATM   12  N   UNL     1      41.222 -13.250   5.193  1.00  0.00    -0.351 N 
HETATM   13  H   UNL     1      40.691 -12.788   5.925  1.00  0.00     0.163 HD
HETATM   14  O   UNL     1      43.304 -13.313   4.222  1.00  0.00    -0.266 OA
BRANCH  12  15
HETATM   15  C   UNL     1      40.583 -14.191   4.312  1.00  0.00     0.161 C 
BRANCH  15  16
HETATM   16  C   UNL     1      40.051 -13.505   3.082  1.00  0.00    -0.041 A 
HETATM   17  C   UNL     1      40.456 -13.927   1.807  1.00  0.00     0.009 A 
HETATM   18  C   UNL     1      39.969 -13.293   0.664  1.00  0.00     0.001 A 
HETATM   19  C   UNL     1      39.082 -12.224   0.783  1.00  0.00     0.000 A 
HETATM   20  C   UNL     1      38.684 -11.787   2.045  1.00  0.00     0.001 A 
HETATM   21  C   UNL     1      39.169 -12.421   3.190  1.00  0.00     0.009 A 
ENDBRANCH  15  16
ENDBRANCH  12  15
ENDBRANCH   6  11
BRANCH   8  22
HETATM   22  C   UNL     1      41.484  -8.659   8.317  1.00  0.00     0.409 C 
HETATM   23  F   UNL     1      41.354  -7.608   9.146  1.00  0.00    -0.169 F 
HETATM   24  F   UNL     1      40.519  -8.547   7.369  1.00  0.00    -0.169 F 
HETATM   25  F   UNL     1      41.180  -9.771   9.030  1.00  0.00    -0.169 F 
ENDBRANCH   8  22
BRANCH   1  26
HETATM   26  C   UNL     1      43.812  -9.280  10.898  1.00  0.00    -0.035 A 
HETATM   27  C   UNL     1      43.571  -8.049  11.530  1.00  0.00     0.012 A 
HETATM   28  C   UNL     1      42.903  -7.991  12.757  1.00  0.00     0.037 A 
HETATM   29  C   UNL     1      42.451  -9.155  13.377  1.00  0.00     0.068 A 
HETATM   30  C   UNL     1      42.702 -10.385  12.773  1.00  0.00     0.037 A 
HETATM   31  C   UNL     1      43.381 -10.445  11.550  1.00  0.00     0.012 A 
BRANCH  29  32
HETATM   32  O   UNL     1      41.795  -8.960  14.561  1.00  0.00    -0.356 OA
HETATM   33  C   UNL     1      41.806  -7.635  15.080  1.00  0.00     0.210 C 
ENDBRANCH  29  32
ENDBRANCH   1  26
TORSDOF 6
ENDMDL
