MODEL 1
REMARK VINA RESULT:      -9.5      0.000      0.000
REMARK  5 active torsions:
REMARK  status: ('A' for Active; 'I' for Inactive)
REMARK    1  A    between atoms: C_4  and  C_5 
REMARK    2  A    between atoms: C_5  and  C_6 
REMARK    3  A    between atoms: C_6  and  N_7 
REMARK       I    between atoms: N_7  and  C_8 
REMARK       I    between atoms: C_8  and  N_9 
REMARK    4  A    between atoms: N_9  and  N_10 
REMARK       I    between atoms: N_10  and  C_11 
REMARK    5  A    between atoms: C_11  and  C_12 
ROOT
HETATM    1  N   UNL     1      42.825 -14.496   4.928  1.00  0.00    -0.341 N 
HETATM    2  C   UNL     1      41.664 -13.850   4.575  1.00  0.00     0.334 C 
HETATM    3  N   UNL     1      41.347 -12.792   5.385  1.00  0.00    -0.249 N 
HETATM    4  O   UNL     1      40.960 -14.163   3.621  1.00  0.00    -0.246 OA
HETATM    5  H   UNL     1      42.948 -14.483   5.932  1.00  0.00     0.164 HD
HETATM    6  H   UNL     1      40.459 -12.314   5.245  1.00  0.00     0.192 HD
ENDROOT
BRANCH   3   7
HETATM    7  N   UNL     1      42.197 -12.320   6.397  1.00  0.00    -0.262 N 
HETATM    8  C   UNL     1      42.965 -11.201   6.110  1.00  0.00     0.272 C 
HETATM    9  O   UNL     1      42.761 -10.515   5.110  1.00  0.00    -0.266 OA
HETATM   10  H   UNL     1      42.550 -13.022   7.037  1.00  0.00     0.190 HD
BRANCH   8  11
HETATM   11  C   UNL     1      44.044 -10.921   7.059  1.00  0.00     0.061 A 
HETATM   12  C   UNL     1      43.904 -10.303   8.352  1.00  0.00     0.008 A 
HETATM   13  C   UNL     1      45.173 -10.215   8.923  1.00  0.00     0.043 A 
HETATM   14  C   UNL     1      42.808  -9.807   9.091  1.00  0.00     0.015 A 
HETATM   15  C   UNL     1      45.402  -9.658  10.188  1.00  0.00     0.030 A 
HETATM   16  N   UNL     1      46.059 -10.758   8.025  1.00  0.00    -0.364 N 
HETATM   17  C   UNL     1      44.298  -9.176  10.895  1.00  0.00     0.002 A 
HETATM   18  C   UNL     1      43.017  -9.248  10.357  1.00  0.00     0.001 A 
HETATM   19  H   UNL     1      47.056 -10.826   8.179  1.00  0.00     0.165 HD
HETATM   20  C   UNL     1      45.397 -11.191   6.905  1.00  0.00     0.106 A 
ENDBRANCH   8  11
ENDBRANCH   3   7
BRANCH   1  21
HETATM   21  C   UNL     1      43.189 -15.710   4.222  1.00  0.00     0.138 C 
BRANCH  21  22
HETATM   22  C   UNL     1      43.511 -16.865   5.192  1.00  0.00     0.003 C 
HETATM   23  C   UNL     1      42.611 -16.982   6.476  1.00  0.00     0.016 C 
HETATM   24  C   UNL     1      43.720 -16.310   7.300  1.00  0.00     0.002 C 
HETATM   25  C   UNL     1      44.714 -16.634   6.176  1.00  0.00     0.016 C 
BRANCH  22  26
HETATM   26  C   UNL     1      43.607 -18.212   4.287  1.00  0.00    -0.048 A 
HETATM   27  C   UNL     1      43.274 -18.210   2.916  1.00  0.00     0.008 A 
HETATM   28  C   UNL     1      43.324 -19.369   2.137  1.00  0.00     0.001 A 
HETATM   29  C   UNL     1      43.709 -20.576   2.710  1.00  0.00     0.000 A 
HETATM   30  C   UNL     1      44.041 -20.621   4.060  1.00  0.00     0.001 A 
HETATM   31  C   UNL     1      43.987 -19.456   4.832  1.00  0.00     0.008 A 
ENDBRANCH  22  26
ENDBRANCH  21  22
ENDBRANCH   1  21
TORSDOF 5
ENDMDL
MODEL 2
REMARK VINA RESULT:      -9.4      4.871      7.940
REMARK  5 active torsions:
REMARK  status: ('A' for Active; 'I' for Inactive)
REMARK    1  A    between atoms: C_4  and  C_5 
REMARK    2  A    between atoms: C_5  and  C_6 
REMARK    3  A    between atoms: C_6  and  N_7 
REMARK       I    between atoms: N_7  and  C_8 
REMARK       I    between atoms: C_8  and  N_9 
REMARK    4  A    between atoms: N_9  and  N_10 
REMARK       I    between atoms: N_10  and  C_11 
REMARK    5  A    between atoms: C_11  and  C_12 
ROOT
HETATM    1  N   UNL     1      40.322 -15.246   3.427  1.00  0.00    -0.341 N 
HETATM    2  C   UNL     1      40.099 -14.218   4.313  1.00  0.00     0.334 C 
HETATM    3  N   UNL     1      39.388 -13.173   3.786  1.00  0.00    -0.249 N 
HETATM    4  O   UNL     1      40.481 -14.214   5.478  1.00  0.00    -0.246 OA
HETATM    5  H   UNL     1      40.436 -14.888   2.488  1.00  0.00     0.164 HD
HETATM    6  H   UNL     1      39.255 -12.335   4.349  1.00  0.00     0.192 HD
ENDROOT
BRANCH   3   7
HETATM    7  N   UNL     1      38.817 -13.204   2.505  1.00  0.00    -0.262 N 
HETATM    8  C   UNL     1      39.463 -12.492   1.503  1.00  0.00     0.272 C 
HETATM    9  O   UNL     1      40.594 -12.036   1.660  1.00  0.00    -0.266 OA
HETATM   10  H   UNL     1      37.809 -13.313   2.476  1.00  0.00     0.190 HD
BRANCH   8  11
HETATM   11  C   UNL     1      38.691 -12.298   0.275  1.00  0.00     0.061 A 
HETATM   12  C   UNL     1      38.684 -13.167  -0.874  1.00  0.00     0.008 A 
HETATM   13  C   UNL     1      37.826 -12.613  -1.823  1.00  0.00     0.043 A 
HETATM   14  C   UNL     1      39.336 -14.378  -1.195  1.00  0.00     0.015 A 
HETATM   15  C   UNL     1      37.587 -13.203  -3.071  1.00  0.00     0.030 A 
HETATM   16  N   UNL     1      37.320 -11.456  -1.284  1.00  0.00    -0.364 N 
HETATM   17  C   UNL     1      38.245 -14.401  -3.359  1.00  0.00     0.002 A 
HETATM   18  C   UNL     1      39.108 -14.984  -2.436  1.00  0.00     0.001 A 
HETATM   19  H   UNL     1      36.667 -10.845  -1.757  1.00  0.00     0.165 HD
HETATM   20  C   UNL     1      37.825 -11.256  -0.024  1.00  0.00     0.106 A 
ENDBRANCH   8  11
ENDBRANCH   3   7
BRANCH   1  21
HETATM   21  C   UNL     1      41.175 -16.345   3.835  1.00  0.00     0.138 C 
BRANCH  21  22
HETATM   22  C   UNL     1      42.479 -16.397   3.014  1.00  0.00     0.003 C 
HETATM   23  C   UNL     1      43.530 -15.259   3.285  1.00  0.00     0.016 C 
HETATM   24  C   UNL     1      43.053 -14.534   2.017  1.00  0.00     0.002 C 
HETATM   25  C   UNL     1      42.402 -15.842   1.546  1.00  0.00     0.016 C 
BRANCH  22  26
HETATM   26  C   UNL     1      43.049 -17.913   3.151  1.00  0.00    -0.048 A 
HETATM   27  C   UNL     1      42.867 -18.870   2.129  1.00  0.00     0.008 A 
HETATM   28  C   UNL     1      43.328 -20.183   2.251  1.00  0.00     0.001 A 
HETATM   29  C   UNL     1      43.986 -20.586   3.407  1.00  0.00     0.000 A 
HETATM   30  C   UNL     1      44.181 -19.674   4.439  1.00  0.00     0.001 A 
HETATM   31  C   UNL     1      43.716 -18.362   4.310  1.00  0.00     0.008 A 
ENDBRANCH  22  26
ENDBRANCH  21  22
ENDBRANCH   1  21
TORSDOF 5
ENDMDL
MODEL 3
REMARK VINA RESULT:      -9.4      2.487      3.718
REMARK  5 active torsions:
REMARK  status: ('A' for Active; 'I' for Inactive)
REMARK    1  A    between atoms: C_4  and  C_5 
REMARK    2  A    between atoms: C_5  and  C_6 
REMARK    3  A    between atoms: C_6  and  N_7 
REMARK       I    between atoms: N_7  and  C_8 
REMARK       I    between atoms: C_8  and  N_9 
REMARK    4  A    between atoms: N_9  and  N_10 
REMARK       I    between atoms: N_10  and  C_11 
REMARK    5  A    between atoms: C_11  and  C_12 
ROOT
HETATM    1  N   UNL     1      40.545 -15.437   3.065  1.00  0.00    -0.341 N 
HETATM    2  C   UNL     1      39.702 -14.864   2.143  1.00  0.00     0.334 C 
HETATM    3  N   UNL     1      39.085 -13.723   2.586  1.00  0.00    -0.249 N 
HETATM    4  O   UNL     1      39.506 -15.303   1.016  1.00  0.00    -0.246 OA
HETATM    5  H   UNL     1      40.192 -15.300   4.003  1.00  0.00     0.164 HD
HETATM    6  H   UNL     1      38.379 -13.284   1.997  1.00  0.00     0.192 HD
ENDROOT
BRANCH   3   7
HETATM    7  N   UNL     1      39.390 -13.115   3.813  1.00  0.00    -0.262 N 
HETATM    8  C   UNL     1      40.011 -11.875   3.770  1.00  0.00     0.272 C 
HETATM    9  O   UNL     1      40.097 -11.230   2.727  1.00  0.00    -0.266 OA
HETATM   10  H   UNL     1      39.580 -13.747   4.582  1.00  0.00     0.190 HD
BRANCH   8  11
HETATM   11  C   UNL     1      40.580 -11.414   5.038  1.00  0.00     0.061 A 
HETATM   12  C   UNL     1      41.979 -11.365   5.377  1.00  0.00     0.008 A 
HETATM   13  C   UNL     1      42.085 -10.874   6.678  1.00  0.00     0.043 A 
HETATM   14  C   UNL     1      43.169 -11.698   4.694  1.00  0.00     0.015 A 
HETATM   15  C   UNL     1      43.314 -10.700   7.328  1.00  0.00     0.030 A 
HETATM   16  N   UNL     1      40.810 -10.626   7.122  1.00  0.00    -0.364 N 
HETATM   17  C   UNL     1      44.474 -11.038   6.626  1.00  0.00     0.002 A 
HETATM   18  C   UNL     1      44.406 -11.530   5.326  1.00  0.00     0.001 A 
HETATM   19  H   UNL     1      40.588 -10.262   8.039  1.00  0.00     0.165 HD
HETATM   20  C   UNL     1      39.897 -10.939   6.148  1.00  0.00     0.106 A 
ENDBRANCH   8  11
ENDBRANCH   3   7
BRANCH   1  21
HETATM   21  C   UNL     1      41.149 -16.718   2.754  1.00  0.00     0.138 C 
BRANCH  21  22
HETATM   22  C   UNL     1      42.688 -16.628   2.691  1.00  0.00     0.003 C 
HETATM   23  C   UNL     1      43.356 -15.420   3.442  1.00  0.00     0.016 C 
HETATM   24  C   UNL     1      43.506 -14.685   2.102  1.00  0.00     0.002 C 
HETATM   25  C   UNL     1      43.298 -16.022   1.376  1.00  0.00     0.016 C 
BRANCH  22  26
HETATM   26  C   UNL     1      43.251 -18.097   3.101  1.00  0.00    -0.048 A 
HETATM   27  C   UNL     1      43.162 -19.198   2.224  1.00  0.00     0.008 A 
HETATM   28  C   UNL     1      43.617 -20.470   2.579  1.00  0.00     0.001 A 
HETATM   29  C   UNL     1      44.177 -20.684   3.833  1.00  0.00     0.000 A 
HETATM   30  C   UNL     1      44.278 -19.625   4.729  1.00  0.00     0.001 A 
HETATM   31  C   UNL     1      43.820 -18.355   4.366  1.00  0.00     0.008 A 
ENDBRANCH  22  26
ENDBRANCH  21  22
ENDBRANCH   1  21
TORSDOF 5
ENDMDL
MODEL 4
REMARK VINA RESULT:      -9.3      1.505      2.276
REMARK  5 active torsions:
REMARK  status: ('A' for Active; 'I' for Inactive)
REMARK    1  A    between atoms: C_4  and  C_5 
REMARK    2  A    between atoms: C_5  and  C_6 
REMARK    3  A    between atoms: C_6  and  N_7 
REMARK       I    between atoms: N_7  and  C_8 
REMARK       I    between atoms: C_8  and  N_9 
REMARK    4  A    between atoms: N_9  and  N_10 
REMARK       I    between atoms: N_10  and  C_11 
REMARK    5  A    between atoms: C_11  and  C_12 
ROOT
HETATM    1  N   UNL     1      42.195 -14.904   4.526  1.00  0.00    -0.341 N 
HETATM    2  C   UNL     1      40.972 -14.839   3.899  1.00  0.00     0.334 C 
HETATM    3  N   UNL     1      40.097 -13.958   4.479  1.00  0.00    -0.249 N 
HETATM    4  O   UNL     1      40.667 -15.489   2.906  1.00  0.00    -0.246 OA
HETATM    5  H   UNL     1      42.092 -14.766   5.522  1.00  0.00     0.164 HD
HETATM    6  H   UNL     1      39.141 -13.913   4.130  1.00  0.00     0.192 HD
ENDROOT
BRANCH   3   7
HETATM    7  N   UNL     1      40.457 -13.098   5.527  1.00  0.00    -0.262 N 
HETATM    8  C   UNL     1      40.867 -11.817   5.185  1.00  0.00     0.272 C 
HETATM    9  O   UNL     1      40.718 -11.372   4.048  1.00  0.00    -0.266 OA
HETATM   10  H   UNL     1      40.840 -13.546   6.352  1.00  0.00     0.190 HD
BRANCH   8  11
HETATM   11  C   UNL     1      41.514 -11.058   6.257  1.00  0.00     0.061 A 
HETATM   12  C   UNL     1      42.899 -11.142   6.644  1.00  0.00     0.008 A 
HETATM   13  C   UNL     1      43.097 -10.263   7.709  1.00  0.00     0.043 A 
HETATM   14  C   UNL     1      44.005 -11.891   6.187  1.00  0.00     0.015 A 
HETATM   15  C   UNL     1      44.338 -10.096   8.337  1.00  0.00     0.030 A 
HETATM   16  N   UNL     1      41.891  -9.659   7.965  1.00  0.00    -0.364 N 
HETATM   17  C   UNL     1      45.414 -10.850   7.862  1.00  0.00     0.002 A 
HETATM   18  C   UNL     1      45.253 -11.736   6.801  1.00  0.00     0.001 A 
HETATM   19  H   UNL     1      41.742  -8.971   8.691  1.00  0.00     0.165 HD
HETATM   20  C   UNL     1      40.933 -10.121   7.099  1.00  0.00     0.106 A 
ENDBRANCH   8  11
ENDBRANCH   3   7
BRANCH   1  21
HETATM   21  C   UNL     1      43.153 -15.897   4.079  1.00  0.00     0.138 C 
BRANCH  21  22
HETATM   22  C   UNL     1      43.527 -16.882   5.205  1.00  0.00     0.003 C 
HETATM   23  C   UNL     1      42.631 -16.852   6.497  1.00  0.00     0.016 C 
HETATM   24  C   UNL     1      43.706 -16.017   7.209  1.00  0.00     0.002 C 
HETATM   25  C   UNL     1      44.717 -16.454   6.139  1.00  0.00     0.016 C 
BRANCH  22  26
HETATM   26  C   UNL     1      43.688 -18.341   4.506  1.00  0.00    -0.048 A 
HETATM   27  C   UNL     1      43.536 -18.517   3.114  1.00  0.00     0.008 A 
HETATM   28  C   UNL     1      43.642 -19.772   2.508  1.00  0.00     0.001 A 
HETATM   29  C   UNL     1      43.902 -20.898   3.281  1.00  0.00     0.000 A 
HETATM   30  C   UNL     1      44.053 -20.766   4.657  1.00  0.00     0.001 A 
HETATM   31  C   UNL     1      43.944 -19.507   5.256  1.00  0.00     0.008 A 
ENDBRANCH  22  26
ENDBRANCH  21  22
ENDBRANCH   1  21
TORSDOF 5
ENDMDL
MODEL 5
REMARK VINA RESULT:      -9.3      1.585      8.814
REMARK  5 active torsions:
REMARK  status: ('A' for Active; 'I' for Inactive)
REMARK    1  A    between atoms: C_4  and  C_5 
REMARK    2  A    between atoms: C_5  and  C_6 
REMARK    3  A    between atoms: C_6  and  N_7 
REMARK       I    between atoms: N_7  and  C_8 
REMARK       I    between atoms: C_8  and  N_9 
REMARK    4  A    between atoms: N_9  and  N_10 
REMARK       I    between atoms: N_10  and  C_11 
REMARK    5  A    between atoms: C_11  and  C_12 
ROOT
HETATM    1  N   UNL     1      42.698 -10.722   7.375  1.00  0.00    -0.341 N 
HETATM    2  C   UNL     1      41.466 -10.857   6.779  1.00  0.00     0.334 C 
HETATM    3  N   UNL     1      41.248 -12.091   6.225  1.00  0.00    -0.249 N 
HETATM    4  O   UNL     1      40.615  -9.976   6.741  1.00  0.00    -0.246 OA
HETATM    5  H   UNL     1      43.395 -11.260   6.878  1.00  0.00     0.164 HD
HETATM    6  H   UNL     1      40.396 -12.246   5.689  1.00  0.00     0.192 HD
ENDROOT
BRANCH   3   7
HETATM    7  N   UNL     1      42.140 -13.165   6.371  1.00  0.00    -0.262 N 
HETATM    8  C   UNL     1      42.548 -13.813   5.214  1.00  0.00     0.272 C 
HETATM    9  O   UNL     1      42.326 -13.347   4.098  1.00  0.00    -0.266 OA
HETATM   10  H   UNL     1      42.065 -13.682   7.239  1.00  0.00     0.190 HD
BRANCH   8  11
HETATM   11  C   UNL     1      43.224 -15.095   5.419  1.00  0.00     0.061 A 
HETATM   12  C   UNL     1      43.348 -16.158   4.454  1.00  0.00     0.008 A 
HETATM   13  C   UNL     1      44.053 -17.200   5.056  1.00  0.00     0.043 A 
HETATM   14  C   UNL     1      42.919 -16.330   3.120  1.00  0.00     0.015 A 
HETATM   15  C   UNL     1      44.350 -18.399   4.395  1.00  0.00     0.030 A 
HETATM   16  N   UNL     1      44.356 -16.798   6.333  1.00  0.00    -0.364 N 
HETATM   17  C   UNL     1      43.914 -18.539   3.076  1.00  0.00     0.002 A 
HETATM   18  C   UNL     1      43.208 -17.520   2.443  1.00  0.00     0.001 A 
HETATM   19  H   UNL     1      44.868 -17.361   7.000  1.00  0.00     0.165 HD
HETATM   20  C   UNL     1      43.871 -15.537   6.564  1.00  0.00     0.106 A 
ENDBRANCH   8  11
ENDBRANCH   3   7
BRANCH   1  21
HETATM   21  C   UNL     1      43.088  -9.420   7.879  1.00  0.00     0.138 C 
BRANCH  21  22
HETATM   22  C   UNL     1      44.309  -9.508   8.817  1.00  0.00     0.003 C 
HETATM   23  C   UNL     1      45.524  -8.567   8.485  1.00  0.00     0.016 C 
HETATM   24  C   UNL     1      46.251  -9.754   7.834  1.00  0.00     0.002 C 
HETATM   25  C   UNL     1      45.295 -10.706   8.568  1.00  0.00     0.016 C 
BRANCH  22  26
HETATM   26  C   UNL     1      43.734  -9.388  10.333  1.00  0.00    -0.048 A 
HETATM   27  C   UNL     1      43.471 -10.530  11.119  1.00  0.00     0.008 A 
HETATM   28  C   UNL     1      42.949 -10.438  12.411  1.00  0.00     0.001 A 
HETATM   29  C   UNL     1      42.669  -9.193  12.962  1.00  0.00     0.000 A 
HETATM   30  C   UNL     1      42.910  -8.043  12.217  1.00  0.00     0.001 A 
HETATM   31  C   UNL     1      43.432  -8.144  10.924  1.00  0.00     0.008 A 
ENDBRANCH  22  26
ENDBRANCH  21  22
ENDBRANCH   1  21
TORSDOF 5
ENDMDL
MODEL 6
REMARK VINA RESULT:      -9.3      3.867      7.278
REMARK  5 active torsions:
REMARK  status: ('A' for Active; 'I' for Inactive)
REMARK    1  A    between atoms: C_4  and  C_5 
REMARK    2  A    between atoms: C_5  and  C_6 
REMARK    3  A    between atoms: C_6  and  N_7 
REMARK       I    between atoms: N_7  and  C_8 
REMARK       I    between atoms: C_8  and  N_9 
REMARK    4  A    between atoms: N_9  and  N_10 
REMARK       I    between atoms: N_10  and  C_11 
REMARK    5  A    between atoms: C_11  and  C_12 
ROOT
HETATM    1  N   UNL     1      40.491 -13.549   4.655  1.00  0.00    -0.341 N 
HETATM    2  C   UNL     1      40.098 -13.333   5.955  1.00  0.00     0.334 C 
HETATM    3  N   UNL     1      40.202 -14.438   6.759  1.00  0.00    -0.249 N 
HETATM    4  O   UNL     1      39.695 -12.259   6.388  1.00  0.00    -0.246 OA
HETATM    5  H   UNL     1      40.269 -14.492   4.368  1.00  0.00     0.164 HD
HETATM    6  H   UNL     1      39.850 -14.387   7.713  1.00  0.00     0.192 HD
ENDROOT
BRANCH   3   7
HETATM    7  N   UNL     1      40.788 -15.640   6.335  1.00  0.00    -0.262 N 
HETATM    8  C   UNL     1      42.069 -15.918   6.791  1.00  0.00     0.272 C 
HETATM    9  O   UNL     1      42.590 -15.265   7.694  1.00  0.00    -0.266 OA
HETATM   10  H   UNL     1      40.493 -15.976   5.426  1.00  0.00     0.190 HD
BRANCH   8  11
HETATM   11  C   UNL     1      42.757 -17.011   6.102  1.00  0.00     0.061 A 
HETATM   12  C   UNL     1      42.877 -17.178   4.677  1.00  0.00     0.008 A 
HETATM   13  C   UNL     1      43.598 -18.349   4.444  1.00  0.00     0.043 A 
HETATM   14  C   UNL     1      42.435 -16.437   3.559  1.00  0.00     0.015 A 
HETATM   15  C   UNL     1      43.896 -18.816   3.157  1.00  0.00     0.030 A 
HETATM   16  N   UNL     1      43.913 -18.880   5.670  1.00  0.00    -0.364 N 
HETATM   17  C   UNL     1      43.445 -18.062   2.071  1.00  0.00     0.002 A 
HETATM   18  C   UNL     1      42.725 -16.888   2.266  1.00  0.00     0.001 A 
HETATM   19  H   UNL     1      44.436 -19.736   5.802  1.00  0.00     0.165 HD
HETATM   20  C   UNL     1      43.420 -18.087   6.674  1.00  0.00     0.106 A 
ENDBRANCH   8  11
ENDBRANCH   3   7
BRANCH   1  21
HETATM   21  C   UNL     1      40.300 -12.488   3.685  1.00  0.00     0.138 C 
BRANCH  21  22
HETATM   22  C   UNL     1      41.461 -12.417   2.673  1.00  0.00     0.003 C 
HETATM   23  C   UNL     1      42.846 -12.993   3.146  1.00  0.00     0.016 C 
HETATM   24  C   UNL     1      43.332 -11.563   3.427  1.00  0.00     0.002 C 
HETATM   25  C   UNL     1      42.192 -11.032   2.546  1.00  0.00     0.016 C 
BRANCH  22  26
HETATM   26  C   UNL     1      40.895 -13.031   1.279  1.00  0.00    -0.048 A 
HETATM   27  C   UNL     1      40.387 -14.345   1.198  1.00  0.00     0.008 A 
HETATM   28  C   UNL     1      39.926 -14.891  -0.002  1.00  0.00     0.001 A 
HETATM   29  C   UNL     1      39.961 -14.137  -1.169  1.00  0.00     0.000 A 
HETATM   30  C   UNL     1      40.459 -12.839  -1.132  1.00  0.00     0.001 A 
HETATM   31  C   UNL     1      40.920 -12.300   0.073  1.00  0.00     0.008 A 
ENDBRANCH  22  26
ENDBRANCH  21  22
ENDBRANCH   1  21
TORSDOF 5
ENDMDL
MODEL 7
REMARK VINA RESULT:      -9.2      3.913      5.798
REMARK  5 active torsions:
REMARK  status: ('A' for Active; 'I' for Inactive)
REMARK    1  A    between atoms: C_4  and  C_5 
REMARK    2  A    between atoms: C_5  and  C_6 
REMARK    3  A    between atoms: C_6  and  N_7 
REMARK       I    between atoms: N_7  and  C_8 
REMARK       I    between atoms: C_8  and  N_9 
REMARK    4  A    between atoms: N_9  and  N_10 
REMARK       I    between atoms: N_10  and  C_11 
REMARK    5  A    between atoms: C_11  and  C_12 
ROOT
HETATM    1  N   UNL     1      41.889 -15.170   4.776  1.00  0.00    -0.341 N 
HETATM    2  C   UNL     1      41.451 -15.310   6.072  1.00  0.00     0.334 C 
HETATM    3  N   UNL     1      40.417 -14.474   6.403  1.00  0.00    -0.249 N 
HETATM    4  O   UNL     1      41.917 -16.107   6.878  1.00  0.00    -0.246 OA
HETATM    5  H   UNL     1      41.807 -14.209   4.474  1.00  0.00     0.164 HD
HETATM    6  H   UNL     1      40.092 -14.452   7.368  1.00  0.00     0.192 HD
ENDROOT
BRANCH   3   7
HETATM    7  N   UNL     1      39.768 -13.651   5.470  1.00  0.00    -0.262 N 
HETATM    8  C   UNL     1      40.284 -12.377   5.280  1.00  0.00     0.272 C 
HETATM    9  O   UNL     1      41.380 -12.049   5.731  1.00  0.00    -0.266 OA
HETATM   10  H   UNL     1      38.774 -13.814   5.357  1.00  0.00     0.190 HD
BRANCH   8  11
HETATM   11  C   UNL     1      39.421 -11.455   4.540  1.00  0.00     0.061 A 
HETATM   12  C   UNL     1      39.119 -11.513   3.133  1.00  0.00     0.008 A 
HETATM   13  C   UNL     1      38.270 -10.448   2.835  1.00  0.00     0.043 A 
HETATM   14  C   UNL     1      39.494 -12.377   2.081  1.00  0.00     0.015 A 
HETATM   15  C   UNL     1      37.780 -10.202   1.545  1.00  0.00     0.030 A 
HETATM   16  N   UNL     1      38.052  -9.764   4.005  1.00  0.00    -0.364 N 
HETATM   17  C   UNL     1      38.169 -11.074   0.525  1.00  0.00     0.002 A 
HETATM   18  C   UNL     1      39.014 -12.149   0.787  1.00  0.00     0.001 A 
HETATM   19  H   UNL     1      37.470  -8.941   4.084  1.00  0.00     0.165 HD
HETATM   20  C   UNL     1      38.731 -10.359   5.038  1.00  0.00     0.106 A 
ENDBRANCH   8  11
ENDBRANCH   3   7
BRANCH   1  21
HETATM   21  C   UNL     1      43.063 -15.909   4.355  1.00  0.00     0.138 C 
BRANCH  21  22
HETATM   22  C   UNL     1      42.849 -16.604   2.995  1.00  0.00     0.003 C 
HETATM   23  C   UNL     1      43.453 -15.887   1.732  1.00  0.00     0.016 C 
HETATM   24  C   UNL     1      42.059 -15.339   1.392  1.00  0.00     0.002 C 
HETATM   25  C   UNL     1      41.446 -16.397   2.319  1.00  0.00     0.016 C 
BRANCH  22  26
HETATM   26  C   UNL     1      43.299 -18.153   3.193  1.00  0.00    -0.048 A 
HETATM   27  C   UNL     1      43.134 -19.111   2.170  1.00  0.00     0.008 A 
HETATM   28  C   UNL     1      43.491 -20.451   2.342  1.00  0.00     0.001 A 
HETATM   29  C   UNL     1      44.025 -20.879   3.552  1.00  0.00     0.000 A 
HETATM   30  C   UNL     1      44.198 -19.967   4.587  1.00  0.00     0.001 A 
HETATM   31  C   UNL     1      43.838 -18.628   4.408  1.00  0.00     0.008 A 
ENDBRANCH  22  26
ENDBRANCH  21  22
ENDBRANCH   1  21
TORSDOF 5
ENDMDL
MODEL 8
REMARK VINA RESULT:      -9.2      3.296      6.308
REMARK  5 active torsions:
REMARK  status: ('A' for Active; 'I' for Inactive)
REMARK    1  A    between atoms: C_4  and  C_5 
REMARK    2  A    between atoms: C_5  and  C_6 
REMARK    3  A    between atoms: C_6  and  N_7 
REMARK       I    between atoms: N_7  and  C_8 
REMARK       I    between atoms: C_8  and  N_9 
REMARK    4  A    between atoms: N_9  and  N_10 
REMARK       I    between atoms: N_10  and  C_11 
REMARK    5  A    between atoms: C_11  and  C_12 
ROOT
HETATM    1  N   UNL     1      43.182 -13.405   4.783  1.00  0.00    -0.341 N 
HETATM    2  C   UNL     1      43.311 -12.142   5.311  1.00  0.00     0.334 C 
HETATM    3  N   UNL     1      43.274 -11.142   4.376  1.00  0.00    -0.249 N 
HETATM    4  O   UNL     1      43.439 -11.901   6.506  1.00  0.00    -0.246 OA
HETATM    5  H   UNL     1      43.613 -13.455   3.870  1.00  0.00     0.164 HD
HETATM    6  H   UNL     1      43.449 -10.183   4.673  1.00  0.00     0.192 HD
ENDROOT
BRANCH   3   7
HETATM    7  N   UNL     1      42.989 -11.370   3.021  1.00  0.00    -0.262 N 
HETATM    8  C   UNL     1      41.865 -10.749   2.495  1.00  0.00     0.272 C 
HETATM    9  O   UNL     1      41.266  -9.867   3.108  1.00  0.00    -0.266 OA
HETATM   10  H   UNL     1      43.287 -12.267   2.655  1.00  0.00     0.190 HD
BRANCH   8  11
HETATM   11  C   UNL     1      41.432 -11.240   1.185  1.00  0.00     0.061 A 
HETATM   12  C   UNL     1      40.908 -12.550   0.897  1.00  0.00     0.008 A 
HETATM   13  C   UNL     1      40.629 -12.607  -0.468  1.00  0.00     0.043 A 
HETATM   14  C   UNL     1      40.648 -13.698   1.676  1.00  0.00     0.015 A 
HETATM   15  C   UNL     1      40.106 -13.747  -1.092  1.00  0.00     0.030 A 
HETATM   16  N   UNL     1      40.961 -11.385  -1.000  1.00  0.00    -0.364 N 
HETATM   17  C   UNL     1      39.859 -14.868  -0.295  1.00  0.00     0.002 A 
HETATM   18  C   UNL     1      40.124 -14.847   1.071  1.00  0.00     0.001 A 
HETATM   19  H   UNL     1      40.861 -11.143  -1.977  1.00  0.00     0.165 HD
HETATM   20  C   UNL     1      41.438 -10.553  -0.020  1.00  0.00     0.106 A 
ENDBRANCH   8  11
ENDBRANCH   3   7
BRANCH   1  21
HETATM   21  C   UNL     1      43.339 -14.547   5.664  1.00  0.00     0.138 C 
BRANCH  21  22
HETATM   22  C   UNL     1      42.229 -15.596   5.448  1.00  0.00     0.003 C 
HETATM   23  C   UNL     1      40.818 -15.054   5.017  1.00  0.00     0.016 C 
HETATM   24  C   UNL     1      40.332 -15.201   6.467  1.00  0.00     0.002 C 
HETATM   25  C   UNL     1      41.518 -16.136   6.742  1.00  0.00     0.016 C 
BRANCH  22  26
HETATM   26  C   UNL     1      42.859 -16.739   4.478  1.00  0.00    -0.048 A 
HETATM   27  C   UNL     1      42.410 -16.917   3.152  1.00  0.00     0.008 A 
HETATM   28  C   UNL     1      42.924 -17.915   2.321  1.00  0.00     0.001 A 
HETATM   29  C   UNL     1      43.909 -18.775   2.794  1.00  0.00     0.000 A 
HETATM   30  C   UNL     1      44.375 -18.635   4.096  1.00  0.00     0.001 A 
HETATM   31  C   UNL     1      43.854 -17.634   4.922  1.00  0.00     0.008 A 
ENDBRANCH  22  26
ENDBRANCH  21  22
ENDBRANCH   1  21
TORSDOF 5
ENDMDL
MODEL 9
REMARK VINA RESULT:      -9.1      4.284      7.495
REMARK  5 active torsions:
REMARK  status: ('A' for Active; 'I' for Inactive)
REMARK    1  A    between atoms: C_4  and  C_5 
REMARK    2  A    between atoms: C_5  and  C_6 
REMARK    3  A    between atoms: C_6  and  N_7 
REMARK       I    between atoms: N_7  and  C_8 
REMARK       I    between atoms: C_8  and  N_9 
REMARK    4  A    between atoms: N_9  and  N_10 
REMARK       I    between atoms: N_10  and  C_11 
REMARK    5  A    between atoms: C_11  and  C_12 
ROOT
HETATM    1  N   UNL     1      40.249 -15.084   4.999  1.00  0.00    -0.341 N 
HETATM    2  C   UNL     1      39.829 -13.813   5.317  1.00  0.00     0.334 C 
HETATM    3  N   UNL     1      39.419 -13.076   4.237  1.00  0.00    -0.249 N 
HETATM    4  O   UNL     1      39.801 -13.357   6.454  1.00  0.00    -0.246 OA
HETATM    5  H   UNL     1      40.697 -15.094   4.092  1.00  0.00     0.164 HD
HETATM    6  H   UNL     1      39.174 -12.097   4.374  1.00  0.00     0.192 HD
ENDROOT
BRANCH   3   7
HETATM    7  N   UNL     1      39.305 -13.610   2.944  1.00  0.00    -0.262 N 
HETATM    8  C   UNL     1      40.039 -12.999   1.938  1.00  0.00     0.272 C 
HETATM    9  O   UNL     1      40.918 -12.175   2.187  1.00  0.00    -0.266 OA
HETATM   10  H   UNL     1      38.416 -14.045   2.726  1.00  0.00     0.190 HD
BRANCH   8  11
HETATM   11  C   UNL     1      39.670 -13.379   0.573  1.00  0.00     0.061 A 
HETATM   12  C   UNL     1      38.861 -12.610  -0.337  1.00  0.00     0.008 A 
HETATM   13  C   UNL     1      38.747 -13.335  -1.523  1.00  0.00     0.043 A 
HETATM   14  C   UNL     1      38.210 -11.359  -0.258  1.00  0.00     0.015 A 
HETATM   15  C   UNL     1      38.018 -12.876  -2.628  1.00  0.00     0.030 A 
HETATM   16  N   UNL     1      39.457 -14.498  -1.356  1.00  0.00    -0.364 N 
HETATM   17  C   UNL     1      37.386 -11.635  -2.520  1.00  0.00     0.002 A 
HETATM   18  C   UNL     1      37.479 -10.884  -1.353  1.00  0.00     0.001 A 
HETATM   19  H   UNL     1      39.547 -15.216  -2.062  1.00  0.00     0.165 HD
HETATM   20  C   UNL     1      40.022 -14.536  -0.107  1.00  0.00     0.106 A 
ENDBRANCH   8  11
ENDBRANCH   3   7
BRANCH   1  21
HETATM   21  C   UNL     1      40.828 -15.907   6.043  1.00  0.00     0.138 C 
BRANCH  21  22
HETATM   22  C   UNL     1      42.361 -16.007   5.914  1.00  0.00     0.003 C 
HETATM   23  C   UNL     1      43.070 -17.129   6.758  1.00  0.00     0.016 C 
HETATM   24  C   UNL     1      43.474 -16.073   7.798  1.00  0.00     0.002 C 
HETATM   25  C   UNL     1      43.201 -14.980   6.756  1.00  0.00     0.016 C 
BRANCH  22  26
HETATM   26  C   UNL     1      42.689 -16.026   4.322  1.00  0.00    -0.048 A 
HETATM   27  C   UNL     1      42.759 -17.233   3.593  1.00  0.00     0.008 A 
HETATM   28  C   UNL     1      43.069 -17.262   2.231  1.00  0.00     0.001 A 
HETATM   29  C   UNL     1      43.323 -16.077   1.550  1.00  0.00     0.000 A 
HETATM   30  C   UNL     1      43.270 -14.867   2.234  1.00  0.00     0.001 A 
HETATM   31  C   UNL     1      42.959 -14.847   3.597  1.00  0.00     0.008 A 
ENDBRANCH  22  26
ENDBRANCH  21  22
ENDBRANCH   1  21
TORSDOF 5
ENDMDL
MODEL 10
REMARK VINA RESULT:      -9.1      1.732      2.557
REMARK  5 active torsions:
REMARK  status: ('A' for Active; 'I' for Inactive)
REMARK    1  A    between atoms: C_4  and  C_5 
REMARK    2  A    between atoms: C_5  and  C_6 
REMARK    3  A    between atoms: C_6  and  N_7 
REMARK       I    between atoms: N_7  and  C_8 
REMARK       I    between atoms: C_8  and  N_9 
REMARK    4  A    between atoms: N_9  and  N_10 
REMARK       I    between atoms: N_10  and  C_11 
REMARK    5  A    between atoms: C_11  and  C_12 
ROOT
HETATM    1  N   UNL     1      43.208 -13.310   2.806  1.00  0.00    -0.341 N 
HETATM    2  C   UNL     1      42.541 -12.140   2.530  1.00  0.00     0.334 C 
HETATM    3  N   UNL     1      42.728 -11.159   3.468  1.00  0.00    -0.249 N 
HETATM    4  O   UNL     1      41.843 -11.957   1.539  1.00  0.00    -0.246 OA
HETATM    5  H   UNL     1      43.251 -13.469   3.804  1.00  0.00     0.164 HD
HETATM    6  H   UNL     1      42.200 -10.291   3.384  1.00  0.00     0.192 HD
ENDROOT
BRANCH   3   7
HETATM    7  N   UNL     1      43.627 -11.283   4.538  1.00  0.00    -0.262 N 
HETATM    8  C   UNL     1      43.153 -10.973   5.805  1.00  0.00     0.272 C 
HETATM    9  O   UNL     1      41.954 -10.810   6.026  1.00  0.00    -0.266 OA
HETATM   10  H   UNL     1      44.602 -11.126   4.313  1.00  0.00     0.190 HD
BRANCH   8  11
HETATM   11  C   UNL     1      44.178 -10.821   6.838  1.00  0.00     0.061 A 
HETATM   12  C   UNL     1      43.993 -10.247   8.146  1.00  0.00     0.008 A 
HETATM   13  C   UNL     1      45.220 -10.287   8.808  1.00  0.00     0.043 A 
HETATM   14  C   UNL     1      42.889  -9.692   8.829  1.00  0.00     0.015 A 
HETATM   15  C   UNL     1      45.399  -9.803  10.110  1.00  0.00     0.030 A 
HETATM   16  N   UNL     1      46.123 -10.865   7.950  1.00  0.00    -0.364 N 
HETATM   17  C   UNL     1      44.288  -9.259  10.760  1.00  0.00     0.002 A 
HETATM   18  C   UNL     1      43.048  -9.204  10.131  1.00  0.00     0.001 A 
HETATM   19  H   UNL     1      47.098 -11.021   8.170  1.00  0.00     0.165 HD
HETATM   20  C   UNL     1      45.512 -11.196   6.767  1.00  0.00     0.106 A 
ENDBRANCH   8  11
ENDBRANCH   3   7
BRANCH   1  21
HETATM   21  C   UNL     1      42.978 -14.460   1.952  1.00  0.00     0.138 C 
BRANCH  21  22
HETATM   22  C   UNL     1      41.998 -15.465   2.591  1.00  0.00     0.003 C 
HETATM   23  C   UNL     1      40.746 -15.874   1.733  1.00  0.00     0.016 C 
HETATM   24  C   UNL     1      39.884 -14.896   2.545  1.00  0.00     0.002 C 
HETATM   25  C   UNL     1      40.973 -14.877   3.627  1.00  0.00     0.016 C 
BRANCH  22  26
HETATM   26  C   UNL     1      42.900 -16.703   3.136  1.00  0.00    -0.048 A 
HETATM   27  C   UNL     1      43.078 -17.881   2.379  1.00  0.00     0.008 A 
HETATM   28  C   UNL     1      43.827 -18.962   2.852  1.00  0.00     0.001 A 
HETATM   29  C   UNL     1      44.422 -18.900   4.107  1.00  0.00     0.000 A 
HETATM   30  C   UNL     1      44.265 -17.759   4.886  1.00  0.00     0.001 A 
HETATM   31  C   UNL     1      43.514 -16.682   4.406  1.00  0.00     0.008 A 
ENDBRANCH  22  26
ENDBRANCH  21  22
ENDBRANCH   1  21
TORSDOF 5
ENDMDL
