MODEL 1
REMARK VINA RESULT:      -8.0      0.000      0.000
REMARK  6 active torsions:
REMARK  status: ('A' for Active; 'I' for Inactive)
REMARK    1  A    between atoms: O_2  and  C_3 
REMARK    2  A    between atoms: C_7  and  C_8 
REMARK    3  A    between atoms: C_8  and  N_9 
REMARK       I    between atoms: N_9  and  C_10 
REMARK       I    between atoms: C_10  and  N_12 
REMARK    4  A    between atoms: N_12  and  C_13 
REMARK    5  A    between atoms: C_16  and  C_21 
REMARK    6  A    between atoms: C_18  and  O_19 
ROOT
HETATM    1  N   UNL     1      43.604 -11.644   8.115  1.00  0.00    -0.339 N 
HETATM    2  C   UNL     1      44.001 -12.547   7.152  1.00  0.00     0.321 C 
HETATM    3  O   UNL     1      44.959 -12.331   6.419  1.00  0.00    -0.247 OA
HETATM    4  N   UNL     1      43.206 -13.666   7.145  1.00  0.00    -0.306 N 
HETATM    5  H   UNL     1      42.648 -11.687   8.431  1.00  0.00     0.164 HD
HETATM    6  H   UNL     1      42.419 -13.691   7.778  1.00  0.00     0.171 HD
ENDROOT
BRANCH   4   7
HETATM    7  C   UNL     1      43.334 -14.807   6.323  1.00  0.00     0.069 A 
HETATM    8  C   UNL     1      44.290 -15.802   6.513  1.00  0.00     0.033 A 
HETATM    9  C   UNL     1      44.343 -16.909   5.654  1.00  0.00     0.015 A 
HETATM   10  C   UNL     1      43.437 -17.049   4.594  1.00  0.00    -0.020 A 
HETATM   11  C   UNL     1      42.473 -16.051   4.403  1.00  0.00     0.051 A 
HETATM   12  C   UNL     1      42.439 -14.935   5.249  1.00  0.00     0.095 A 
BRANCH  10  13
HETATM   13  C   UNL     1      43.522 -18.206   3.716  1.00  0.00     0.010 A 
HETATM   14  C   UNL     1      44.031 -19.507   3.952  1.00  0.00     0.152 A 
HETATM   15  N   UNL     1      43.926 -20.308   2.888  1.00  0.00    -0.187 NA
HETATM   16  N   UNL     1      43.339 -19.528   1.967  1.00  0.00    -0.289 N 
HETATM   17  H   UNL     1      43.143 -19.926   1.056  1.00  0.00     0.188 HD
HETATM   18  C   UNL     1      43.080 -18.262   2.411  1.00  0.00     0.123 A 
ENDBRANCH  10  13
BRANCH  12  19
HETATM   19  O   UNL     1      41.499 -13.946   5.066  1.00  0.00    -0.354 OA
HETATM   20  C   UNL     1      40.698 -14.217   3.914  1.00  0.00     0.210 C 
ENDBRANCH  12  19
ENDBRANCH   4   7
BRANCH   1  21
HETATM   21  C   UNL     1      44.252 -10.352   8.172  1.00  0.00     0.163 C 
BRANCH  21  22
HETATM   22  C   UNL     1      43.835  -9.548   9.376  1.00  0.00    -0.038 A 
HETATM   23  C   UNL     1      43.632  -8.164   9.280  1.00  0.00     0.009 A 
HETATM   24  C   UNL     1      43.182  -7.438  10.381  1.00  0.00     0.003 A 
HETATM   25  C   UNL     1      42.914  -8.092  11.583  1.00  0.00     0.037 A 
HETATM   26  C   UNL     1      43.087  -9.474  11.694  1.00  0.00     0.068 A 
HETATM   27  C   UNL     1      43.553 -10.195  10.593  1.00  0.00     0.045 A 
BRANCH  26  28
HETATM   28  O   UNL     1      42.766  -9.993  12.918  1.00  0.00    -0.356 OA
HETATM   29  C   UNL     1      42.113  -9.121  13.833  1.00  0.00     0.210 C 
ENDBRANCH  26  28
ENDBRANCH  21  22
ENDBRANCH   1  21
TORSDOF 6
ENDMDL
MODEL 2
REMARK VINA RESULT:      -8.0      1.415      1.800
REMARK  6 active torsions:
REMARK  status: ('A' for Active; 'I' for Inactive)
REMARK    1  A    between atoms: O_2  and  C_3 
REMARK    2  A    between atoms: C_7  and  C_8 
REMARK    3  A    between atoms: C_8  and  N_9 
REMARK       I    between atoms: N_9  and  C_10 
REMARK       I    between atoms: C_10  and  N_12 
REMARK    4  A    between atoms: N_12  and  C_13 
REMARK    5  A    between atoms: C_16  and  C_21 
REMARK    6  A    between atoms: C_18  and  O_19 
ROOT
HETATM    1  N   UNL     1      42.965 -11.862   6.993  1.00  0.00    -0.339 N 
HETATM    2  C   UNL     1      43.591 -13.009   6.555  1.00  0.00     0.321 C 
HETATM    3  O   UNL     1      44.804 -13.059   6.386  1.00  0.00    -0.247 OA
HETATM    4  N   UNL     1      42.698 -14.032   6.354  1.00  0.00    -0.306 N 
HETATM    5  H   UNL     1      41.986 -11.753   6.781  1.00  0.00     0.164 HD
HETATM    6  H   UNL     1      41.716 -13.836   6.491  1.00  0.00     0.171 HD
ENDROOT
BRANCH   4   7
HETATM    7  C   UNL     1      42.980 -15.352   5.943  1.00  0.00     0.069 A 
HETATM    8  C   UNL     1      43.426 -16.357   6.797  1.00  0.00     0.033 A 
HETATM    9  C   UNL     1      43.675 -17.647   6.307  1.00  0.00     0.015 A 
HETATM   10  C   UNL     1      43.477 -17.961   4.956  1.00  0.00    -0.020 A 
HETATM   11  C   UNL     1      43.026 -16.952   4.096  1.00  0.00     0.051 A 
HETATM   12  C   UNL     1      42.800 -15.659   4.584  1.00  0.00     0.095 A 
BRANCH  10  13
HETATM   13  C   UNL     1      43.750 -19.307   4.476  1.00  0.00     0.010 A 
HETATM   14  C   UNL     1      43.770 -19.831   3.160  1.00  0.00     0.152 A 
HETATM   15  N   UNL     1      44.076 -21.130   3.121  1.00  0.00    -0.187 NA
HETATM   16  N   UNL     1      44.263 -21.445   4.412  1.00  0.00    -0.289 N 
HETATM   17  H   UNL     1      44.518 -22.400   4.641  1.00  0.00     0.188 HD
HETATM   18  C   UNL     1      44.077 -20.393   5.262  1.00  0.00     0.123 A 
ENDBRANCH  10  13
BRANCH  12  19
HETATM   19  O   UNL     1      42.362 -14.659   3.745  1.00  0.00    -0.354 OA
HETATM   20  C   UNL     1      43.148 -14.620   2.552  1.00  0.00     0.210 C 
ENDBRANCH  12  19
ENDBRANCH   4   7
BRANCH   1  21
HETATM   21  C   UNL     1      43.742 -10.649   7.129  1.00  0.00     0.163 C 
BRANCH  21  22
HETATM   22  C   UNL     1      43.873 -10.203   8.562  1.00  0.00    -0.038 A 
HETATM   23  C   UNL     1      45.120 -10.203   9.203  1.00  0.00     0.009 A 
HETATM   24  C   UNL     1      45.245  -9.728  10.506  1.00  0.00     0.003 A 
HETATM   25  C   UNL     1      44.126  -9.231  11.176  1.00  0.00     0.037 A 
HETATM   26  C   UNL     1      42.879  -9.200  10.548  1.00  0.00     0.068 A 
HETATM   27  C   UNL     1      42.755  -9.692   9.247  1.00  0.00     0.045 A 
BRANCH  26  28
HETATM   28  O   UNL     1      41.873  -8.667  11.305  1.00  0.00    -0.356 OA
HETATM   29  C   UNL     1      41.059  -9.583  12.028  1.00  0.00     0.210 C 
ENDBRANCH  26  28
ENDBRANCH  21  22
ENDBRANCH   1  21
TORSDOF 6
ENDMDL
MODEL 3
REMARK VINA RESULT:      -7.6      1.440      2.047
REMARK  6 active torsions:
REMARK  status: ('A' for Active; 'I' for Inactive)
REMARK    1  A    between atoms: O_2  and  C_3 
REMARK    2  A    between atoms: C_7  and  C_8 
REMARK    3  A    between atoms: C_8  and  N_9 
REMARK       I    between atoms: N_9  and  C_10 
REMARK       I    between atoms: C_10  and  N_12 
REMARK    4  A    between atoms: N_12  and  C_13 
REMARK    5  A    between atoms: C_16  and  C_21 
REMARK    6  A    between atoms: C_18  and  O_19 
ROOT
HETATM    1  N   UNL     1      42.835 -11.142   6.981  1.00  0.00    -0.339 N 
HETATM    2  C   UNL     1      43.414 -12.249   6.397  1.00  0.00     0.321 C 
HETATM    3  O   UNL     1      44.629 -12.412   6.387  1.00  0.00    -0.247 OA
HETATM    4  N   UNL     1      42.474 -13.095   5.864  1.00  0.00    -0.306 N 
HETATM    5  H   UNL     1      41.916 -10.875   6.667  1.00  0.00     0.164 HD
HETATM    6  H   UNL     1      41.505 -12.811   5.905  1.00  0.00     0.171 HD
ENDROOT
BRANCH   4   7
HETATM    7  C   UNL     1      42.695 -14.332   5.222  1.00  0.00     0.069 A 
HETATM    8  C   UNL     1      43.077 -14.463   3.890  1.00  0.00     0.033 A 
HETATM    9  C   UNL     1      43.285 -15.732   3.331  1.00  0.00     0.015 A 
HETATM   10  C   UNL     1      43.123 -16.896   4.095  1.00  0.00    -0.020 A 
HETATM   11  C   UNL     1      42.741 -16.766   5.436  1.00  0.00     0.051 A 
HETATM   12  C   UNL     1      42.512 -15.498   5.984  1.00  0.00     0.095 A 
BRANCH  10  13
HETATM   13  C   UNL     1      43.339 -18.199   3.485  1.00  0.00     0.010 A 
HETATM   14  C   UNL     1      42.959 -18.696   2.214  1.00  0.00     0.152 A 
HETATM   15  N   UNL     1      43.351 -19.957   2.010  1.00  0.00    -0.187 NA
HETATM   16  N   UNL     1      43.991 -20.273   3.146  1.00  0.00    -0.289 N 
HETATM   17  H   UNL     1      44.394 -21.199   3.228  1.00  0.00     0.188 HD
HETATM   18  C   UNL     1      44.009 -19.258   4.060  1.00  0.00     0.123 A 
ENDBRANCH  10  13
BRANCH  12  19
HETATM   19  O   UNL     1      42.131 -15.361   7.299  1.00  0.00    -0.354 OA
HETATM   20  C   UNL     1      43.201 -15.722   8.176  1.00  0.00     0.210 C 
ENDBRANCH  12  19
ENDBRANCH   4   7
BRANCH   1  21
HETATM   21  C   UNL     1      43.688 -10.084   7.476  1.00  0.00     0.163 C 
BRANCH  21  22
HETATM   22  C   UNL     1      43.471  -9.803   8.940  1.00  0.00    -0.038 A 
HETATM   23  C   UNL     1      44.548  -9.794   9.837  1.00  0.00     0.009 A 
HETATM   24  C   UNL     1      44.349  -9.468  11.177  1.00  0.00     0.003 A 
HETATM   25  C   UNL     1      43.073  -9.130  11.628  1.00  0.00     0.037 A 
HETATM   26  C   UNL     1      41.990  -9.109  10.747  1.00  0.00     0.068 A 
HETATM   27  C   UNL     1      42.191  -9.452   9.408  1.00  0.00     0.045 A 
BRANCH  26  28
HETATM   28  O   UNL     1      40.801  -8.737  11.312  1.00  0.00    -0.356 OA
HETATM   29  C   UNL     1      40.165  -9.692  12.153  1.00  0.00     0.210 C 
ENDBRANCH  26  28
ENDBRANCH  21  22
ENDBRANCH   1  21
TORSDOF 6
ENDMDL
MODEL 4
REMARK VINA RESULT:      -7.5      6.525     10.166
REMARK  6 active torsions:
REMARK  status: ('A' for Active; 'I' for Inactive)
REMARK    1  A    between atoms: O_2  and  C_3 
REMARK    2  A    between atoms: C_7  and  C_8 
REMARK    3  A    between atoms: C_8  and  N_9 
REMARK       I    between atoms: N_9  and  C_10 
REMARK       I    between atoms: C_10  and  N_12 
REMARK    4  A    between atoms: N_12  and  C_13 
REMARK    5  A    between atoms: C_16  and  C_21 
REMARK    6  A    between atoms: C_18  and  O_19 
ROOT
HETATM    1  N   UNL     1      42.955 -14.669   2.292  1.00  0.00    -0.339 N 
HETATM    2  C   UNL     1      41.683 -14.418   1.826  1.00  0.00     0.321 C 
HETATM    3  O   UNL     1      40.688 -14.653   2.503  1.00  0.00    -0.247 OA
HETATM    4  N   UNL     1      41.699 -13.890   0.559  1.00  0.00    -0.306 N 
HETATM    5  H   UNL     1      43.686 -14.801   1.611  1.00  0.00     0.164 HD
HETATM    6  H   UNL     1      42.593 -13.791   0.100  1.00  0.00     0.171 HD
ENDROOT
BRANCH   4   7
HETATM    7  C   UNL     1      40.593 -13.481  -0.217  1.00  0.00     0.069 A 
HETATM    8  C   UNL     1      39.756 -14.356  -0.903  1.00  0.00     0.033 A 
HETATM    9  C   UNL     1      38.672 -13.866  -1.646  1.00  0.00     0.015 A 
HETATM   10  C   UNL     1      38.398 -12.493  -1.712  1.00  0.00    -0.020 A 
HETATM   11  C   UNL     1      39.239 -11.612  -1.019  1.00  0.00     0.051 A 
HETATM   12  C   UNL     1      40.334 -12.103  -0.298  1.00  0.00     0.095 A 
BRANCH  10  13
HETATM   13  C   UNL     1      37.271 -12.015  -2.496  1.00  0.00     0.010 A 
HETATM   14  C   UNL     1      36.797 -10.699  -2.723  1.00  0.00     0.152 A 
HETATM   15  N   UNL     1      35.724 -10.662  -3.518  1.00  0.00    -0.187 NA
HETATM   16  N   UNL     1      35.509 -11.953  -3.813  1.00  0.00    -0.289 N 
HETATM   17  H   UNL     1      34.734 -12.183  -4.425  1.00  0.00     0.188 HD
HETATM   18  C   UNL     1      36.403 -12.802  -3.225  1.00  0.00     0.123 A 
ENDBRANCH  10  13
BRANCH  12  19
HETATM   19  O   UNL     1      41.168 -11.244   0.381  1.00  0.00    -0.354 OA
HETATM   20  C   UNL     1      41.162  -9.949  -0.225  1.00  0.00     0.210 C 
ENDBRANCH  12  19
ENDBRANCH   4   7
BRANCH   1  21
HETATM   21  C   UNL     1      43.116 -15.349   3.560  1.00  0.00     0.163 C 
BRANCH  21  22
HETATM   22  C   UNL     1      43.279 -16.838   3.402  1.00  0.00    -0.038 A 
HETATM   23  C   UNL     1      43.006 -17.464   2.177  1.00  0.00     0.009 A 
HETATM   24  C   UNL     1      43.222 -18.831   2.019  1.00  0.00     0.003 A 
HETATM   25  C   UNL     1      43.731 -19.582   3.079  1.00  0.00     0.037 A 
HETATM   26  C   UNL     1      44.031 -18.974   4.300  1.00  0.00     0.068 A 
HETATM   27  C   UNL     1      43.798 -17.607   4.459  1.00  0.00     0.045 A 
BRANCH  26  28
HETATM   28  O   UNL     1      44.545 -19.818   5.246  1.00  0.00    -0.356 OA
HETATM   29  C   UNL     1      43.911 -21.083   5.390  1.00  0.00     0.210 C 
ENDBRANCH  26  28
ENDBRANCH  21  22
ENDBRANCH   1  21
TORSDOF 6
ENDMDL
MODEL 5
REMARK VINA RESULT:      -7.4      5.711      9.340
REMARK  6 active torsions:
REMARK  status: ('A' for Active; 'I' for Inactive)
REMARK    1  A    between atoms: O_2  and  C_3 
REMARK    2  A    between atoms: C_7  and  C_8 
REMARK    3  A    between atoms: C_8  and  N_9 
REMARK       I    between atoms: N_9  and  C_10 
REMARK       I    between atoms: C_10  and  N_12 
REMARK    4  A    between atoms: N_12  and  C_13 
REMARK    5  A    between atoms: C_16  and  C_21 
REMARK    6  A    between atoms: C_18  and  O_19 
ROOT
HETATM    1  N   UNL     1      42.926 -14.675   4.126  1.00  0.00    -0.339 N 
HETATM    2  C   UNL     1      41.767 -14.602   3.385  1.00  0.00     0.321 C 
HETATM    3  O   UNL     1      40.699 -15.029   3.811  1.00  0.00    -0.247 OA
HETATM    4  N   UNL     1      41.977 -14.005   2.167  1.00  0.00    -0.306 N 
HETATM    5  H   UNL     1      43.802 -14.651   3.628  1.00  0.00     0.164 HD
HETATM    6  H   UNL     1      42.922 -13.740   1.927  1.00  0.00     0.171 HD
ENDROOT
BRANCH   4   7
HETATM    7  C   UNL     1      41.020 -13.732   1.166  1.00  0.00     0.069 A 
HETATM    8  C   UNL     1      40.583 -14.665   0.229  1.00  0.00     0.033 A 
HETATM    9  C   UNL     1      39.621 -14.313  -0.729  1.00  0.00     0.015 A 
HETATM   10  C   UNL     1      39.071 -13.024  -0.765  1.00  0.00    -0.020 A 
HETATM   11  C   UNL     1      39.508 -12.085   0.179  1.00  0.00     0.051 A 
HETATM   12  C   UNL     1      40.486 -12.434   1.119  1.00  0.00     0.095 A 
BRANCH  10  13
HETATM   13  C   UNL     1      38.080 -12.687  -1.774  1.00  0.00     0.010 A 
HETATM   14  C   UNL     1      37.237 -13.518  -2.553  1.00  0.00     0.152 A 
HETATM   15  N   UNL     1      36.444 -12.829  -3.378  1.00  0.00    -0.187 NA
HETATM   16  N   UNL     1      36.767 -11.552  -3.127  1.00  0.00    -0.289 N 
HETATM   17  H   UNL     1      36.280 -10.824  -3.638  1.00  0.00     0.188 HD
HETATM   18  C   UNL     1      37.741 -11.413  -2.179  1.00  0.00     0.123 A 
ENDBRANCH  10  13
BRANCH  12  19
HETATM   19  O   UNL     1      40.925 -11.516   2.046  1.00  0.00    -0.354 OA
HETATM   20  C   UNL     1      41.648 -10.460   1.409  1.00  0.00     0.210 C 
ENDBRANCH  12  19
ENDBRANCH   4   7
BRANCH   1  21
HETATM   21  C   UNL     1      42.911 -15.393   5.382  1.00  0.00     0.163 C 
BRANCH  21  22
HETATM   22  C   UNL     1      43.317 -16.835   5.230  1.00  0.00    -0.038 A 
HETATM   23  C   UNL     1      43.262 -17.715   6.320  1.00  0.00     0.009 A 
HETATM   24  C   UNL     1      43.576 -19.063   6.157  1.00  0.00     0.003 A 
HETATM   25  C   UNL     1      43.931 -19.547   4.898  1.00  0.00     0.037 A 
HETATM   26  C   UNL     1      43.969 -18.692   3.794  1.00  0.00     0.068 A 
HETATM   27  C   UNL     1      43.669 -17.339   3.965  1.00  0.00     0.045 A 
BRANCH  26  28
HETATM   28  O   UNL     1      44.309 -19.298   2.615  1.00  0.00    -0.356 OA
HETATM   29  C   UNL     1      43.448 -20.333   2.155  1.00  0.00     0.210 C 
ENDBRANCH  26  28
ENDBRANCH  21  22
ENDBRANCH   1  21
TORSDOF 6
ENDMDL
MODEL 6
REMARK VINA RESULT:      -7.3      1.946      2.508
REMARK  6 active torsions:
REMARK  status: ('A' for Active; 'I' for Inactive)
REMARK    1  A    between atoms: O_2  and  C_3 
REMARK    2  A    between atoms: C_7  and  C_8 
REMARK    3  A    between atoms: C_8  and  N_9 
REMARK       I    between atoms: N_9  and  C_10 
REMARK       I    between atoms: C_10  and  N_12 
REMARK    4  A    between atoms: N_12  and  C_13 
REMARK    5  A    between atoms: C_16  and  C_21 
REMARK    6  A    between atoms: C_18  and  O_19 
ROOT
HETATM    1  N   UNL     1      43.836 -11.320   8.211  1.00  0.00    -0.339 N 
HETATM    2  C   UNL     1      44.208 -12.253   7.267  1.00  0.00     0.321 C 
HETATM    3  O   UNL     1      45.194 -12.095   6.556  1.00  0.00    -0.247 OA
HETATM    4  N   UNL     1      43.356 -13.328   7.249  1.00  0.00    -0.306 N 
HETATM    5  H   UNL     1      42.872 -11.310   8.504  1.00  0.00     0.164 HD
HETATM    6  H   UNL     1      42.553 -13.306   7.863  1.00  0.00     0.171 HD
ENDROOT
BRANCH   4   7
HETATM    7  C   UNL     1      43.443 -14.482   6.441  1.00  0.00     0.069 A 
HETATM    8  C   UNL     1      44.261 -15.574   6.725  1.00  0.00     0.033 A 
HETATM    9  C   UNL     1      44.282 -16.686   5.872  1.00  0.00     0.015 A 
HETATM   10  C   UNL     1      43.480 -16.735   4.723  1.00  0.00    -0.020 A 
HETATM   11  C   UNL     1      42.656 -15.639   4.438  1.00  0.00     0.051 A 
HETATM   12  C   UNL     1      42.655 -14.520   5.279  1.00  0.00     0.095 A 
BRANCH  10  13
HETATM   13  C   UNL     1      43.529 -17.901   3.854  1.00  0.00     0.010 A 
HETATM   14  C   UNL     1      43.021 -18.098   2.546  1.00  0.00     0.152 A 
HETATM   15  N   UNL     1      43.275 -19.319   2.068  1.00  0.00    -0.187 NA
HETATM   16  N   UNL     1      43.954 -19.909   3.063  1.00  0.00    -0.289 N 
HETATM   17  H   UNL     1      44.270 -20.863   2.928  1.00  0.00     0.188 HD
HETATM   18  C   UNL     1      44.130 -19.106   4.153  1.00  0.00     0.123 A 
ENDBRANCH  10  13
BRANCH  12  19
HETATM   19  O   UNL     1      41.853 -13.436   5.003  1.00  0.00    -0.354 OA
HETATM   20  C   UNL     1      40.834 -13.787   4.065  1.00  0.00     0.210 C 
ENDBRANCH  12  19
ENDBRANCH   4   7
BRANCH   1  21
HETATM   21  C   UNL     1      44.551 -10.064   8.274  1.00  0.00     0.163 C 
BRANCH  21  22
HETATM   22  C   UNL     1      43.631  -8.884   8.454  1.00  0.00    -0.038 A 
HETATM   23  C   UNL     1      43.934  -7.872   9.377  1.00  0.00     0.009 A 
HETATM   24  C   UNL     1      43.114  -6.752   9.491  1.00  0.00     0.003 A 
HETATM   25  C   UNL     1      41.993  -6.624   8.671  1.00  0.00     0.037 A 
HETATM   26  C   UNL     1      41.686  -7.608   7.729  1.00  0.00     0.068 A 
HETATM   27  C   UNL     1      42.501  -8.737   7.629  1.00  0.00     0.045 A 
BRANCH  26  28
HETATM   28  O   UNL     1      40.576  -7.349   6.974  1.00  0.00    -0.356 OA
HETATM   29  C   UNL     1      39.487  -8.255   7.103  1.00  0.00     0.210 C 
ENDBRANCH  26  28
ENDBRANCH  21  22
ENDBRANCH   1  21
TORSDOF 6
ENDMDL
MODEL 7
REMARK VINA RESULT:      -7.2      6.765     10.896
REMARK  6 active torsions:
REMARK  status: ('A' for Active; 'I' for Inactive)
REMARK    1  A    between atoms: O_2  and  C_3 
REMARK    2  A    between atoms: C_7  and  C_8 
REMARK    3  A    between atoms: C_8  and  N_9 
REMARK       I    between atoms: N_9  and  C_10 
REMARK       I    between atoms: C_10  and  N_12 
REMARK    4  A    between atoms: N_12  and  C_13 
REMARK    5  A    between atoms: C_16  and  C_21 
REMARK    6  A    between atoms: C_18  and  O_19 
ROOT
HETATM    1  N   UNL     1      41.385 -15.439   1.375  1.00  0.00    -0.339 N 
HETATM    2  C   UNL     1      40.674 -14.352   0.916  1.00  0.00     0.321 C 
HETATM    3  O   UNL     1      39.879 -13.751   1.630  1.00  0.00    -0.247 OA
HETATM    4  N   UNL     1      40.980 -14.057  -0.389  1.00  0.00    -0.306 N 
HETATM    5  H   UNL     1      41.733 -16.093   0.692  1.00  0.00     0.164 HD
HETATM    6  H   UNL     1      41.623 -14.667  -0.873  1.00  0.00     0.171 HD
ENDROOT
BRANCH   4   7
HETATM    7  C   UNL     1      40.474 -12.997  -1.173  1.00  0.00     0.069 A 
HETATM    8  C   UNL     1      40.968 -11.696  -1.137  1.00  0.00     0.033 A 
HETATM    9  C   UNL     1      40.414 -10.703  -1.957  1.00  0.00     0.015 A 
HETATM   10  C   UNL     1      39.359 -10.991  -2.835  1.00  0.00    -0.020 A 
HETATM   11  C   UNL     1      38.863 -12.301  -2.873  1.00  0.00     0.051 A 
HETATM   12  C   UNL     1      39.404 -13.284  -2.036  1.00  0.00     0.095 A 
BRANCH  10  13
HETATM   13  C   UNL     1      38.801  -9.938  -3.668  1.00  0.00     0.010 A 
HETATM   14  C   UNL     1      37.457  -9.535  -3.867  1.00  0.00     0.152 A 
HETATM   15  N   UNL     1      37.341  -8.508  -4.713  1.00  0.00    -0.187 NA
HETATM   16  N   UNL     1      38.611  -8.240  -5.054  1.00  0.00    -0.289 N 
HETATM   17  H   UNL     1      38.784  -7.475  -5.697  1.00  0.00     0.188 HD
HETATM   18  C   UNL     1      39.521  -9.068  -4.459  1.00  0.00     0.123 A 
ENDBRANCH  10  13
BRANCH  12  19
HETATM   19  O   UNL     1      38.919 -14.572  -2.064  1.00  0.00    -0.354 OA
HETATM   20  C   UNL     1      38.264 -14.839  -3.305  1.00  0.00     0.210 C 
ENDBRANCH  12  19
ENDBRANCH   4   7
BRANCH   1  21
HETATM   21  C   UNL     1      41.088 -15.966   2.690  1.00  0.00     0.163 C 
BRANCH  21  22
HETATM   22  C   UNL     1      42.247 -16.722   3.286  1.00  0.00    -0.038 A 
HETATM   23  C   UNL     1      42.796 -16.339   4.517  1.00  0.00     0.009 A 
HETATM   24  C   UNL     1      43.824 -17.082   5.094  1.00  0.00     0.003 A 
HETATM   25  C   UNL     1      44.300 -18.225   4.453  1.00  0.00     0.037 A 
HETATM   26  C   UNL     1      43.751 -18.638   3.237  1.00  0.00     0.068 A 
HETATM   27  C   UNL     1      42.732 -17.882   2.654  1.00  0.00     0.045 A 
BRANCH  26  28
HETATM   28  O   UNL     1      44.291 -19.787   2.727  1.00  0.00    -0.356 OA
HETATM   29  C   UNL     1      43.535 -20.464   1.730  1.00  0.00     0.210 C 
ENDBRANCH  26  28
ENDBRANCH  21  22
ENDBRANCH   1  21
TORSDOF 6
ENDMDL
MODEL 8
REMARK VINA RESULT:      -7.2      2.213      3.264
REMARK  6 active torsions:
REMARK  status: ('A' for Active; 'I' for Inactive)
REMARK    1  A    between atoms: O_2  and  C_3 
REMARK    2  A    between atoms: C_7  and  C_8 
REMARK    3  A    between atoms: C_8  and  N_9 
REMARK       I    between atoms: N_9  and  C_10 
REMARK       I    between atoms: C_10  and  N_12 
REMARK    4  A    between atoms: N_12  and  C_13 
REMARK    5  A    between atoms: C_16  and  C_21 
REMARK    6  A    between atoms: C_18  and  O_19 
ROOT
HETATM    1  N   UNL     1      41.994 -11.581   5.392  1.00  0.00    -0.339 N 
HETATM    2  C   UNL     1      41.782 -12.910   5.095  1.00  0.00     0.321 C 
HETATM    3  O   UNL     1      40.665 -13.413   5.144  1.00  0.00    -0.247 OA
HETATM    4  N   UNL     1      42.947 -13.548   4.749  1.00  0.00    -0.306 N 
HETATM    5  H   UNL     1      42.920 -11.308   5.681  1.00  0.00     0.164 HD
HETATM    6  H   UNL     1      43.807 -13.019   4.796  1.00  0.00     0.171 HD
ENDROOT
BRANCH   4   7
HETATM    7  C   UNL     1      43.108 -14.893   4.354  1.00  0.00     0.069 A 
HETATM    8  C   UNL     1      43.098 -15.324   3.030  1.00  0.00     0.033 A 
HETATM    9  C   UNL     1      43.273 -16.680   2.723  1.00  0.00     0.015 A 
HETATM   10  C   UNL     1      43.470 -17.634   3.732  1.00  0.00    -0.020 A 
HETATM   11  C   UNL     1      43.482 -17.202   5.064  1.00  0.00     0.051 A 
HETATM   12  C   UNL     1      43.284 -15.849   5.368  1.00  0.00     0.095 A 
BRANCH  10  13
HETATM   13  C   UNL     1      43.642 -19.035   3.382  1.00  0.00     0.010 A 
HETATM   14  C   UNL     1      43.442 -19.709   2.152  1.00  0.00     0.152 A 
HETATM   15  N   UNL     1      43.718 -21.014   2.223  1.00  0.00    -0.187 NA
HETATM   16  N   UNL     1      44.105 -21.182   3.497  1.00  0.00    -0.289 N 
HETATM   17  H   UNL     1      44.380 -22.112   3.796  1.00  0.00     0.188 HD
HETATM   18  C   UNL     1      44.075 -20.032   4.231  1.00  0.00     0.123 A 
ENDBRANCH  10  13
BRANCH  12  19
HETATM   19  O   UNL     1      43.289 -15.416   6.675  1.00  0.00    -0.354 OA
HETATM   20  C   UNL     1      43.654 -16.479   7.558  1.00  0.00     0.210 C 
ENDBRANCH  12  19
ENDBRANCH   4   7
BRANCH   1  21
HETATM   21  C   UNL     1      40.893 -10.793   5.901  1.00  0.00     0.163 C 
BRANCH  21  22
HETATM   22  C   UNL     1      41.286  -9.946   7.083  1.00  0.00    -0.038 A 
HETATM   23  C   UNL     1      40.324  -9.508   8.004  1.00  0.00     0.009 A 
HETATM   24  C   UNL     1      40.703  -8.780   9.130  1.00  0.00     0.003 A 
HETATM   25  C   UNL     1      42.050  -8.499   9.355  1.00  0.00     0.037 A 
HETATM   26  C   UNL     1      43.028  -8.946   8.463  1.00  0.00     0.068 A 
HETATM   27  C   UNL     1      42.642  -9.661   7.327  1.00  0.00     0.045 A 
BRANCH  26  28
HETATM   28  O   UNL     1      44.310  -8.623   8.812  1.00  0.00    -0.356 OA
HETATM   29  C   UNL     1      45.350  -9.385   8.210  1.00  0.00     0.210 C 
ENDBRANCH  26  28
ENDBRANCH  21  22
ENDBRANCH   1  21
TORSDOF 6
ENDMDL
MODEL 9
REMARK VINA RESULT:      -7.2      2.112      2.886
REMARK  6 active torsions:
REMARK  status: ('A' for Active; 'I' for Inactive)
REMARK    1  A    between atoms: O_2  and  C_3 
REMARK    2  A    between atoms: C_7  and  C_8 
REMARK    3  A    between atoms: C_8  and  N_9 
REMARK       I    between atoms: N_9  and  C_10 
REMARK       I    between atoms: C_10  and  N_12 
REMARK    4  A    between atoms: N_12  and  C_13 
REMARK    5  A    between atoms: C_16  and  C_21 
REMARK    6  A    between atoms: C_18  and  O_19 
ROOT
HETATM    1  N   UNL     1      42.062 -11.342   5.308  1.00  0.00    -0.339 N 
HETATM    2  C   UNL     1      41.947 -12.716   5.296  1.00  0.00     0.321 C 
HETATM    3  O   UNL     1      41.068 -13.296   5.923  1.00  0.00    -0.247 OA
HETATM    4  N   UNL     1      42.910 -13.302   4.513  1.00  0.00    -0.306 N 
HETATM    5  H   UNL     1      42.963 -10.947   5.092  1.00  0.00     0.164 HD
HETATM    6  H   UNL     1      43.603 -12.702   4.088  1.00  0.00     0.171 HD
ENDROOT
BRANCH   4   7
HETATM    7  C   UNL     1      43.079 -14.676   4.241  1.00  0.00     0.069 A 
HETATM    8  C   UNL     1      43.380 -15.632   5.208  1.00  0.00     0.033 A 
HETATM    9  C   UNL     1      43.524 -16.981   4.854  1.00  0.00     0.015 A 
HETATM   10  C   UNL     1      43.361 -17.404   3.527  1.00  0.00    -0.020 A 
HETATM   11  C   UNL     1      43.055 -16.444   2.554  1.00  0.00     0.051 A 
HETATM   12  C   UNL     1      42.936 -15.094   2.908  1.00  0.00     0.095 A 
BRANCH  10  13
HETATM   13  C   UNL     1      43.522 -18.809   3.189  1.00  0.00     0.010 A 
HETATM   14  C   UNL     1      44.010 -19.893   3.961  1.00  0.00     0.152 A 
HETATM   15  N   UNL     1      43.998 -21.052   3.297  1.00  0.00    -0.187 NA
HETATM   16  N   UNL     1      43.493 -20.720   2.099  1.00  0.00    -0.289 N 
HETATM   17  H   UNL     1      43.377 -21.452   1.408  1.00  0.00     0.188 HD
HETATM   18  C   UNL     1      43.196 -19.392   1.983  1.00  0.00     0.123 A 
ENDBRANCH  10  13
BRANCH  12  19
HETATM   19  O   UNL     1      42.641 -14.144   1.957  1.00  0.00    -0.354 OA
HETATM   20  C   UNL     1      41.489 -14.523   1.202  1.00  0.00     0.210 C 
ENDBRANCH  12  19
ENDBRANCH   4   7
BRANCH   1  21
HETATM   21  C   UNL     1      41.207 -10.575   6.187  1.00  0.00     0.163 C 
BRANCH  21  22
HETATM   22  C   UNL     1      41.961  -9.964   7.339  1.00  0.00    -0.038 A 
HETATM   23  C   UNL     1      41.293  -9.211   8.315  1.00  0.00     0.009 A 
HETATM   24  C   UNL     1      41.986  -8.704   9.413  1.00  0.00     0.003 A 
HETATM   25  C   UNL     1      43.349  -8.961   9.554  1.00  0.00     0.037 A 
HETATM   26  C   UNL     1      44.029  -9.727   8.605  1.00  0.00     0.068 A 
HETATM   27  C   UNL     1      43.336 -10.220   7.499  1.00  0.00     0.045 A 
BRANCH  26  28
HETATM   28  O   UNL     1      45.356  -9.923   8.875  1.00  0.00    -0.356 OA
HETATM   29  C   UNL     1      46.287  -9.288   8.007  1.00  0.00     0.210 C 
ENDBRANCH  26  28
ENDBRANCH  21  22
ENDBRANCH   1  21
TORSDOF 6
ENDMDL
MODEL 10
REMARK VINA RESULT:      -7.1      3.505     10.473
REMARK  6 active torsions:
REMARK  status: ('A' for Active; 'I' for Inactive)
REMARK    1  A    between atoms: O_2  and  C_3 
REMARK    2  A    between atoms: C_7  and  C_8 
REMARK    3  A    between atoms: C_8  and  N_9 
REMARK       I    between atoms: N_9  and  C_10 
REMARK       I    between atoms: C_10  and  N_12 
REMARK    4  A    between atoms: N_12  and  C_13 
REMARK    5  A    between atoms: C_16  and  C_21 
REMARK    6  A    between atoms: C_18  and  O_19 
ROOT
HETATM    1  N   UNL     1      43.230 -11.147   7.248  1.00  0.00    -0.339 N 
HETATM    2  C   UNL     1      43.503 -10.858   8.568  1.00  0.00     0.321 C 
HETATM    3  O   UNL     1      44.466 -11.343   9.150  1.00  0.00    -0.247 OA
HETATM    4  N   UNL     1      42.584  -9.987   9.100  1.00  0.00    -0.306 N 
HETATM    5  H   UNL     1      42.281 -11.028   6.929  1.00  0.00     0.164 HD
HETATM    6  H   UNL     1      41.811  -9.701   8.516  1.00  0.00     0.171 HD
ENDROOT
BRANCH   4   7
HETATM    7  C   UNL     1      42.565  -9.447  10.403  1.00  0.00     0.069 A 
HETATM    8  C   UNL     1      43.697  -8.995  11.078  1.00  0.00     0.033 A 
HETATM    9  C   UNL     1      43.588  -8.464  12.370  1.00  0.00     0.015 A 
HETATM   10  C   UNL     1      42.346  -8.365  13.013  1.00  0.00    -0.020 A 
HETATM   11  C   UNL     1      41.207  -8.817  12.335  1.00  0.00     0.051 A 
HETATM   12  C   UNL     1      41.322  -9.369  11.053  1.00  0.00     0.095 A 
BRANCH  10  13
HETATM   13  C   UNL     1      42.267  -7.815  14.357  1.00  0.00     0.010 A 
HETATM   14  C   UNL     1      41.466  -8.194  15.463  1.00  0.00     0.152 A 
HETATM   15  N   UNL     1      41.686  -7.444  16.546  1.00  0.00    -0.187 NA
HETATM   16  N   UNL     1      42.636  -6.586  16.144  1.00  0.00    -0.289 N 
HETATM   17  H   UNL     1      42.981  -5.906  16.812  1.00  0.00     0.188 HD
HETATM   18  C   UNL     1      43.015  -6.764  14.844  1.00  0.00     0.123 A 
ENDBRANCH  10  13
BRANCH  12  19
HETATM   19  O   UNL     1      40.209  -9.821  10.382  1.00  0.00    -0.354 OA
HETATM   20  C   UNL     1      39.202  -8.808  10.333  1.00  0.00     0.210 C 
ENDBRANCH  12  19
ENDBRANCH   4   7
BRANCH   1  21
HETATM   21  C   UNL     1      44.024 -12.149   6.572  1.00  0.00     0.163 C 
BRANCH  21  22
HETATM   22  C   UNL     1      43.242 -13.402   6.272  1.00  0.00    -0.038 A 
HETATM   23  C   UNL     1      43.207 -14.462   7.189  1.00  0.00     0.009 A 
HETATM   24  C   UNL     1      42.428 -15.590   6.935  1.00  0.00     0.003 A 
HETATM   25  C   UNL     1      41.664 -15.659   5.770  1.00  0.00     0.037 A 
HETATM   26  C   UNL     1      41.666 -14.604   4.855  1.00  0.00     0.068 A 
HETATM   27  C   UNL     1      42.459 -13.483   5.106  1.00  0.00     0.045 A 
BRANCH  26  28
HETATM   28  O   UNL     1      40.856 -14.789   3.769  1.00  0.00    -0.356 OA
HETATM   29  C   UNL     1      40.703 -16.124   3.303  1.00  0.00     0.210 C 
ENDBRANCH  26  28
ENDBRANCH  21  22
ENDBRANCH   1  21
TORSDOF 6
ENDMDL
