MODEL 1
REMARK VINA RESULT:      -7.7      0.000      0.000
REMARK  6 active torsions:
REMARK  status: ('A' for Active; 'I' for Inactive)
REMARK    1  A    between atoms: C_8  and  C_9 
REMARK    2  A    between atoms: C_9  and  C_10 
REMARK       I    between atoms: C_10  and  N_11 
REMARK    3  A    between atoms: N_11  and  C_12 
REMARK    4  A    between atoms: C_12  and  C_13 
REMARK    5  A    between atoms: C_13  and  N_14 
REMARK    6  A    between atoms: C_13  and  C_20 
ROOT
HETATM    1  C   UNL     1      41.343 -15.402   4.454  1.00  0.00     0.160 C 
ENDROOT
BRANCH   1   2
HETATM    2  N   UNL     1      41.367 -14.031   4.951  1.00  0.00    -0.358 N 
HETATM    3  C   UNL     1      42.097 -13.721   6.082  1.00  0.00     0.226 C 
HETATM    4  O   UNL     1      42.482 -14.631   6.821  1.00  0.00    -0.273 OA
HETATM    5  H   UNL     1      41.245 -13.295   4.263  1.00  0.00     0.162 HD
BRANCH   3   6
HETATM    6  C   UNL     1      42.320 -12.237   6.399  1.00  0.00     0.111 C 
HETATM    7  C   UNL     1      41.219 -11.318   5.868  1.00  0.00     0.025 C 
BRANCH   6   8
HETATM    8  C   UNL     1      43.695 -11.761   6.025  1.00  0.00     0.004 A 
HETATM    9  C   UNL     1      44.660 -11.287   6.904  1.00  0.00     0.033 A 
HETATM   10  C   UNL     1      44.666 -11.118   8.377  1.00  0.00     0.070 C 
HETATM   11  N   UNL     1      45.740 -10.948   6.140  1.00  0.00    -0.282 N 
HETATM   12  H   UNL     1      46.632 -10.566   6.443  1.00  0.00     0.189 HD
HETATM   13  N   UNL     1      45.551 -11.151   4.834  1.00  0.00    -0.179 NA
HETATM   14  C   UNL     1      44.308 -11.632   4.742  1.00  0.00     0.060 A 
HETATM   15  C   UNL     1      43.773 -11.938   3.393  1.00  0.00     0.073 C 
ENDBRANCH   6   8
ENDBRANCH   3   6
ENDBRANCH   1   2
BRANCH   1  16
HETATM   16  C   UNL     1      42.346 -15.755   3.299  1.00  0.00     0.238 C 
BRANCH  16  17
HETATM   17  N   UNL     1      41.704 -15.586   1.911  1.00  0.00    -0.061 N 
HETATM   18  H   UNL     1      42.009 -16.416   1.360  1.00  0.00     0.280 HD
HETATM   19  C   UNL     1      42.042 -14.338   1.122  1.00  0.00     0.236 C 
HETATM   20  C   UNL     1      40.898 -13.400   1.431  1.00  0.00     0.029 C 
HETATM   21  C   UNL     1      39.700 -14.319   1.341  1.00  0.00     0.029 C 
HETATM   22  C   UNL     1      40.175 -15.629   1.946  1.00  0.00     0.236 C 
ENDBRANCH  16  17
BRANCH  16  23
HETATM   23  C   UNL     1      42.958 -17.121   3.573  1.00  0.00    -0.024 A 
HETATM   24  C   UNL     1      43.056 -18.104   2.571  1.00  0.00     0.033 A 
HETATM   25  C   UNL     1      43.630 -19.346   2.854  1.00  0.00     0.034 A 
HETATM   26 CL   UNL     1      43.761 -20.521   1.607  1.00  0.00    -0.084 Cl
HETATM   27  C   UNL     1      44.103 -19.633   4.130  1.00  0.00     0.024 A 
HETATM   28  C   UNL     1      44.007 -18.671   5.134  1.00  0.00     0.002 A 
HETATM   29  C   UNL     1      43.441 -17.425   4.859  1.00  0.00     0.009 A 
ENDBRANCH  16  23
ENDBRANCH   1  16
TORSDOF 6
ENDMDL
MODEL 2
REMARK VINA RESULT:      -7.5      3.171      6.436
REMARK  6 active torsions:
REMARK  status: ('A' for Active; 'I' for Inactive)
REMARK    1  A    between atoms: C_8  and  C_9 
REMARK    2  A    between atoms: C_9  and  C_10 
REMARK       I    between atoms: C_10  and  N_11 
REMARK    3  A    between atoms: N_11  and  C_12 
REMARK    4  A    between atoms: C_12  and  C_13 
REMARK    5  A    between atoms: C_13  and  N_14 
REMARK    6  A    between atoms: C_13  and  C_20 
ROOT
HETATM    1  C   UNL     1      42.039 -14.493   2.160  1.00  0.00     0.160 C 
ENDROOT
BRANCH   1   2
HETATM    2  N   UNL     1      41.756 -14.192   0.761  1.00  0.00    -0.358 N 
HETATM    3  C   UNL     1      40.603 -13.509   0.423  1.00  0.00     0.226 C 
HETATM    4  O   UNL     1      39.693 -13.413   1.251  1.00  0.00    -0.273 OA
HETATM    5  H   UNL     1      42.557 -14.078   0.149  1.00  0.00     0.162 HD
BRANCH   3   6
HETATM    6  C   UNL     1      40.490 -12.973  -1.010  1.00  0.00     0.111 C 
HETATM    7  C   UNL     1      41.255 -11.671  -1.246  1.00  0.00     0.025 C 
BRANCH   6   8
HETATM    8  C   UNL     1      39.069 -12.901  -1.495  1.00  0.00     0.004 A 
HETATM    9  C   UNL     1      38.410 -13.875  -2.232  1.00  0.00     0.033 A 
HETATM   10  C   UNL     1      38.838 -15.203  -2.734  1.00  0.00     0.070 C 
HETATM   11  N   UNL     1      37.156 -13.390  -2.471  1.00  0.00    -0.282 N 
HETATM   12  H   UNL     1      36.396 -13.831  -2.982  1.00  0.00     0.189 HD
HETATM   13  N   UNL     1      36.951 -12.173  -1.961  1.00  0.00    -0.179 NA
HETATM   14  C   UNL     1      38.108 -11.853  -1.375  1.00  0.00     0.060 A 
HETATM   15  C   UNL     1      38.220 -10.524  -0.726  1.00  0.00     0.073 C 
ENDBRANCH   6   8
ENDBRANCH   3   6
ENDBRANCH   1   2
BRANCH   1  16
HETATM   16  C   UNL     1      41.338 -15.758   2.769  1.00  0.00     0.238 C 
BRANCH  16  17
HETATM   17  N   UNL     1      40.382 -15.387   3.917  1.00  0.00    -0.061 N 
HETATM   18  H   UNL     1      39.426 -15.414   3.503  1.00  0.00     0.280 HD
HETATM   19  C   UNL     1      40.574 -14.046   4.592  1.00  0.00     0.236 C 
HETATM   20  C   UNL     1      41.416 -14.372   5.803  1.00  0.00     0.029 C 
HETATM   21  C   UNL     1      40.763 -15.638   6.312  1.00  0.00     0.029 C 
HETATM   22  C   UNL     1      40.387 -16.408   5.057  1.00  0.00     0.236 C 
ENDBRANCH  16  17
BRANCH  16  23
HETATM   23  C   UNL     1      42.397 -16.796   3.111  1.00  0.00    -0.024 A 
HETATM   24  C   UNL     1      42.499 -18.012   2.409  1.00  0.00     0.033 A 
HETATM   25  C   UNL     1      43.488 -18.940   2.744  1.00  0.00     0.034 A 
HETATM   26 CL   UNL     1      43.607 -20.406   1.856  1.00  0.00    -0.084 Cl
HETATM   27  C   UNL     1      44.378 -18.682   3.780  1.00  0.00     0.024 A 
HETATM   28  C   UNL     1      44.286 -17.485   4.488  1.00  0.00     0.002 A 
HETATM   29  C   UNL     1      43.305 -16.548   4.157  1.00  0.00     0.009 A 
ENDBRANCH  16  23
ENDBRANCH   1  16
TORSDOF 6
ENDMDL
MODEL 3
REMARK VINA RESULT:      -7.5      3.253      5.955
REMARK  6 active torsions:
REMARK  status: ('A' for Active; 'I' for Inactive)
REMARK    1  A    between atoms: C_8  and  C_9 
REMARK    2  A    between atoms: C_9  and  C_10 
REMARK       I    between atoms: C_10  and  N_11 
REMARK    3  A    between atoms: N_11  and  C_12 
REMARK    4  A    between atoms: C_12  and  C_13 
REMARK    5  A    between atoms: C_13  and  N_14 
REMARK    6  A    between atoms: C_13  and  C_20 
ROOT
HETATM    1  C   UNL     1      41.878 -15.193   1.747  1.00  0.00     0.160 C 
ENDROOT
BRANCH   1   2
HETATM    2  N   UNL     1      40.649 -14.885   1.024  1.00  0.00    -0.358 N 
HETATM    3  C   UNL     1      40.543 -13.702   0.318  1.00  0.00     0.226 C 
HETATM    4  O   UNL     1      41.354 -12.796   0.531  1.00  0.00    -0.273 OA
HETATM    5  H   UNL     1      40.109 -15.675   0.686  1.00  0.00     0.162 HD
BRANCH   3   6
HETATM    6  C   UNL     1      39.358 -13.553  -0.645  1.00  0.00     0.111 C 
HETATM    7  C   UNL     1      39.219 -14.707  -1.639  1.00  0.00     0.025 C 
BRANCH   6   8
HETATM    8  C   UNL     1      39.315 -12.209  -1.314  1.00  0.00     0.004 A 
HETATM    9  C   UNL     1      38.411 -11.192  -1.042  1.00  0.00     0.033 A 
HETATM   10  C   UNL     1      37.291 -11.088  -0.076  1.00  0.00     0.070 C 
HETATM   11  N   UNL     1      38.722 -10.167  -1.889  1.00  0.00    -0.282 N 
HETATM   12  H   UNL     1      38.272  -9.259  -1.974  1.00  0.00     0.189 HD
HETATM   13  N   UNL     1      39.746 -10.441  -2.701  1.00  0.00    -0.179 NA
HETATM   14  C   UNL     1      40.113 -11.684  -2.376  1.00  0.00     0.060 A 
HETATM   15  C   UNL     1      41.229 -12.305  -3.130  1.00  0.00     0.073 C 
ENDBRANCH   6   8
ENDBRANCH   3   6
ENDBRANCH   1   2
BRANCH   1  16
HETATM   16  C   UNL     1      41.723 -15.732   3.213  1.00  0.00     0.238 C 
BRANCH  16  17
HETATM   17  N   UNL     1      41.873 -14.609   4.254  1.00  0.00    -0.061 N 
HETATM   18  H   UNL     1      42.493 -14.998   4.996  1.00  0.00     0.280 HD
HETATM   19  C   UNL     1      40.615 -14.080   4.911  1.00  0.00     0.236 C 
HETATM   20  C   UNL     1      40.271 -12.859   4.090  1.00  0.00     0.029 C 
HETATM   21  C   UNL     1      41.624 -12.209   3.904  1.00  0.00     0.029 C 
HETATM   22  C   UNL     1      42.583 -13.370   3.706  1.00  0.00     0.236 C 
ENDBRANCH  16  17
BRANCH  16  23
HETATM   23  C   UNL     1      42.647 -16.925   3.403  1.00  0.00    -0.024 A 
HETATM   24  C   UNL     1      42.675 -17.995   2.488  1.00  0.00     0.033 A 
HETATM   25  C   UNL     1      43.540 -19.074   2.688  1.00  0.00     0.034 A 
HETATM   26 CL   UNL     1      43.574 -20.355   1.544  1.00  0.00    -0.084 Cl
HETATM   27  C   UNL     1      44.378 -19.112   3.798  1.00  0.00     0.024 A 
HETATM   28  C   UNL     1      44.357 -18.063   4.715  1.00  0.00     0.002 A 
HETATM   29  C   UNL     1      43.501 -16.977   4.520  1.00  0.00     0.009 A 
ENDBRANCH  16  23
ENDBRANCH   1  16
TORSDOF 6
ENDMDL
MODEL 4
REMARK VINA RESULT:      -7.4      2.794      5.638
REMARK  6 active torsions:
REMARK  status: ('A' for Active; 'I' for Inactive)
REMARK    1  A    between atoms: C_8  and  C_9 
REMARK    2  A    between atoms: C_9  and  C_10 
REMARK       I    between atoms: C_10  and  N_11 
REMARK    3  A    between atoms: N_11  and  C_12 
REMARK    4  A    between atoms: C_12  and  C_13 
REMARK    5  A    between atoms: C_13  and  N_14 
REMARK    6  A    between atoms: C_13  and  C_20 
ROOT
HETATM    1  C   UNL     1      43.238 -14.908   2.003  1.00  0.00     0.160 C 
ENDROOT
BRANCH   1   2
HETATM    2  N   UNL     1      42.535 -13.865   1.264  1.00  0.00    -0.358 N 
HETATM    3  C   UNL     1      41.208 -14.039   0.920  1.00  0.00     0.226 C 
HETATM    4  O   UNL     1      40.712 -15.167   0.979  1.00  0.00    -0.273 OA
HETATM    5  H   UNL     1      42.855 -12.912   1.407  1.00  0.00     0.162 HD
BRANCH   3   6
HETATM    6  C   UNL     1      40.443 -12.815   0.402  1.00  0.00     0.111 C 
HETATM    7  C   UNL     1      39.032 -12.679   0.975  1.00  0.00     0.025 C 
BRANCH   6   8
HETATM    8  C   UNL     1      40.468 -12.703  -1.096  1.00  0.00     0.004 A 
HETATM    9  C   UNL     1      41.017 -11.657  -1.825  1.00  0.00     0.033 A 
HETATM   10  C   UNL     1      41.714 -10.414  -1.413  1.00  0.00     0.070 C 
HETATM   11  N   UNL     1      40.801 -11.953  -3.141  1.00  0.00    -0.282 N 
HETATM   12  H   UNL     1      41.066 -11.414  -3.961  1.00  0.00     0.189 HD
HETATM   13  N   UNL     1      40.144 -13.101  -3.326  1.00  0.00    -0.179 NA
HETATM   14  C   UNL     1      39.921 -13.565  -2.093  1.00  0.00     0.060 A 
HETATM   15  C   UNL     1      39.170 -14.837  -1.949  1.00  0.00     0.073 C 
ENDBRANCH   6   8
ENDBRANCH   3   6
ENDBRANCH   1   2
BRANCH   1  16
HETATM   16  C   UNL     1      42.468 -15.571   3.199  1.00  0.00     0.238 C 
BRANCH  16  17
HETATM   17  N   UNL     1      42.396 -14.638   4.421  1.00  0.00    -0.061 N 
HETATM   18  H   UNL     1      42.986 -15.090   5.152  1.00  0.00     0.280 HD
HETATM   19  C   UNL     1      41.034 -14.353   5.016  1.00  0.00     0.236 C 
HETATM   20  C   UNL     1      40.630 -13.046   4.375  1.00  0.00     0.029 C 
HETATM   21  C   UNL     1      41.913 -12.249   4.444  1.00  0.00     0.029 C 
HETATM   22  C   UNL     1      43.011 -13.261   4.163  1.00  0.00     0.236 C 
ENDBRANCH  16  17
BRANCH  16  23
HETATM   23  C   UNL     1      43.054 -16.949   3.464  1.00  0.00    -0.024 A 
HETATM   24  C   UNL     1      43.032 -17.965   2.490  1.00  0.00     0.033 A 
HETATM   25  C   UNL     1      43.586 -19.219   2.763  1.00  0.00     0.034 A 
HETATM   26 CL   UNL     1      43.569 -20.434   1.548  1.00  0.00    -0.084 Cl
HETATM   27  C   UNL     1      44.157 -19.485   4.003  1.00  0.00     0.024 A 
HETATM   28  C   UNL     1      44.181 -18.491   4.979  1.00  0.00     0.002 A 
HETATM   29  C   UNL     1      43.636 -17.233   4.714  1.00  0.00     0.009 A 
ENDBRANCH  16  23
ENDBRANCH   1  16
TORSDOF 6
ENDMDL
MODEL 5
REMARK VINA RESULT:      -7.2      3.504      6.792
REMARK  6 active torsions:
REMARK  status: ('A' for Active; 'I' for Inactive)
REMARK    1  A    between atoms: C_8  and  C_9 
REMARK    2  A    between atoms: C_9  and  C_10 
REMARK       I    between atoms: C_10  and  N_11 
REMARK    3  A    between atoms: N_11  and  C_12 
REMARK    4  A    between atoms: C_12  and  C_13 
REMARK    5  A    between atoms: C_13  and  N_14 
REMARK    6  A    between atoms: C_13  and  C_20 
ROOT
HETATM    1  C   UNL     1      42.022 -11.968   4.592  1.00  0.00     0.160 C 
ENDROOT
BRANCH   1   2
HETATM    2  N   UNL     1      41.534 -13.321   4.347  1.00  0.00    -0.358 N 
HETATM    3  C   UNL     1      42.309 -14.214   3.632  1.00  0.00     0.226 C 
HETATM    4  O   UNL     1      43.259 -13.792   2.967  1.00  0.00    -0.273 OA
HETATM    5  H   UNL     1      40.901 -13.709   5.040  1.00  0.00     0.162 HD
BRANCH   3   6
HETATM    6  C   UNL     1      41.888 -15.689   3.644  1.00  0.00     0.111 C 
HETATM    7  C   UNL     1      40.544 -15.943   4.330  1.00  0.00     0.025 C 
BRANCH   6   8
HETATM    8  C   UNL     1      42.970 -16.601   4.147  1.00  0.00     0.004 A 
HETATM    9  C   UNL     1      43.728 -16.412   5.294  1.00  0.00     0.033 A 
HETATM   10  C   UNL     1      43.719 -15.349   6.328  1.00  0.00     0.070 C 
HETATM   11  N   UNL     1      44.599 -17.462   5.355  1.00  0.00    -0.282 N 
HETATM   12  H   UNL     1      45.306 -17.655   6.059  1.00  0.00     0.189 HD
HETATM   13  N   UNL     1      44.479 -18.312   4.333  1.00  0.00    -0.179 NA
HETATM   14  C   UNL     1      43.502 -17.799   3.579  1.00  0.00     0.060 A 
HETATM   15  C   UNL     1      43.138 -18.506   2.327  1.00  0.00     0.073 C 
ENDBRANCH   6   8
ENDBRANCH   3   6
ENDBRANCH   1   2
BRANCH   1  16
HETATM   16  C   UNL     1      41.931 -11.438   6.066  1.00  0.00     0.238 C 
BRANCH  16  17
HETATM   17  N   UNL     1      40.965 -10.246   6.187  1.00  0.00    -0.061 N 
HETATM   18  H   UNL     1      41.558  -9.434   6.465  1.00  0.00     0.280 HD
HETATM   19  C   UNL     1      39.819 -10.360   7.169  1.00  0.00     0.236 C 
HETATM   20  C   UNL     1      38.661 -10.821   6.315  1.00  0.00     0.029 C 
HETATM   21  C   UNL     1      38.811  -9.956   5.084  1.00  0.00     0.029 C 
HETATM   22  C   UNL     1      40.310  -9.865   4.858  1.00  0.00     0.236 C 
ENDBRANCH  16  17
BRANCH  16  23
HETATM   23  C   UNL     1      43.337 -11.195   6.594  1.00  0.00    -0.024 A 
HETATM   24  C   UNL     1      43.567 -10.570   7.834  1.00  0.00     0.033 A 
HETATM   25  C   UNL     1      44.870 -10.369   8.293  1.00  0.00     0.034 A 
HETATM   26 CL   UNL     1      45.124  -9.627   9.823  1.00  0.00    -0.084 Cl
HETATM   27  C   UNL     1      45.960 -10.771   7.529  1.00  0.00     0.024 A 
HETATM   28  C   UNL     1      45.748 -11.385   6.295  1.00  0.00     0.002 A 
HETATM   29  C   UNL     1      44.449 -11.597   5.831  1.00  0.00     0.009 A 
ENDBRANCH  16  23
ENDBRANCH   1  16
TORSDOF 6
ENDMDL
MODEL 6
REMARK VINA RESULT:      -7.1      3.031      4.407
REMARK  6 active torsions:
REMARK  status: ('A' for Active; 'I' for Inactive)
REMARK    1  A    between atoms: C_8  and  C_9 
REMARK    2  A    between atoms: C_9  and  C_10 
REMARK       I    between atoms: C_10  and  N_11 
REMARK    3  A    between atoms: N_11  and  C_12 
REMARK    4  A    between atoms: C_12  and  C_13 
REMARK    5  A    between atoms: C_13  and  N_14 
REMARK    6  A    between atoms: C_13  and  C_20 
ROOT
HETATM    1  C   UNL     1      43.971 -12.885   6.792  1.00  0.00     0.160 C 
ENDROOT
BRANCH   1   2
HETATM    2  N   UNL     1      43.455 -11.689   7.449  1.00  0.00    -0.358 N 
HETATM    3  C   UNL     1      44.329 -10.797   8.042  1.00  0.00     0.226 C 
HETATM    4  O   UNL     1      45.491 -11.149   8.266  1.00  0.00    -0.273 OA
HETATM    5  H   UNL     1      42.583 -11.313   7.091  1.00  0.00     0.162 HD
BRANCH   3   6
HETATM    6  C   UNL     1      43.772  -9.432   8.465  1.00  0.00     0.111 C 
HETATM    7  C   UNL     1      44.846  -8.427   8.882  1.00  0.00     0.025 C 
BRANCH   6   8
HETATM    8  C   UNL     1      42.665  -9.542   9.474  1.00  0.00     0.004 A 
HETATM    9  C   UNL     1      42.765 -10.112  10.735  1.00  0.00     0.033 A 
HETATM   10  C   UNL     1      43.900 -10.740  11.456  1.00  0.00     0.070 C 
HETATM   11  N   UNL     1      41.525 -10.015  11.300  1.00  0.00    -0.282 N 
HETATM   12  H   UNL     1      41.224 -10.328  12.218  1.00  0.00     0.189 HD
HETATM   13  N   UNL     1      40.623  -9.439  10.502  1.00  0.00    -0.179 NA
HETATM   14  C   UNL     1      41.293  -9.156   9.381  1.00  0.00     0.060 A 
HETATM   15  C   UNL     1      40.552  -8.524   8.262  1.00  0.00     0.073 C 
ENDBRANCH   6   8
ENDBRANCH   3   6
ENDBRANCH   1   2
BRANCH   1  16
HETATM   16  C   UNL     1      43.084 -13.508   5.656  1.00  0.00     0.238 C 
BRANCH  16  17
HETATM   17  N   UNL     1      41.647 -12.959   5.686  1.00  0.00    -0.061 N 
HETATM   18  H   UNL     1      41.512 -12.582   6.648  1.00  0.00     0.280 HD
HETATM   19  C   UNL     1      40.516 -13.920   5.387  1.00  0.00     0.236 C 
HETATM   20  C   UNL     1      40.244 -13.705   3.916  1.00  0.00     0.029 C 
HETATM   21  C   UNL     1      40.304 -12.199   3.798  1.00  0.00     0.029 C 
HETATM   22  C   UNL     1      41.431 -11.785   4.729  1.00  0.00     0.236 C 
ENDBRANCH  16  17
BRANCH  16  23
HETATM   23  C   UNL     1      43.205 -15.024   5.708  1.00  0.00    -0.024 A 
HETATM   24  C   UNL     1      43.304 -15.801   4.538  1.00  0.00     0.033 A 
HETATM   25  C   UNL     1      43.421 -17.190   4.620  1.00  0.00     0.034 A 
HETATM   26 CL   UNL     1      43.567 -18.114   3.178  1.00  0.00    -0.084 Cl
HETATM   27  C   UNL     1      43.431 -17.827   5.856  1.00  0.00     0.024 A 
HETATM   28  C   UNL     1      43.328 -17.072   7.023  1.00  0.00     0.002 A 
HETATM   29  C   UNL     1      43.217 -15.682   6.951  1.00  0.00     0.009 A 
ENDBRANCH  16  23
ENDBRANCH   1  16
TORSDOF 6
ENDMDL
MODEL 7
REMARK VINA RESULT:      -7.1      2.901      5.953
REMARK  6 active torsions:
REMARK  status: ('A' for Active; 'I' for Inactive)
REMARK    1  A    between atoms: C_8  and  C_9 
REMARK    2  A    between atoms: C_9  and  C_10 
REMARK       I    between atoms: C_10  and  N_11 
REMARK    3  A    between atoms: N_11  and  C_12 
REMARK    4  A    between atoms: C_12  and  C_13 
REMARK    5  A    between atoms: C_13  and  N_14 
REMARK    6  A    between atoms: C_13  and  C_20 
ROOT
HETATM    1  C   UNL     1      40.000 -14.852   2.925  1.00  0.00     0.160 C 
ENDROOT
BRANCH   1   2
HETATM    2  N   UNL     1      39.599 -13.711   2.109  1.00  0.00    -0.358 N 
HETATM    3  C   UNL     1      40.440 -13.245   1.116  1.00  0.00     0.226 C 
HETATM    4  O   UNL     1      41.623 -13.597   1.112  1.00  0.00    -0.273 OA
HETATM    5  H   UNL     1      38.603 -13.577   1.972  1.00  0.00     0.162 HD
BRANCH   3   6
HETATM    6  C   UNL     1      39.864 -12.240   0.111  1.00  0.00     0.111 C 
HETATM    7  C   UNL     1      38.349 -12.060   0.215  1.00  0.00     0.025 C 
BRANCH   6   8
HETATM    8  C   UNL     1      40.316 -12.499  -1.298  1.00  0.00     0.004 A 
HETATM    9  C   UNL     1      41.091 -11.648  -2.074  1.00  0.00     0.033 A 
HETATM   10  C   UNL     1      41.693 -10.321  -1.798  1.00  0.00     0.070 C 
HETATM   11  N   UNL     1      41.244 -12.266  -3.283  1.00  0.00    -0.282 N 
HETATM   12  H   UNL     1      41.752 -11.938  -4.099  1.00  0.00     0.189 HD
HETATM   13  N   UNL     1      40.620 -13.444  -3.359  1.00  0.00    -0.179 NA
HETATM   14  C   UNL     1      40.038 -13.598  -2.166  1.00  0.00     0.060 A 
HETATM   15  C   UNL     1      39.227 -14.817  -1.934  1.00  0.00     0.073 C 
ENDBRANCH   6   8
ENDBRANCH   3   6
ENDBRANCH   1   2
BRANCH   1  16
HETATM   16  C   UNL     1      40.736 -14.535   4.275  1.00  0.00     0.238 C 
BRANCH  16  17
HETATM   17  N   UNL     1      41.409 -13.151   4.249  1.00  0.00    -0.061 N 
HETATM   18  H   UNL     1      41.202 -12.758   3.306  1.00  0.00     0.280 HD
HETATM   19  C   UNL     1      42.905 -13.088   4.475  1.00  0.00     0.236 C 
HETATM   20  C   UNL     1      43.031 -12.785   5.950  1.00  0.00     0.029 C 
HETATM   21  C   UNL     1      41.966 -11.730   6.150  1.00  0.00     0.029 C 
HETATM   22  C   UNL     1      40.814 -12.173   5.264  1.00  0.00     0.236 C 
ENDBRANCH  16  17
BRANCH  16  23
HETATM   23  C   UNL     1      41.649 -15.699   4.628  1.00  0.00    -0.024 A 
HETATM   24  C   UNL     1      42.322 -16.441   3.638  1.00  0.00     0.033 A 
HETATM   25  C   UNL     1      43.160 -17.499   3.996  1.00  0.00     0.034 A 
HETATM   26 CL   UNL     1      43.990 -18.373   2.771  1.00  0.00    -0.084 Cl
HETATM   27  C   UNL     1      43.334 -17.843   5.332  1.00  0.00     0.024 A 
HETATM   28  C   UNL     1      42.670 -17.122   6.323  1.00  0.00     0.002 A 
HETATM   29  C   UNL     1      41.836 -16.058   5.976  1.00  0.00     0.009 A 
ENDBRANCH  16  23
ENDBRANCH   1  16
TORSDOF 6
ENDMDL
MODEL 8
REMARK VINA RESULT:      -7.0      2.720      5.378
REMARK  6 active torsions:
REMARK  status: ('A' for Active; 'I' for Inactive)
REMARK    1  A    between atoms: C_8  and  C_9 
REMARK    2  A    between atoms: C_9  and  C_10 
REMARK       I    between atoms: C_10  and  N_11 
REMARK    3  A    between atoms: N_11  and  C_12 
REMARK    4  A    between atoms: C_12  and  C_13 
REMARK    5  A    between atoms: C_13  and  N_14 
REMARK    6  A    between atoms: C_13  and  C_20 
ROOT
HETATM    1  C   UNL     1      42.619 -13.817   3.134  1.00  0.00     0.160 C 
ENDROOT
BRANCH   1   2
HETATM    2  N   UNL     1      41.717 -13.114   2.228  1.00  0.00    -0.358 N 
HETATM    3  C   UNL     1      41.966 -11.796   1.893  1.00  0.00     0.226 C 
HETATM    4  O   UNL     1      42.765 -11.142   2.569  1.00  0.00    -0.273 OA
HETATM    5  H   UNL     1      41.226 -13.680   1.544  1.00  0.00     0.162 HD
BRANCH   3   6
HETATM    6  C   UNL     1      41.163 -11.194   0.733  1.00  0.00     0.111 C 
HETATM    7  C   UNL     1      41.521  -9.741   0.420  1.00  0.00     0.025 C 
BRANCH   6   8
HETATM    8  C   UNL     1      39.682 -11.403   0.879  1.00  0.00     0.004 A 
HETATM    9  C   UNL     1      38.879 -12.155   0.033  1.00  0.00     0.033 A 
HETATM   10  C   UNL     1      39.182 -12.947  -1.183  1.00  0.00     0.070 C 
HETATM   11  N   UNL     1      37.608 -12.055   0.524  1.00  0.00    -0.282 N 
HETATM   12  H   UNL     1      36.757 -12.475   0.161  1.00  0.00     0.189 HD
HETATM   13  N   UNL     1      37.518 -11.288   1.613  1.00  0.00    -0.179 NA
HETATM   14  C   UNL     1      38.768 -10.870   1.837  1.00  0.00     0.060 A 
HETATM   15  C   UNL     1      39.007  -9.958   2.982  1.00  0.00     0.073 C 
ENDBRANCH   6   8
ENDBRANCH   3   6
ENDBRANCH   1   2
BRANCH   1  16
HETATM   16  C   UNL     1      41.963 -14.806   4.161  1.00  0.00     0.238 C 
BRANCH  16  17
HETATM   17  N   UNL     1      41.721 -14.137   5.525  1.00  0.00    -0.061 N 
HETATM   18  H   UNL     1      42.178 -14.760   6.226  1.00  0.00     0.280 HD
HETATM   19  C   UNL     1      40.289 -13.904   5.955  1.00  0.00     0.236 C 
HETATM   20  C   UNL     1      40.022 -12.473   5.548  1.00  0.00     0.029 C 
HETATM   21  C   UNL     1      41.296 -11.779   5.973  1.00  0.00     0.029 C 
HETATM   22  C   UNL     1      42.400 -12.772   5.655  1.00  0.00     0.236 C 
ENDBRANCH  16  17
BRANCH  16  23
HETATM   23  C   UNL     1      42.776 -16.092   4.199  1.00  0.00    -0.024 A 
HETATM   24  C   UNL     1      42.642 -17.084   3.210  1.00  0.00     0.033 A 
HETATM   25  C   UNL     1      43.408 -18.251   3.271  1.00  0.00     0.034 A 
HETATM   26 CL   UNL     1      43.245 -19.436   2.037  1.00  0.00    -0.084 Cl
HETATM   27  C   UNL     1      44.306 -18.454   4.313  1.00  0.00     0.024 A 
HETATM   28  C   UNL     1      44.445 -17.483   5.303  1.00  0.00     0.002 A 
HETATM   29  C   UNL     1      43.689 -16.311   5.248  1.00  0.00     0.009 A 
ENDBRANCH  16  23
ENDBRANCH   1  16
TORSDOF 6
ENDMDL
MODEL 9
REMARK VINA RESULT:      -7.0      3.914      7.567
REMARK  6 active torsions:
REMARK  status: ('A' for Active; 'I' for Inactive)
REMARK    1  A    between atoms: C_8  and  C_9 
REMARK    2  A    between atoms: C_9  and  C_10 
REMARK       I    between atoms: C_10  and  N_11 
REMARK    3  A    between atoms: N_11  and  C_12 
REMARK    4  A    between atoms: C_12  and  C_13 
REMARK    5  A    between atoms: C_13  and  N_14 
REMARK    6  A    between atoms: C_13  and  C_20 
ROOT
HETATM    1  C   UNL     1      39.803 -14.916   2.312  1.00  0.00     0.160 C 
ENDROOT
BRANCH   1   2
HETATM    2  N   UNL     1      39.743 -14.601   0.889  1.00  0.00    -0.358 N 
HETATM    3  C   UNL     1      39.797 -13.285   0.472  1.00  0.00     0.226 C 
HETATM    4  O   UNL     1      39.605 -12.383   1.292  1.00  0.00    -0.273 OA
HETATM    5  H   UNL     1      40.106 -15.303   0.252  1.00  0.00     0.162 HD
BRANCH   3   6
HETATM    6  C   UNL     1      40.015 -13.022  -1.023  1.00  0.00     0.111 C 
HETATM    7  C   UNL     1      41.057 -11.942  -1.317  1.00  0.00     0.025 C 
BRANCH   6   8
HETATM    8  C   UNL     1      38.730 -12.799  -1.770  1.00  0.00     0.004 A 
HETATM    9  C   UNL     1      38.135 -13.690  -2.651  1.00  0.00     0.033 A 
HETATM   10  C   UNL     1      38.521 -15.049  -3.105  1.00  0.00     0.070 C 
HETATM   11  N   UNL     1      37.005 -13.077  -3.112  1.00  0.00    -0.282 N 
HETATM   12  H   UNL     1      36.319 -13.431  -3.773  1.00  0.00     0.189 HD
HETATM   13  N   UNL     1      36.824 -11.852  -2.610  1.00  0.00    -0.179 NA
HETATM   14  C   UNL     1      37.871 -11.659  -1.802  1.00  0.00     0.060 A 
HETATM   15  C   UNL     1      37.984 -10.357  -1.101  1.00  0.00     0.073 C 
ENDBRANCH   6   8
ENDBRANCH   3   6
ENDBRANCH   1   2
BRANCH   1  16
HETATM   16  C   UNL     1      41.231 -15.074   2.944  1.00  0.00     0.238 C 
BRANCH  16  17
HETATM   17  N   UNL     1      41.482 -16.508   3.442  1.00  0.00    -0.061 N 
HETATM   18  H   UNL     1      40.536 -16.932   3.557  1.00  0.00     0.280 HD
HETATM   19  C   UNL     1      42.246 -16.684   4.737  1.00  0.00     0.236 C 
HETATM   20  C   UNL     1      43.668 -16.918   4.284  1.00  0.00     0.029 C 
HETATM   21  C   UNL     1      43.480 -17.868   3.123  1.00  0.00     0.029 C 
HETATM   22  C   UNL     1      42.223 -17.378   2.425  1.00  0.00     0.236 C 
ENDBRANCH  16  17
BRANCH  16  23
HETATM   23  C   UNL     1      41.440 -13.978   3.978  1.00  0.00    -0.024 A 
HETATM   24  C   UNL     1      42.664 -13.294   4.099  1.00  0.00     0.033 A 
HETATM   25  C   UNL     1      42.821 -12.288   5.055  1.00  0.00     0.034 A 
HETATM   26 CL   UNL     1      44.318 -11.450   5.164  1.00  0.00    -0.084 Cl
HETATM   27  C   UNL     1      41.775 -11.953   5.908  1.00  0.00     0.024 A 
HETATM   28  C   UNL     1      40.558 -12.626   5.804  1.00  0.00     0.002 A 
HETATM   29  C   UNL     1      40.390 -13.628   4.848  1.00  0.00     0.009 A 
ENDBRANCH  16  23
ENDBRANCH   1  16
TORSDOF 6
ENDMDL
MODEL 10
REMARK VINA RESULT:      -7.0      3.181      6.172
REMARK  6 active torsions:
REMARK  status: ('A' for Active; 'I' for Inactive)
REMARK    1  A    between atoms: C_8  and  C_9 
REMARK    2  A    between atoms: C_9  and  C_10 
REMARK       I    between atoms: C_10  and  N_11 
REMARK    3  A    between atoms: N_11  and  C_12 
REMARK    4  A    between atoms: C_12  and  C_13 
REMARK    5  A    between atoms: C_13  and  N_14 
REMARK    6  A    between atoms: C_13  and  C_20 
ROOT
HETATM    1  C   UNL     1      40.553 -13.679   3.691  1.00  0.00     0.160 C 
ENDROOT
BRANCH   1   2
HETATM    2  N   UNL     1      41.479 -14.397   4.561  1.00  0.00    -0.358 N 
HETATM    3  C   UNL     1      41.406 -15.774   4.657  1.00  0.00     0.226 C 
HETATM    4  O   UNL     1      40.398 -16.356   4.247  1.00  0.00    -0.273 OA
HETATM    5  H   UNL     1      42.388 -13.970   4.709  1.00  0.00     0.162 HD
BRANCH   3   6
HETATM    6  C   UNL     1      42.566 -16.498   5.352  1.00  0.00     0.111 C 
HETATM    7  C   UNL     1      43.604 -15.559   5.966  1.00  0.00     0.025 C 
BRANCH   6   8
HETATM    8  C   UNL     1      43.190 -17.560   4.491  1.00  0.00     0.004 A 
HETATM    9  C   UNL     1      43.635 -18.802   4.923  1.00  0.00     0.033 A 
HETATM   10  C   UNL     1      43.634 -19.450   6.257  1.00  0.00     0.070 C 
HETATM   11  N   UNL     1      44.144 -19.430   3.822  1.00  0.00    -0.282 N 
HETATM   12  H   UNL     1      44.559 -20.355   3.759  1.00  0.00     0.189 HD
HETATM   13  N   UNL     1      44.078 -18.691   2.711  1.00  0.00    -0.179 NA
HETATM   14  C   UNL     1      43.513 -17.545   3.100  1.00  0.00     0.060 A 
HETATM   15  C   UNL     1      43.322 -16.479   2.087  1.00  0.00     0.073 C 
ENDBRANCH   6   8
ENDBRANCH   3   6
ENDBRANCH   1   2
BRANCH   1  16
HETATM   16  C   UNL     1      41.184 -12.711   2.629  1.00  0.00     0.238 C 
BRANCH  16  17
HETATM   17  N   UNL     1      40.894 -11.235   2.957  1.00  0.00    -0.061 N 
HETATM   18  H   UNL     1      40.540 -10.818   2.070  1.00  0.00     0.280 HD
HETATM   19  C   UNL     1      42.040 -10.384   3.461  1.00  0.00     0.236 C 
HETATM   20  C   UNL     1      41.886 -10.432   4.964  1.00  0.00     0.029 C 
HETATM   21  C   UNL     1      40.393 -10.264   5.136  1.00  0.00     0.029 C 
HETATM   22  C   UNL     1      39.782 -11.055   3.992  1.00  0.00     0.236 C 
ENDBRANCH  16  17
BRANCH  16  23
HETATM   23  C   UNL     1      40.770 -13.164   1.237  1.00  0.00    -0.024 A 
HETATM   24  C   UNL     1      40.912 -12.329   0.112  1.00  0.00     0.033 A 
HETATM   25  C   UNL     1      40.529 -12.778  -1.154  1.00  0.00     0.034 A 
HETATM   26 CL   UNL     1      40.735 -11.750  -2.515  1.00  0.00    -0.084 Cl
HETATM   27  C   UNL     1      39.993 -14.051  -1.321  1.00  0.00     0.024 A 
HETATM   28  C   UNL     1      39.841 -14.886  -0.216  1.00  0.00     0.002 A 
HETATM   29  C   UNL     1      40.227 -14.449   1.053  1.00  0.00     0.009 A 
ENDBRANCH  16  23
ENDBRANCH   1  16
TORSDOF 6
ENDMDL
