MODEL 1
REMARK VINA RESULT:      -9.6      0.000      0.000
REMARK  8 active torsions:
REMARK  status: ('A' for Active; 'I' for Inactive)
REMARK    1  A    between atoms: O_2  and  C_3 
REMARK    2  A    between atoms: C_6  and  C_7 
REMARK    3  A    between atoms: C_11  and  C_12 
REMARK       I    between atoms: C_12  and  N_13 
REMARK    4  A    between atoms: N_13  and  N_14 
REMARK       I    between atoms: N_14  and  C_15 
REMARK    5  A    between atoms: C_15  and  C_16 
REMARK    6  A    between atoms: C_16  and  C_17 
REMARK    7  A    between atoms: C_17  and  C_18 
REMARK    8  A    between atoms: N_20  and  C_21 
ROOT
HETATM    1  C   UNL     1      44.357 -10.641   9.050  1.00  0.00     0.288 C 
HETATM    2  N   UNL     1      43.324 -11.202   8.332  1.00  0.00    -0.262 N 
HETATM    3  O   UNL     1      45.535 -10.886   8.797  1.00  0.00    -0.264 OA
HETATM    4  H   UNL     1      42.339 -11.052   8.535  1.00  0.00     0.190 HD
ENDROOT
BRANCH   2   5
HETATM    5  N   UNL     1      43.612 -12.019   7.232  1.00  0.00    -0.267 N 
HETATM    6  C   UNL     1      43.280 -11.537   5.987  1.00  0.00     0.236 C 
HETATM    7  O   UNL     1      42.867 -10.386   5.830  1.00  0.00    -0.272 OA
HETATM    8  H   UNL     1      43.754 -13.004   7.439  1.00  0.00     0.190 HD
BRANCH   6   9
HETATM    9  C   UNL     1      43.577 -12.434   4.800  1.00  0.00     0.109 C 
BRANCH   9  10
HETATM   10  C   UNL     1      42.403 -13.194   4.193  1.00  0.00     0.051 C 
BRANCH  10  11
HETATM   11  C   UNL     1      42.780 -14.477   3.538  1.00  0.00    -0.021 A 
HETATM   12  C   UNL     1      42.778 -15.743   4.085  1.00  0.00     0.127 A 
HETATM   13  N   UNL     1      43.239 -16.618   3.121  1.00  0.00    -0.245 N 
HETATM   14  N   UNL     1      43.520 -15.957   1.967  1.00  0.00    -0.180 NA
HETATM   15  C   UNL     1      43.251 -14.680   2.227  1.00  0.00     0.147 A 
BRANCH  13  16
HETATM   16  C   UNL     1      43.441 -18.022   3.230  1.00  0.00     0.058 A 
HETATM   17  C   UNL     1      43.997 -18.591   4.384  1.00  0.00     0.031 A 
HETATM   18  C   UNL     1      44.198 -19.973   4.457  1.00  0.00     0.002 A 
HETATM   19  C   UNL     1      43.847 -20.791   3.385  1.00  0.00     0.000 A 
HETATM   20  C   UNL     1      43.289 -20.234   2.237  1.00  0.00     0.002 A 
HETATM   21  C   UNL     1      43.086 -18.855   2.157  1.00  0.00     0.031 A 
ENDBRANCH  13  16
ENDBRANCH  10  11
ENDBRANCH   9  10
ENDBRANCH   6   9
ENDBRANCH   2   5
BRANCH   1  22
HETATM   22  C   UNL     1      43.952  -9.730  10.087  1.00  0.00     0.121 A 
HETATM   23  N   UNL     1      43.736  -8.402   9.848  1.00  0.00    -0.272 N 
HETATM   24  N   UNL     1      43.270  -7.721  10.907  1.00  0.00    -0.174 NA
HETATM   25  H   UNL     1      43.858  -7.912   8.966  1.00  0.00     0.189 HD
HETATM   26  C   UNL     1      43.224  -8.626  11.896  1.00  0.00     0.089 A 
HETATM   27  C   UNL     1      43.663  -9.895  11.427  1.00  0.00     0.071 A 
BRANCH  26  28
HETATM   28  C   UNL     1      42.722  -8.301  13.231  1.00  0.00    -0.005 A 
HETATM   29  C   UNL     1      43.265  -7.227  13.950  1.00  0.00     0.016 A 
HETATM   30  C   UNL     1      42.733  -6.851  15.190  1.00  0.00     0.037 A 
HETATM   31  C   UNL     1      41.655  -7.552  15.728  1.00  0.00     0.068 A 
HETATM   32  C   UNL     1      41.142  -8.653  15.042  1.00  0.00     0.037 A 
HETATM   33  C   UNL     1      41.664  -9.022  13.798  1.00  0.00     0.016 A 
BRANCH  31  34
HETATM   34  O   UNL     1      41.036  -7.270  16.915  1.00  0.00    -0.356 OA
HETATM   35  C   UNL     1      41.861  -7.319  18.073  1.00  0.00     0.210 C 
ENDBRANCH  31  34
ENDBRANCH  26  28
ENDBRANCH   1  22
TORSDOF 8
ENDMDL
MODEL 2
REMARK VINA RESULT:      -9.2      1.246      1.863
REMARK  8 active torsions:
REMARK  status: ('A' for Active; 'I' for Inactive)
REMARK    1  A    between atoms: O_2  and  C_3 
REMARK    2  A    between atoms: C_6  and  C_7 
REMARK    3  A    between atoms: C_11  and  C_12 
REMARK       I    between atoms: C_12  and  N_13 
REMARK    4  A    between atoms: N_13  and  N_14 
REMARK       I    between atoms: N_14  and  C_15 
REMARK    5  A    between atoms: C_15  and  C_16 
REMARK    6  A    between atoms: C_16  and  C_17 
REMARK    7  A    between atoms: C_17  and  C_18 
REMARK    8  A    between atoms: N_20  and  C_21 
ROOT
HETATM    1  C   UNL     1      44.220 -10.210   8.576  1.00  0.00     0.288 C 
HETATM    2  N   UNL     1      43.806 -11.336   7.900  1.00  0.00    -0.262 N 
HETATM    3  O   UNL     1      44.942  -9.364   8.051  1.00  0.00    -0.264 OA
HETATM    4  H   UNL     1      43.240 -12.074   8.312  1.00  0.00     0.190 HD
ENDROOT
BRANCH   2   5
HETATM    5  N   UNL     1      44.148 -11.498   6.552  1.00  0.00    -0.267 N 
HETATM    6  C   UNL     1      43.121 -11.488   5.637  1.00  0.00     0.236 C 
HETATM    7  O   UNL     1      41.964 -11.218   5.968  1.00  0.00    -0.272 OA
HETATM    8  H   UNL     1      45.061 -11.909   6.374  1.00  0.00     0.190 HD
BRANCH   6   9
HETATM    9  C   UNL     1      43.495 -11.681   4.180  1.00  0.00     0.109 C 
BRANCH   9  10
HETATM   10  C   UNL     1      42.471 -12.370   3.285  1.00  0.00     0.051 C 
BRANCH  10  11
HETATM   11  C   UNL     1      42.298 -13.822   3.562  1.00  0.00    -0.021 A 
HETATM   12  C   UNL     1      43.114 -14.865   3.176  1.00  0.00     0.127 A 
HETATM   13  N   UNL     1      42.539 -16.038   3.624  1.00  0.00    -0.245 N 
HETATM   14  N   UNL     1      41.389 -15.781   4.302  1.00  0.00    -0.180 NA
HETATM   15  C   UNL     1      41.249 -14.459   4.253  1.00  0.00     0.147 A 
BRANCH  13  16
HETATM   16  C   UNL     1      42.999 -17.372   3.439  1.00  0.00     0.058 A 
HETATM   17  C   UNL     1      42.717 -18.084   2.265  1.00  0.00     0.031 A 
HETATM   18  C   UNL     1      43.170 -19.398   2.118  1.00  0.00     0.002 A 
HETATM   19  C   UNL     1      43.903 -20.007   3.135  1.00  0.00     0.000 A 
HETATM   20  C   UNL     1      44.192 -19.304   4.302  1.00  0.00     0.002 A 
HETATM   21  C   UNL     1      43.742 -17.991   4.456  1.00  0.00     0.031 A 
ENDBRANCH  13  16
ENDBRANCH  10  11
ENDBRANCH   9  10
ENDBRANCH   6   9
ENDBRANCH   2   5
BRANCH   1  22
HETATM   22  C   UNL     1      43.720 -10.088   9.918  1.00  0.00     0.121 A 
HETATM   23  N   UNL     1      43.665 -11.152  10.775  1.00  0.00    -0.272 N 
HETATM   24  N   UNL     1      43.263 -10.838  12.017  1.00  0.00    -0.174 NA
HETATM   25  H   UNL     1      43.927 -12.113  10.574  1.00  0.00     0.189 HD
HETATM   26  C   UNL     1      42.993  -9.525  11.963  1.00  0.00     0.089 A 
HETATM   27  C   UNL     1      43.249  -9.021  10.657  1.00  0.00     0.071 A 
BRANCH  26  28
HETATM   28  C   UNL     1      42.561  -8.765  13.135  1.00  0.00    -0.005 A 
HETATM   29  C   UNL     1      41.484  -9.214  13.912  1.00  0.00     0.016 A 
HETATM   30  C   UNL     1      41.118  -8.544  15.086  1.00  0.00     0.037 A 
HETATM   31  C   UNL     1      41.823  -7.411  15.493  1.00  0.00     0.068 A 
HETATM   32  C   UNL     1      42.863  -6.931  14.697  1.00  0.00     0.037 A 
HETATM   33  C   UNL     1      43.238  -7.605  13.531  1.00  0.00     0.016 A 
BRANCH  31  34
HETATM   34  O   UNL     1      41.577  -6.686  16.626  1.00  0.00    -0.356 OA
HETATM   35  C   UNL     1      41.559  -5.272  16.467  1.00  0.00     0.210 C 
ENDBRANCH  31  34
ENDBRANCH  26  28
ENDBRANCH   1  22
TORSDOF 8
ENDMDL
MODEL 3
REMARK VINA RESULT:      -9.0      2.416     12.683
REMARK  8 active torsions:
REMARK  status: ('A' for Active; 'I' for Inactive)
REMARK    1  A    between atoms: O_2  and  C_3 
REMARK    2  A    between atoms: C_6  and  C_7 
REMARK    3  A    between atoms: C_11  and  C_12 
REMARK       I    between atoms: C_12  and  N_13 
REMARK    4  A    between atoms: N_13  and  N_14 
REMARK       I    between atoms: N_14  and  C_15 
REMARK    5  A    between atoms: C_15  and  C_16 
REMARK    6  A    between atoms: C_16  and  C_17 
REMARK    7  A    between atoms: C_17  and  C_18 
REMARK    8  A    between atoms: N_20  and  C_21 
ROOT
HETATM    1  C   UNL     1      42.279 -11.729   5.999  1.00  0.00     0.288 C 
HETATM    2  N   UNL     1      43.017 -11.796   7.161  1.00  0.00    -0.262 N 
HETATM    3  O   UNL     1      41.692 -10.703   5.658  1.00  0.00    -0.264 OA
HETATM    4  H   UNL     1      43.484 -12.636   7.493  1.00  0.00     0.190 HD
ENDROOT
BRANCH   2   5
HETATM    5  N   UNL     1      43.171 -10.648   7.948  1.00  0.00    -0.267 N 
HETATM    6  C   UNL     1      44.399 -10.449   8.535  1.00  0.00     0.236 C 
HETATM    7  O   UNL     1      45.362 -11.175   8.277  1.00  0.00    -0.272 OA
HETATM    8  H   UNL     1      42.310 -10.219   8.276  1.00  0.00     0.190 HD
BRANCH   6   9
HETATM    9  C   UNL     1      44.556  -9.214   9.401  1.00  0.00     0.109 C 
BRANCH   9  10
HETATM   10  C   UNL     1      44.660  -9.430  10.906  1.00  0.00     0.051 C 
BRANCH  10  11
HETATM   11  C   UNL     1      43.392  -9.187  11.647  1.00  0.00    -0.021 A 
HETATM   12  C   UNL     1      43.179  -8.337  12.712  1.00  0.00     0.127 A 
HETATM   13  N   UNL     1      41.859  -8.468  13.097  1.00  0.00    -0.245 N 
HETATM   14  N   UNL     1      41.213  -9.360  12.301  1.00  0.00    -0.180 NA
HETATM   15  C   UNL     1      42.136  -9.790  11.445  1.00  0.00     0.147 A 
BRANCH  13  16
HETATM   16  C   UNL     1      41.186  -7.817  14.169  1.00  0.00     0.058 A 
HETATM   17  C   UNL     1      40.199  -6.851  13.930  1.00  0.00     0.031 A 
HETATM   18  C   UNL     1      39.566  -6.217  15.004  1.00  0.00     0.002 A 
HETATM   19  C   UNL     1      39.910  -6.543  16.314  1.00  0.00     0.000 A 
HETATM   20  C   UNL     1      40.886  -7.506  16.559  1.00  0.00     0.002 A 
HETATM   21  C   UNL     1      41.524  -8.143  15.492  1.00  0.00     0.031 A 
ENDBRANCH  13  16
ENDBRANCH  10  11
ENDBRANCH   9  10
ENDBRANCH   6   9
ENDBRANCH   2   5
BRANCH   1  22
HETATM   22  C   UNL     1      42.278 -12.931   5.210  1.00  0.00     0.121 A 
HETATM   23  N   UNL     1      41.656 -13.006   3.995  1.00  0.00    -0.272 N 
HETATM   24  N   UNL     1      41.838 -14.172   3.355  1.00  0.00    -0.174 NA
HETATM   25  H   UNL     1      41.122 -12.274   3.537  1.00  0.00     0.189 HD
HETATM   26  C   UNL     1      42.567 -14.913   4.203  1.00  0.00     0.089 A 
HETATM   27  C   UNL     1      42.846 -14.177   5.388  1.00  0.00     0.071 A 
BRANCH  26  28
HETATM   28  C   UNL     1      43.028 -16.260   3.868  1.00  0.00    -0.005 A 
HETATM   29  C   UNL     1      43.804 -16.990   4.779  1.00  0.00     0.016 A 
HETATM   30  C   UNL     1      44.177 -18.312   4.506  1.00  0.00     0.037 A 
HETATM   31  C   UNL     1      43.782 -18.917   3.313  1.00  0.00     0.068 A 
HETATM   32  C   UNL     1      43.053 -18.179   2.380  1.00  0.00     0.037 A 
HETATM   33  C   UNL     1      42.670 -16.863   2.656  1.00  0.00     0.016 A 
BRANCH  31  34
HETATM   34  O   UNL     1      44.063 -20.202   2.943  1.00  0.00    -0.356 OA
HETATM   35  C   UNL     1      43.666 -20.571   1.627  1.00  0.00     0.210 C 
ENDBRANCH  31  34
ENDBRANCH  26  28
ENDBRANCH   1  22
TORSDOF 8
ENDMDL
MODEL 4
REMARK VINA RESULT:      -8.7      1.441      2.043
REMARK  8 active torsions:
REMARK  status: ('A' for Active; 'I' for Inactive)
REMARK    1  A    between atoms: O_2  and  C_3 
REMARK    2  A    between atoms: C_6  and  C_7 
REMARK    3  A    between atoms: C_11  and  C_12 
REMARK       I    between atoms: C_12  and  N_13 
REMARK    4  A    between atoms: N_13  and  N_14 
REMARK       I    between atoms: N_14  and  C_15 
REMARK    5  A    between atoms: C_15  and  C_16 
REMARK    6  A    between atoms: C_16  and  C_17 
REMARK    7  A    between atoms: C_17  and  C_18 
REMARK    8  A    between atoms: N_20  and  C_21 
ROOT
HETATM    1  C   UNL     1      42.763  -8.922   8.589  1.00  0.00     0.288 C 
HETATM    2  N   UNL     1      43.140 -10.207   8.911  1.00  0.00    -0.262 N 
HETATM    3  O   UNL     1      42.464  -8.599   7.440  1.00  0.00    -0.264 OA
HETATM    4  H   UNL     1      43.429 -10.501   9.840  1.00  0.00     0.190 HD
ENDROOT
BRANCH   2   5
HETATM    5  N   UNL     1      43.116 -11.201   7.926  1.00  0.00    -0.267 N 
HETATM    6  C   UNL     1      44.327 -11.702   7.508  1.00  0.00     0.236 C 
HETATM    7  O   UNL     1      45.381 -11.388   8.064  1.00  0.00    -0.272 OA
HETATM    8  H   UNL     1      42.259 -11.263   7.382  1.00  0.00     0.190 HD
BRANCH   6   9
HETATM    9  C   UNL     1      44.296 -12.766   6.428  1.00  0.00     0.109 C 
BRANCH   9  10
HETATM   10  C   UNL     1      42.977 -13.502   6.215  1.00  0.00     0.051 C 
BRANCH  10  11
HETATM   11  C   UNL     1      43.021 -14.535   5.144  1.00  0.00    -0.021 A 
HETATM   12  C   UNL     1      43.216 -15.894   5.281  1.00  0.00     0.127 A 
HETATM   13  N   UNL     1      43.218 -16.448   4.016  1.00  0.00    -0.245 N 
HETATM   14  N   UNL     1      43.011 -15.492   3.072  1.00  0.00    -0.180 NA
HETATM   15  C   UNL     1      42.903 -14.354   3.753  1.00  0.00     0.147 A 
BRANCH  13  16
HETATM   16  C   UNL     1      43.416 -17.809   3.651  1.00  0.00     0.058 A 
HETATM   17  C   UNL     1      43.107 -18.271   2.364  1.00  0.00     0.031 A 
HETATM   18  C   UNL     1      43.297 -19.618   2.039  1.00  0.00     0.002 A 
HETATM   19  C   UNL     1      43.794 -20.507   2.990  1.00  0.00     0.000 A 
HETATM   20  C   UNL     1      44.107 -20.054   4.270  1.00  0.00     0.002 A 
HETATM   21  C   UNL     1      43.920 -18.710   4.602  1.00  0.00     0.031 A 
ENDBRANCH  13  16
ENDBRANCH  10  11
ENDBRANCH   9  10
ENDBRANCH   6   9
ENDBRANCH   2   5
BRANCH   1  22
HETATM   22  C   UNL     1      42.715  -8.007   9.697  1.00  0.00     0.121 A 
HETATM   23  N   UNL     1      42.768  -6.652   9.526  1.00  0.00    -0.272 N 
HETATM   24  N   UNL     1      42.614  -5.948  10.660  1.00  0.00    -0.174 NA
HETATM   25  H   UNL     1      42.873  -6.150   8.649  1.00  0.00     0.189 HD
HETATM   26  C   UNL     1      42.505  -6.877  11.621  1.00  0.00     0.089 A 
HETATM   27  C   UNL     1      42.584  -8.182  11.060  1.00  0.00     0.071 A 
BRANCH  26  28
HETATM   28  C   UNL     1      42.276  -6.529  13.023  1.00  0.00    -0.005 A 
HETATM   29  C   UNL     1      41.326  -5.558  13.366  1.00  0.00     0.016 A 
HETATM   30  C   UNL     1      41.035  -5.280  14.707  1.00  0.00     0.037 A 
HETATM   31  C   UNL     1      41.698  -5.967  15.723  1.00  0.00     0.068 A 
HETATM   32  C   UNL     1      42.681  -6.899  15.389  1.00  0.00     0.037 A 
HETATM   33  C   UNL     1      42.965  -7.186  14.050  1.00  0.00     0.016 A 
BRANCH  31  34
HETATM   34  O   UNL     1      41.488  -5.802  17.064  1.00  0.00    -0.356 OA
HETATM   35  C   UNL     1      41.963  -6.851  17.901  1.00  0.00     0.210 C 
ENDBRANCH  31  34
ENDBRANCH  26  28
ENDBRANCH   1  22
TORSDOF 8
ENDMDL
MODEL 5
REMARK VINA RESULT:      -8.4      4.119     11.377
REMARK  8 active torsions:
REMARK  status: ('A' for Active; 'I' for Inactive)
REMARK    1  A    between atoms: O_2  and  C_3 
REMARK    2  A    between atoms: C_6  and  C_7 
REMARK    3  A    between atoms: C_11  and  C_12 
REMARK       I    between atoms: C_12  and  N_13 
REMARK    4  A    between atoms: N_13  and  N_14 
REMARK       I    between atoms: N_14  and  C_15 
REMARK    5  A    between atoms: C_15  and  C_16 
REMARK    6  A    between atoms: C_16  and  C_17 
REMARK    7  A    between atoms: C_17  and  C_18 
REMARK    8  A    between atoms: N_20  and  C_21 
ROOT
HETATM    1  C   UNL     1      39.266 -11.712   3.429  1.00  0.00     0.288 C 
HETATM    2  N   UNL     1      39.811 -11.023   4.490  1.00  0.00    -0.262 N 
HETATM    3  O   UNL     1      38.495 -11.177   2.633  1.00  0.00    -0.264 OA
HETATM    4  H   UNL     1      40.421 -11.440   5.189  1.00  0.00     0.190 HD
ENDROOT
BRANCH   2   5
HETATM    5  N   UNL     1      39.547  -9.656   4.636  1.00  0.00    -0.267 N 
HETATM    6  C   UNL     1      38.702  -9.283   5.655  1.00  0.00     0.236 C 
HETATM    7  O   UNL     1      38.297 -10.099   6.487  1.00  0.00    -0.272 OA
HETATM    8  H   UNL     1      39.738  -9.080   3.820  1.00  0.00     0.190 HD
BRANCH   6   9
HETATM    9  C   UNL     1      38.404  -7.803   5.797  1.00  0.00     0.109 C 
BRANCH   9  10
HETATM   10  C   UNL     1      38.879  -7.119   7.074  1.00  0.00     0.051 C 
BRANCH  10  11
HETATM   11  C   UNL     1      40.332  -7.285   7.352  1.00  0.00    -0.021 A 
HETATM   12  C   UNL     1      40.936  -8.182   8.208  1.00  0.00     0.127 A 
HETATM   13  N   UNL     1      42.297  -7.947   8.171  1.00  0.00    -0.245 N 
HETATM   14  N   UNL     1      42.587  -6.941   7.304  1.00  0.00    -0.180 NA
HETATM   15  C   UNL     1      41.410  -6.547   6.827  1.00  0.00     0.147 A 
BRANCH  13  16
HETATM   16  C   UNL     1      43.324  -8.600   8.909  1.00  0.00     0.058 A 
HETATM   17  C   UNL     1      44.663  -8.548   8.497  1.00  0.00     0.031 A 
HETATM   18  C   UNL     1      45.647  -9.213   9.233  1.00  0.00     0.002 A 
HETATM   19  C   UNL     1      45.305  -9.928  10.379  1.00  0.00     0.000 A 
HETATM   20  C   UNL     1      43.978  -9.981  10.797  1.00  0.00     0.002 A 
HETATM   21  C   UNL     1      42.988  -9.320  10.066  1.00  0.00     0.031 A 
ENDBRANCH  13  16
ENDBRANCH  10  11
ENDBRANCH   9  10
ENDBRANCH   6   9
ENDBRANCH   2   5
BRANCH   1  22
HETATM   22  C   UNL     1      39.691 -13.080   3.310  1.00  0.00     0.121 A 
HETATM   23  N   UNL     1      39.012 -13.991   2.550  1.00  0.00    -0.272 N 
HETATM   24  N   UNL     1      39.603 -15.194   2.474  1.00  0.00    -0.174 NA
HETATM   25  H   UNL     1      38.154 -13.834   2.029  1.00  0.00     0.189 HD
HETATM   26  C   UNL     1      40.688 -15.086   3.256  1.00  0.00     0.089 A 
HETATM   27  C   UNL     1      40.768 -13.781   3.815  1.00  0.00     0.071 A 
BRANCH  26  28
HETATM   28  C   UNL     1      41.648 -16.178   3.418  1.00  0.00    -0.005 A 
HETATM   29  C   UNL     1      42.058 -16.931   2.309  1.00  0.00     0.016 A 
HETATM   30  C   UNL     1      43.042 -17.920   2.436  1.00  0.00     0.037 A 
HETATM   31  C   UNL     1      43.622 -18.171   3.679  1.00  0.00     0.068 A 
HETATM   32  C   UNL     1      43.183 -17.460   4.796  1.00  0.00     0.037 A 
HETATM   33  C   UNL     1      42.209 -16.465   4.669  1.00  0.00     0.016 A 
BRANCH  31  34
HETATM   34  O   UNL     1      44.603 -19.090   3.927  1.00  0.00    -0.356 OA
HETATM   35  C   UNL     1      44.324 -20.036   4.953  1.00  0.00     0.210 C 
ENDBRANCH  31  34
ENDBRANCH  26  28
ENDBRANCH   1  22
TORSDOF 8
ENDMDL
MODEL 6
REMARK VINA RESULT:      -8.2      2.866      3.228
REMARK  8 active torsions:
REMARK  status: ('A' for Active; 'I' for Inactive)
REMARK    1  A    between atoms: O_2  and  C_3 
REMARK    2  A    between atoms: C_6  and  C_7 
REMARK    3  A    between atoms: C_11  and  C_12 
REMARK       I    between atoms: C_12  and  N_13 
REMARK    4  A    between atoms: N_13  and  N_14 
REMARK       I    between atoms: N_14  and  C_15 
REMARK    5  A    between atoms: C_15  and  C_16 
REMARK    6  A    between atoms: C_16  and  C_17 
REMARK    7  A    between atoms: C_17  and  C_18 
REMARK    8  A    between atoms: N_20  and  C_21 
ROOT
HETATM    1  C   UNL     1      39.453  -9.547   8.169  1.00  0.00     0.288 C 
HETATM    2  N   UNL     1      39.312 -10.833   7.696  1.00  0.00    -0.262 N 
HETATM    3  O   UNL     1      39.442  -8.572   7.419  1.00  0.00    -0.264 OA
HETATM    4  H   UNL     1      39.352 -11.664   8.280  1.00  0.00     0.190 HD
ENDROOT
BRANCH   2   5
HETATM    5  N   UNL     1      39.074 -11.046   6.333  1.00  0.00    -0.267 N 
HETATM    6  C   UNL     1      39.411 -12.277   5.820  1.00  0.00     0.236 C 
HETATM    7  O   UNL     1      39.783 -13.199   6.549  1.00  0.00    -0.272 OA
HETATM    8  H   UNL     1      38.965 -10.207   5.767  1.00  0.00     0.190 HD
BRANCH   6   9
HETATM    9  C   UNL     1      39.169 -12.495   4.339  1.00  0.00     0.109 C 
BRANCH   9  10
HETATM   10  C   UNL     1      40.274 -12.061   3.383  1.00  0.00     0.051 C 
BRANCH  10  11
HETATM   11  C   UNL     1      41.366 -13.059   3.219  1.00  0.00    -0.021 A 
HETATM   12  C   UNL     1      41.308 -14.423   3.415  1.00  0.00     0.127 A 
HETATM   13  N   UNL     1      42.570 -14.935   3.183  1.00  0.00    -0.245 N 
HETATM   14  N   UNL     1      43.431 -13.947   2.825  1.00  0.00    -0.180 NA
HETATM   15  C   UNL     1      42.708 -12.831   2.857  1.00  0.00     0.147 A 
BRANCH  13  16
HETATM   16  C   UNL     1      43.006 -16.285   3.291  1.00  0.00     0.058 A 
HETATM   17  C   UNL     1      43.732 -16.730   4.405  1.00  0.00     0.031 A 
HETATM   18  C   UNL     1      44.160 -18.058   4.476  1.00  0.00     0.002 A 
HETATM   19  C   UNL     1      43.868 -18.948   3.444  1.00  0.00     0.000 A 
HETATM   20  C   UNL     1      43.143 -18.515   2.337  1.00  0.00     0.002 A 
HETATM   21  C   UNL     1      42.712 -17.189   2.258  1.00  0.00     0.031 A 
ENDBRANCH  13  16
ENDBRANCH  10  11
ENDBRANCH   9  10
ENDBRANCH   6   9
ENDBRANCH   2   5
BRANCH   1  22
HETATM   22  C   UNL     1      39.579  -9.435   9.596  1.00  0.00     0.121 A 
HETATM   23  N   UNL     1      39.208 -10.442  10.443  1.00  0.00    -0.272 N 
HETATM   24  N   UNL     1      39.485 -10.205  11.735  1.00  0.00    -0.174 NA
HETATM   25  H   UNL     1      38.792 -11.333  10.187  1.00  0.00     0.189 HD
HETATM   26  C   UNL     1      40.014  -8.972  11.746  1.00  0.00     0.089 A 
HETATM   27  C   UNL     1      40.072  -8.447  10.426  1.00  0.00     0.071 A 
BRANCH  26  28
HETATM   28  C   UNL     1      40.501  -8.341  12.972  1.00  0.00    -0.005 A 
HETATM   29  C   UNL     1      41.133  -9.107  13.961  1.00  0.00     0.016 A 
HETATM   30  C   UNL     1      41.681  -8.501  15.098  1.00  0.00     0.037 A 
HETATM   31  C   UNL     1      41.598  -7.119  15.261  1.00  0.00     0.068 A 
HETATM   32  C   UNL     1      40.927  -6.356  14.305  1.00  0.00     0.037 A 
HETATM   33  C   UNL     1      40.389  -6.958  13.164  1.00  0.00     0.016 A 
BRANCH  31  34
HETATM   34  O   UNL     1      42.111  -6.409  16.311  1.00  0.00    -0.356 OA
HETATM   35  C   UNL     1      41.931  -6.987  17.599  1.00  0.00     0.210 C 
ENDBRANCH  31  34
ENDBRANCH  26  28
ENDBRANCH   1  22
TORSDOF 8
ENDMDL
MODEL 7
REMARK VINA RESULT:      -8.2      3.241     12.349
REMARK  8 active torsions:
REMARK  status: ('A' for Active; 'I' for Inactive)
REMARK    1  A    between atoms: O_2  and  C_3 
REMARK    2  A    between atoms: C_6  and  C_7 
REMARK    3  A    between atoms: C_11  and  C_12 
REMARK       I    between atoms: C_12  and  N_13 
REMARK    4  A    between atoms: N_13  and  N_14 
REMARK       I    between atoms: N_14  and  C_15 
REMARK    5  A    between atoms: C_15  and  C_16 
REMARK    6  A    between atoms: C_16  and  C_17 
REMARK    7  A    between atoms: C_17  and  C_18 
REMARK    8  A    between atoms: N_20  and  C_21 
ROOT
HETATM    1  C   UNL     1      42.058 -11.784   5.663  1.00  0.00     0.288 C 
HETATM    2  N   UNL     1      41.024 -11.455   6.513  1.00  0.00    -0.262 N 
HETATM    3  O   UNL     1      42.603 -10.947   4.947  1.00  0.00    -0.264 OA
HETATM    4  H   UNL     1      40.525 -12.125   7.092  1.00  0.00     0.190 HD
ENDROOT
BRANCH   2   5
HETATM    5  N   UNL     1      40.622 -10.119   6.627  1.00  0.00    -0.267 N 
HETATM    6  C   UNL     1      39.411  -9.875   7.232  1.00  0.00     0.236 C 
HETATM    7  O   UNL     1      38.766 -10.778   7.769  1.00  0.00    -0.272 OA
HETATM    8  H   UNL     1      41.085  -9.464   6.001  1.00  0.00     0.190 HD
BRANCH   6   9
HETATM    9  C   UNL     1      38.973  -8.427   7.337  1.00  0.00     0.109 C 
BRANCH   9  10
HETATM   10  C   UNL     1      39.926  -7.461   8.031  1.00  0.00     0.051 C 
BRANCH  10  11
HETATM   11  C   UNL     1      39.904  -7.546   9.517  1.00  0.00    -0.021 A 
HETATM   12  C   UNL     1      40.924  -7.258  10.401  1.00  0.00     0.127 A 
HETATM   13  N   UNL     1      40.461  -7.517  11.676  1.00  0.00    -0.245 N 
HETATM   14  N   UNL     1      39.171  -7.943  11.642  1.00  0.00    -0.180 NA
HETATM   15  C   UNL     1      38.849  -7.965  10.351  1.00  0.00     0.147 A 
BRANCH  13  16
HETATM   16  C   UNL     1      41.163  -7.399  12.908  1.00  0.00     0.058 A 
HETATM   17  C   UNL     1      40.482  -7.316  14.130  1.00  0.00     0.031 A 
HETATM   18  C   UNL     1      41.198  -7.186  15.324  1.00  0.00     0.002 A 
HETATM   19  C   UNL     1      42.591  -7.139  15.306  1.00  0.00     0.000 A 
HETATM   20  C   UNL     1      43.275  -7.225  14.096  1.00  0.00     0.002 A 
HETATM   21  C   UNL     1      42.566  -7.355  12.899  1.00  0.00     0.031 A 
ENDBRANCH  13  16
ENDBRANCH  10  11
ENDBRANCH   9  10
ENDBRANCH   6   9
ENDBRANCH   2   5
BRANCH   1  22
HETATM   22  C   UNL     1      42.464 -13.162   5.707  1.00  0.00     0.121 A 
HETATM   23  N   UNL     1      42.535 -13.866   6.877  1.00  0.00    -0.272 N 
HETATM   24  N   UNL     1      42.838 -15.164   6.721  1.00  0.00    -0.174 NA
HETATM   25  H   UNL     1      42.349 -13.515   7.812  1.00  0.00     0.189 HD
HETATM   26  C   UNL     1      43.024 -15.311   5.400  1.00  0.00     0.089 A 
HETATM   27  C   UNL     1      42.819 -14.073   4.731  1.00  0.00     0.071 A 
BRANCH  26  28
HETATM   28  C   UNL     1      43.333 -16.605   4.792  1.00  0.00    -0.005 A 
HETATM   29  C   UNL     1      43.930 -17.620   5.552  1.00  0.00     0.016 A 
HETATM   30  C   UNL     1      44.148 -18.891   5.006  1.00  0.00     0.037 A 
HETATM   31  C   UNL     1      43.777 -19.159   3.689  1.00  0.00     0.068 A 
HETATM   32  C   UNL     1      43.229 -18.138   2.912  1.00  0.00     0.037 A 
HETATM   33  C   UNL     1      42.999 -16.872   3.459  1.00  0.00     0.016 A 
BRANCH  31  34
HETATM   34  O   UNL     1      43.918 -20.360   3.052  1.00  0.00    -0.356 OA
HETATM   35  C   UNL     1      43.511 -20.392   1.688  1.00  0.00     0.210 C 
ENDBRANCH  31  34
ENDBRANCH  26  28
ENDBRANCH   1  22
TORSDOF 8
ENDMDL
MODEL 8
REMARK VINA RESULT:      -8.2      2.943     13.011
REMARK  8 active torsions:
REMARK  status: ('A' for Active; 'I' for Inactive)
REMARK    1  A    between atoms: O_2  and  C_3 
REMARK    2  A    between atoms: C_6  and  C_7 
REMARK    3  A    between atoms: C_11  and  C_12 
REMARK       I    between atoms: C_12  and  N_13 
REMARK    4  A    between atoms: N_13  and  N_14 
REMARK       I    between atoms: N_14  and  C_15 
REMARK    5  A    between atoms: C_15  and  C_16 
REMARK    6  A    between atoms: C_16  and  C_17 
REMARK    7  A    between atoms: C_17  and  C_18 
REMARK    8  A    between atoms: N_20  and  C_21 
ROOT
HETATM    1  C   UNL     1      40.098 -12.222   6.143  1.00  0.00     0.288 C 
HETATM    2  N   UNL     1      41.178 -11.533   6.650  1.00  0.00    -0.262 N 
HETATM    3  O   UNL     1      38.940 -11.875   6.370  1.00  0.00    -0.264 OA
HETATM    4  H   UNL     1      42.147 -11.810   6.515  1.00  0.00     0.190 HD
ENDROOT
BRANCH   2   5
HETATM    5  N   UNL     1      40.967 -10.360   7.384  1.00  0.00    -0.267 N 
HETATM    6  C   UNL     1      42.030  -9.496   7.511  1.00  0.00     0.236 C 
HETATM    7  O   UNL     1      43.084  -9.678   6.898  1.00  0.00    -0.272 OA
HETATM    8  H   UNL     1      40.168 -10.371   8.014  1.00  0.00     0.190 HD
BRANCH   6   9
HETATM    9  C   UNL     1      41.801  -8.236   8.323  1.00  0.00     0.109 C 
BRANCH   9  10
HETATM   10  C   UNL     1      43.033  -7.545   8.896  1.00  0.00     0.051 C 
BRANCH  10  11
HETATM   11  C   UNL     1      42.768  -6.746  10.123  1.00  0.00    -0.021 A 
HETATM   12  C   UNL     1      42.635  -7.197  11.420  1.00  0.00     0.127 A 
HETATM   13  N   UNL     1      42.359  -6.105  12.219  1.00  0.00    -0.245 N 
HETATM   14  N   UNL     1      42.329  -4.964  11.481  1.00  0.00    -0.180 NA
HETATM   15  C   UNL     1      42.566  -5.356  10.231  1.00  0.00     0.147 A 
BRANCH  13  16
HETATM   16  C   UNL     1      42.110  -6.079  13.620  1.00  0.00     0.058 A 
HETATM   17  C   UNL     1      42.748  -6.974  14.490  1.00  0.00     0.031 A 
HETATM   18  C   UNL     1      42.472  -6.936  15.860  1.00  0.00     0.002 A 
HETATM   19  C   UNL     1      41.563  -6.009  16.368  1.00  0.00     0.000 A 
HETATM   20  C   UNL     1      40.928  -5.114  15.510  1.00  0.00     0.002 A 
HETATM   21  C   UNL     1      41.199  -5.147  14.140  1.00  0.00     0.031 A 
ENDBRANCH  13  16
ENDBRANCH  10  11
ENDBRANCH   9  10
ENDBRANCH   6   9
ENDBRANCH   2   5
BRANCH   1  22
HETATM   22  C   UNL     1      40.431 -13.345   5.311  1.00  0.00     0.121 A 
HETATM   23  N   UNL     1      39.787 -13.596   4.132  1.00  0.00    -0.272 N 
HETATM   24  N   UNL     1      40.290 -14.630   3.438  1.00  0.00    -0.174 NA
HETATM   25  H   UNL     1      39.016 -13.068   3.733  1.00  0.00     0.189 HD
HETATM   26  C   UNL     1      41.273 -15.110   4.214  1.00  0.00     0.089 A 
HETATM   27  C   UNL     1      41.380 -14.344   5.408  1.00  0.00     0.071 A 
BRANCH  26  28
HETATM   28  C   UNL     1      42.120 -16.229   3.802  1.00  0.00    -0.005 A 
HETATM   29  C   UNL     1      43.109 -16.724   4.663  1.00  0.00     0.016 A 
HETATM   30  C   UNL     1      43.865 -17.850   4.316  1.00  0.00     0.037 A 
HETATM   31  C   UNL     1      43.644 -18.491   3.098  1.00  0.00     0.068 A 
HETATM   32  C   UNL     1      42.695 -17.975   2.215  1.00  0.00     0.037 A 
HETATM   33  C   UNL     1      41.932 -16.857   2.565  1.00  0.00     0.016 A 
BRANCH  31  34
HETATM   34  O   UNL     1      44.298 -19.608   2.656  1.00  0.00    -0.356 OA
HETATM   35  C   UNL     1      43.578 -20.432   1.748  1.00  0.00     0.210 C 
ENDBRANCH  31  34
ENDBRANCH  26  28
ENDBRANCH   1  22
TORSDOF 8
ENDMDL
MODEL 9
REMARK VINA RESULT:      -8.1      3.406      4.689
REMARK  8 active torsions:
REMARK  status: ('A' for Active; 'I' for Inactive)
REMARK    1  A    between atoms: O_2  and  C_3 
REMARK    2  A    between atoms: C_6  and  C_7 
REMARK    3  A    between atoms: C_11  and  C_12 
REMARK       I    between atoms: C_12  and  N_13 
REMARK    4  A    between atoms: N_13  and  N_14 
REMARK       I    between atoms: N_14  and  C_15 
REMARK    5  A    between atoms: C_15  and  C_16 
REMARK    6  A    between atoms: C_16  and  C_17 
REMARK    7  A    between atoms: C_17  and  C_18 
REMARK    8  A    between atoms: N_20  and  C_21 
ROOT
HETATM    1  C   UNL     1      42.593  -9.517   7.600  1.00  0.00     0.288 C 
HETATM    2  N   UNL     1      43.306 -10.474   6.912  1.00  0.00    -0.262 N 
HETATM    3  O   UNL     1      41.885  -8.692   7.024  1.00  0.00    -0.264 OA
HETATM    4  H   UNL     1      43.929 -11.147   7.350  1.00  0.00     0.190 HD
ENDROOT
BRANCH   2   5
HETATM    5  N   UNL     1      43.172 -10.568   5.521  1.00  0.00    -0.267 N 
HETATM    6  C   UNL     1      43.466 -11.780   4.942  1.00  0.00     0.236 C 
HETATM    7  O   UNL     1      43.710 -12.778   5.623  1.00  0.00    -0.272 OA
HETATM    8  H   UNL     1      43.170  -9.685   5.017  1.00  0.00     0.190 HD
BRANCH   6   9
HETATM    9  C   UNL     1      43.337 -11.871   3.434  1.00  0.00     0.109 C 
BRANCH   9  10
HETATM   10  C   UNL     1      42.854 -13.198   2.857  1.00  0.00     0.051 C 
BRANCH  10  11
HETATM   11  C   UNL     1      41.578 -13.103   2.096  1.00  0.00    -0.021 A 
HETATM   12  C   UNL     1      41.316 -13.548   0.817  1.00  0.00     0.127 A 
HETATM   13  N   UNL     1      40.011 -13.211   0.514  1.00  0.00    -0.245 N 
HETATM   14  N   UNL     1      39.421 -12.581   1.564  1.00  0.00    -0.180 NA
HETATM   15  C   UNL     1      40.364 -12.514   2.499  1.00  0.00     0.147 A 
BRANCH  13  16
HETATM   16  C   UNL     1      39.303 -13.435  -0.700  1.00  0.00     0.058 A 
HETATM   17  C   UNL     1      38.380 -12.500  -1.189  1.00  0.00     0.031 A 
HETATM   18  C   UNL     1      37.688 -12.754  -2.377  1.00  0.00     0.002 A 
HETATM   19  C   UNL     1      37.912 -13.935  -3.081  1.00  0.00     0.000 A 
HETATM   20  C   UNL     1      38.830 -14.867  -2.604  1.00  0.00     0.002 A 
HETATM   21  C   UNL     1      39.525 -14.620  -1.418  1.00  0.00     0.031 A 
ENDBRANCH  13  16
ENDBRANCH  10  11
ENDBRANCH   9  10
ENDBRANCH   6   9
ENDBRANCH   2   5
BRANCH   1  22
HETATM   22  C   UNL     1      42.715  -9.580   9.031  1.00  0.00     0.121 A 
HETATM   23  N   UNL     1      43.432 -10.560   9.659  1.00  0.00    -0.272 N 
HETATM   24  N   UNL     1      43.520 -10.410  10.991  1.00  0.00    -0.174 NA
HETATM   25  H   UNL     1      43.915 -11.339   9.222  1.00  0.00     0.189 HD
HETATM   26  C   UNL     1      42.791  -9.316  11.256  1.00  0.00     0.089 A 
HETATM   27  C   UNL     1      42.252  -8.777  10.055  1.00  0.00     0.071 A 
BRANCH  26  28
HETATM   28  C   UNL     1      42.660  -8.771  12.607  1.00  0.00    -0.005 A 
HETATM   29  C   UNL     1      43.434  -7.672  13.005  1.00  0.00     0.016 A 
HETATM   30  C   UNL     1      43.255  -7.087  14.265  1.00  0.00     0.037 A 
HETATM   31  C   UNL     1      42.302  -7.599  15.143  1.00  0.00     0.068 A 
HETATM   32  C   UNL     1      41.563  -8.723  14.773  1.00  0.00     0.037 A 
HETATM   33  C   UNL     1      41.733  -9.302  13.511  1.00  0.00     0.016 A 
BRANCH  31  34
HETATM   34  O   UNL     1      42.018  -7.104  16.386  1.00  0.00    -0.356 OA
HETATM   35  C   UNL     1      40.778  -7.516  16.951  1.00  0.00     0.210 C 
ENDBRANCH  31  34
ENDBRANCH  26  28
ENDBRANCH   1  22
TORSDOF 8
ENDMDL
MODEL 10
REMARK VINA RESULT:      -8.1      2.886      3.393
REMARK  8 active torsions:
REMARK  status: ('A' for Active; 'I' for Inactive)
REMARK    1  A    between atoms: O_2  and  C_3 
REMARK    2  A    between atoms: C_6  and  C_7 
REMARK    3  A    between atoms: C_11  and  C_12 
REMARK       I    between atoms: C_12  and  N_13 
REMARK    4  A    between atoms: N_13  and  N_14 
REMARK       I    between atoms: N_14  and  C_15 
REMARK    5  A    between atoms: C_15  and  C_16 
REMARK    6  A    between atoms: C_16  and  C_17 
REMARK    7  A    between atoms: C_17  and  C_18 
REMARK    8  A    between atoms: N_20  and  C_21 
ROOT
HETATM    1  C   UNL     1      39.416  -9.979   7.476  1.00  0.00     0.288 C 
HETATM    2  N   UNL     1      40.058 -11.198   7.461  1.00  0.00    -0.262 N 
HETATM    3  O   UNL     1      38.683  -9.618   6.557  1.00  0.00    -0.264 OA
HETATM    4  H   UNL     1      40.699 -11.515   8.183  1.00  0.00     0.190 HD
ENDROOT
BRANCH   2   5
HETATM    5  N   UNL     1      39.819 -12.092   6.410  1.00  0.00    -0.267 N 
HETATM    6  C   UNL     1      40.895 -12.452   5.633  1.00  0.00     0.236 C 
HETATM    7  O   UNL     1      42.044 -12.109   5.924  1.00  0.00    -0.272 OA
HETATM    8  H   UNL     1      38.851 -12.169   6.107  1.00  0.00     0.190 HD
BRANCH   6   9
HETATM    9  C   UNL     1      40.628 -13.405   4.485  1.00  0.00     0.109 C 
BRANCH   9  10
HETATM   10  C   UNL     1      41.510 -13.269   3.249  1.00  0.00     0.051 C 
BRANCH  10  11
HETATM   11  C   UNL     1      42.230 -14.517   2.873  1.00  0.00    -0.021 A 
HETATM   12  C   UNL     1      42.179 -15.748   3.494  1.00  0.00     0.127 A 
HETATM   13  N   UNL     1      43.039 -16.594   2.821  1.00  0.00    -0.245 N 
HETATM   14  N   UNL     1      43.625 -15.952   1.777  1.00  0.00    -0.180 NA
HETATM   15  C   UNL     1      43.144 -14.712   1.820  1.00  0.00     0.147 A 
BRANCH  13  16
HETATM   16  C   UNL     1      43.344 -17.953   3.113  1.00  0.00     0.058 A 
HETATM   17  C   UNL     1      43.133 -18.967   2.168  1.00  0.00     0.031 A 
HETATM   18  C   UNL     1      43.428 -20.295   2.490  1.00  0.00     0.002 A 
HETATM   19  C   UNL     1      43.934 -20.618   3.747  1.00  0.00     0.000 A 
HETATM   20  C   UNL     1      44.151 -19.616   4.689  1.00  0.00     0.002 A 
HETATM   21  C   UNL     1      43.858 -18.286   4.376  1.00  0.00     0.031 A 
ENDBRANCH  13  16
ENDBRANCH  10  11
ENDBRANCH   9  10
ENDBRANCH   6   9
ENDBRANCH   2   5
BRANCH   1  22
HETATM   22  C   UNL     1      39.644  -9.188   8.654  1.00  0.00     0.121 A 
HETATM   23  N   UNL     1      40.778  -8.445   8.826  1.00  0.00    -0.272 N 
HETATM   24  N   UNL     1      40.781  -7.692   9.938  1.00  0.00    -0.174 NA
HETATM   25  H   UNL     1      41.571  -8.385   8.193  1.00  0.00     0.189 HD
HETATM   26  C   UNL     1      39.624  -7.990  10.549  1.00  0.00     0.089 A 
HETATM   27  C   UNL     1      38.891  -8.940   9.785  1.00  0.00     0.071 A 
BRANCH  26  28
HETATM   28  C   UNL     1      39.207  -7.344  11.794  1.00  0.00    -0.005 A 
HETATM   29  C   UNL     1      37.935  -6.767  11.901  1.00  0.00     0.016 A 
HETATM   30  C   UNL     1      37.492  -6.225  13.114  1.00  0.00     0.037 A 
HETATM   31  C   UNL     1      38.323  -6.249  14.233  1.00  0.00     0.068 A 
HETATM   32  C   UNL     1      39.610  -6.776  14.120  1.00  0.00     0.037 A 
HETATM   33  C   UNL     1      40.049  -7.328  12.913  1.00  0.00     0.016 A 
BRANCH  31  34
HETATM   34  O   UNL     1      37.999  -5.773  15.474  1.00  0.00    -0.356 OA
HETATM   35  C   UNL     1      38.974  -5.976  16.491  1.00  0.00     0.210 C 
ENDBRANCH  31  34
ENDBRANCH  26  28
ENDBRANCH   1  22
TORSDOF 8
ENDMDL
