MODEL 1
REMARK VINA RESULT:      -7.5      0.000      0.000
REMARK  6 active torsions:
REMARK  status: ('A' for Active; 'I' for Inactive)
REMARK    1  A    between atoms: C_4  and  C_5 
REMARK    2  A    between atoms: C_5  and  N_6 
REMARK       I    between atoms: N_6  and  C_7 
REMARK       I    between atoms: C_7  and  N_8 
REMARK    3  A    between atoms: N_8  and  C_9 
REMARK    4  A    between atoms: C_9  and  C_10 
REMARK    5  A    between atoms: C_12  and  O_13 
REMARK    6  A    between atoms: O_13  and  C_14 
ROOT
HETATM    1  N   UNL     1      42.511 -16.489   5.121  1.00  0.00    -0.333 N 
HETATM    2  C   UNL     1      41.389 -15.842   5.520  1.00  0.00     0.317 C 
HETATM    3  N   UNL     1      40.665 -15.233   4.547  1.00  0.00    -0.339 N 
HETATM    4  O   UNL     1      41.008 -15.789   6.684  1.00  0.00    -0.247 OA
HETATM    5  H   UNL     1      42.633 -16.700   4.142  1.00  0.00     0.165 HD
HETATM    6  H   UNL     1      39.860 -14.746   4.917  1.00  0.00     0.164 HD
ENDROOT
BRANCH   3   7
HETATM    7  C   UNL     1      41.047 -14.955   3.178  1.00  0.00     0.163 C 
BRANCH   7   8
HETATM    8  C   UNL     1      41.645 -13.592   2.945  1.00  0.00    -0.035 A 
HETATM    9  C   UNL     1      42.791 -13.141   3.608  1.00  0.00     0.066 A 
HETATM   10  C   UNL     1      43.236 -11.851   3.368  1.00  0.00     0.164 A 
HETATM   11  N   UNL     1      42.662 -11.001   2.491  1.00  0.00    -0.237 NA
HETATM   12  C   UNL     1      41.584 -11.465   1.829  1.00  0.00     0.120 A 
HETATM   13  C   UNL     1      41.045 -12.730   2.020  1.00  0.00     0.028 A 
BRANCH  10  14
HETATM   14  O   UNL     1      44.331 -11.429   4.098  1.00  0.00    -0.329 OA
BRANCH  14  15
HETATM   15  C   UNL     1      44.337 -11.805   5.491  1.00  0.00     0.130 C 
HETATM   16  C   UNL     1      45.569 -11.369   6.330  1.00  0.00     0.032 C 
HETATM   17  C   UNL     1      44.599 -11.050   7.480  1.00  0.00     0.005 C 
HETATM   18  C   UNL     1      43.501 -10.880   6.415  1.00  0.00     0.032 C 
ENDBRANCH  14  15
ENDBRANCH  10  14
ENDBRANCH   7   8
ENDBRANCH   3   7
BRANCH   1  19
HETATM   19  C   UNL     1      43.314 -17.281   6.034  1.00  0.00     0.139 C 
HETATM   20  C   UNL     1      44.612 -16.562   6.380  1.00  0.00     0.039 C 
BRANCH  19  21
HETATM   21  C   UNL     1      43.583 -18.603   5.387  1.00  0.00     0.075 A 
HETATM   22  O   UNL     1      43.612 -18.638   4.019  1.00  0.00    -0.318 OA
HETATM   23  C   UNL     1      43.827 -19.931   3.654  1.00  0.00     0.049 A 
HETATM   24  C   UNL     1      43.874 -20.208   2.204  1.00  0.00     0.076 C 
HETATM   25  C   UNL     1      43.959 -20.725   4.771  1.00  0.00     0.035 A 
HETATM   26  C   UNL     1      43.798 -19.872   5.889  1.00  0.00     0.037 A 
ENDBRANCH  19  21
ENDBRANCH   1  19
TORSDOF 6
ENDMDL
MODEL 2
REMARK VINA RESULT:      -7.5      3.052      4.484
REMARK  6 active torsions:
REMARK  status: ('A' for Active; 'I' for Inactive)
REMARK    1  A    between atoms: C_4  and  C_5 
REMARK    2  A    between atoms: C_5  and  N_6 
REMARK       I    between atoms: N_6  and  C_7 
REMARK       I    between atoms: C_7  and  N_8 
REMARK    3  A    between atoms: N_8  and  C_9 
REMARK    4  A    between atoms: C_9  and  C_10 
REMARK    5  A    between atoms: C_12  and  O_13 
REMARK    6  A    between atoms: O_13  and  C_14 
ROOT
HETATM    1  N   UNL     1      43.239 -14.631   5.564  1.00  0.00    -0.333 N 
HETATM    2  C   UNL     1      42.114 -13.965   5.922  1.00  0.00     0.317 C 
HETATM    3  N   UNL     1      42.114 -12.624   5.713  1.00  0.00    -0.339 N 
HETATM    4  O   UNL     1      41.126 -14.506   6.406  1.00  0.00    -0.247 OA
HETATM    5  H   UNL     1      43.906 -14.177   4.957  1.00  0.00     0.165 HD
HETATM    6  H   UNL     1      41.258 -12.188   6.030  1.00  0.00     0.164 HD
ENDROOT
BRANCH   3   7
HETATM    7  C   UNL     1      43.232 -11.759   5.399  1.00  0.00     0.163 C 
BRANCH   7   8
HETATM    8  C   UNL     1      44.118 -11.410   6.568  1.00  0.00    -0.035 A 
HETATM    9  C   UNL     1      43.652 -11.350   7.884  1.00  0.00     0.066 A 
HETATM   10  C   UNL     1      44.530 -10.969   8.886  1.00  0.00     0.164 A 
HETATM   11  N   UNL     1      45.835 -10.691   8.686  1.00  0.00    -0.237 NA
HETATM   12  C   UNL     1      46.279 -10.793   7.417  1.00  0.00     0.120 A 
HETATM   13  C   UNL     1      45.473 -11.140   6.342  1.00  0.00     0.028 A 
BRANCH  10  14
HETATM   14  O   UNL     1      44.005 -10.858  10.159  1.00  0.00    -0.329 OA
BRANCH  14  15
HETATM   15  C   UNL     1      44.163  -9.571  10.792  1.00  0.00     0.130 C 
HETATM   16  C   UNL     1      43.392  -8.379  10.162  1.00  0.00     0.032 C 
HETATM   17  C   UNL     1      43.087  -7.898  11.590  1.00  0.00     0.005 C 
HETATM   18  C   UNL     1      43.278  -9.355  12.049  1.00  0.00     0.032 C 
ENDBRANCH  14  15
ENDBRANCH  10  14
ENDBRANCH   7   8
ENDBRANCH   3   7
BRANCH   1  19
HETATM   19  C   UNL     1      43.334 -16.078   5.620  1.00  0.00     0.139 C 
HETATM   20  C   UNL     1      44.614 -16.512   6.322  1.00  0.00     0.039 C 
BRANCH  19  21
HETATM   21  C   UNL     1      43.281 -16.601   4.219  1.00  0.00     0.075 A 
HETATM   22  O   UNL     1      43.364 -17.957   4.053  1.00  0.00    -0.318 OA
HETATM   23  C   UNL     1      43.338 -18.201   2.714  1.00  0.00     0.049 A 
HETATM   24  C   UNL     1      43.440 -19.615   2.300  1.00  0.00     0.076 C 
HETATM   25  C   UNL     1      43.219 -17.019   2.018  1.00  0.00     0.035 A 
HETATM   26  C   UNL     1      43.185 -15.987   2.986  1.00  0.00     0.037 A 
ENDBRANCH  19  21
ENDBRANCH   1  19
TORSDOF 6
ENDMDL
MODEL 3
REMARK VINA RESULT:      -7.4      2.667      4.908
REMARK  6 active torsions:
REMARK  status: ('A' for Active; 'I' for Inactive)
REMARK    1  A    between atoms: C_4  and  C_5 
REMARK    2  A    between atoms: C_5  and  N_6 
REMARK       I    between atoms: N_6  and  C_7 
REMARK       I    between atoms: C_7  and  N_8 
REMARK    3  A    between atoms: N_8  and  C_9 
REMARK    4  A    between atoms: C_9  and  C_10 
REMARK    5  A    between atoms: C_12  and  O_13 
REMARK    6  A    between atoms: O_13  and  C_14 
ROOT
HETATM    1  N   UNL     1      42.227 -16.845   4.854  1.00  0.00    -0.333 N 
HETATM    2  C   UNL     1      41.244 -16.044   5.334  1.00  0.00     0.317 C 
HETATM    3  N   UNL     1      40.317 -15.624   4.436  1.00  0.00    -0.339 N 
HETATM    4  O   UNL     1      41.155 -15.699   6.507  1.00  0.00    -0.247 OA
HETATM    5  H   UNL     1      42.107 -17.283   3.953  1.00  0.00     0.165 HD
HETATM    6  H   UNL     1      39.632 -15.008   4.855  1.00  0.00     0.164 HD
ENDROOT
BRANCH   3   7
HETATM    7  C   UNL     1      40.362 -15.696   2.991  1.00  0.00     0.163 C 
BRANCH   7   8
HETATM    8  C   UNL     1      40.611 -14.383   2.293  1.00  0.00    -0.035 A 
HETATM    9  C   UNL     1      40.016 -14.044   1.074  1.00  0.00     0.066 A 
HETATM   10  C   UNL     1      40.348 -12.836   0.483  1.00  0.00     0.164 A 
HETATM   11  N   UNL     1      41.183 -11.928   1.030  1.00  0.00    -0.237 NA
HETATM   12  C   UNL     1      41.717 -12.251   2.224  1.00  0.00     0.120 A 
HETATM   13  C   UNL     1      41.469 -13.447   2.883  1.00  0.00     0.028 A 
BRANCH  10  14
HETATM   14  O   UNL     1      39.787 -12.577  -0.752  1.00  0.00    -0.329 OA
BRANCH  14  15
HETATM   15  C   UNL     1      39.114 -13.689  -1.380  1.00  0.00     0.130 C 
HETATM   16  C   UNL     1      37.881 -13.356  -2.263  1.00  0.00     0.032 C 
HETATM   17  C   UNL     1      38.376 -14.424  -3.253  1.00  0.00     0.005 C 
HETATM   18  C   UNL     1      39.787 -14.203  -2.681  1.00  0.00     0.032 C 
ENDBRANCH  14  15
ENDBRANCH  10  14
ENDBRANCH   7   8
ENDBRANCH   3   7
BRANCH   1  19
HETATM   19  C   UNL     1      43.214 -17.462   5.720  1.00  0.00     0.139 C 
HETATM   20  C   UNL     1      44.448 -16.579   5.855  1.00  0.00     0.039 C 
BRANCH  19  21
HETATM   21  C   UNL     1      43.566 -18.798   5.144  1.00  0.00     0.075 A 
HETATM   22  O   UNL     1      43.586 -18.907   3.780  1.00  0.00    -0.318 OA
HETATM   23  C   UNL     1      43.884 -20.202   3.484  1.00  0.00     0.049 A 
HETATM   24  C   UNL     1      43.937 -20.555   2.051  1.00  0.00     0.076 C 
HETATM   25  C   UNL     1      44.076 -20.922   4.642  1.00  0.00     0.035 A 
HETATM   26  C   UNL     1      43.868 -20.019   5.712  1.00  0.00     0.037 A 
ENDBRANCH  19  21
ENDBRANCH   1  19
TORSDOF 6
ENDMDL
MODEL 4
REMARK VINA RESULT:      -7.3      3.095      4.724
REMARK  6 active torsions:
REMARK  status: ('A' for Active; 'I' for Inactive)
REMARK    1  A    between atoms: C_4  and  C_5 
REMARK    2  A    between atoms: C_5  and  N_6 
REMARK       I    between atoms: N_6  and  C_7 
REMARK       I    between atoms: C_7  and  N_8 
REMARK    3  A    between atoms: N_8  and  C_9 
REMARK    4  A    between atoms: C_9  and  C_10 
REMARK    5  A    between atoms: C_12  and  O_13 
REMARK    6  A    between atoms: O_13  and  C_14 
ROOT
HETATM    1  N   UNL     1      42.730 -14.832   4.221  1.00  0.00    -0.333 N 
HETATM    2  C   UNL     1      42.839 -13.520   3.903  1.00  0.00     0.317 C 
HETATM    3  N   UNL     1      43.464 -12.728   4.811  1.00  0.00    -0.339 N 
HETATM    4  O   UNL     1      42.416 -13.033   2.860  1.00  0.00    -0.247 OA
HETATM    5  H   UNL     1      43.303 -15.206   4.963  1.00  0.00     0.165 HD
HETATM    6  H   UNL     1      43.483 -11.758   4.523  1.00  0.00     0.164 HD
ENDROOT
BRANCH   3   7
HETATM    7  C   UNL     1      43.808 -13.028   6.185  1.00  0.00     0.163 C 
BRANCH   7   8
HETATM    8  C   UNL     1      44.301 -11.854   6.991  1.00  0.00    -0.035 A 
HETATM    9  C   UNL     1      43.488 -11.151   7.887  1.00  0.00     0.066 A 
HETATM   10  C   UNL     1      44.015 -10.052   8.544  1.00  0.00     0.164 A 
HETATM   11  N   UNL     1      45.291  -9.630   8.415  1.00  0.00    -0.237 NA
HETATM   12  C   UNL     1      46.073 -10.342   7.580  1.00  0.00     0.120 A 
HETATM   13  C   UNL     1      45.631 -11.440   6.856  1.00  0.00     0.028 A 
BRANCH  10  14
HETATM   14  O   UNL     1      43.154  -9.351   9.366  1.00  0.00    -0.329 OA
BRANCH  14  15
HETATM   15  C   UNL     1      43.728  -8.847  10.590  1.00  0.00     0.130 C 
HETATM   16  C   UNL     1      43.041  -7.611  11.231  1.00  0.00     0.032 C 
HETATM   17  C   UNL     1      43.265  -8.270  12.602  1.00  0.00     0.005 C 
HETATM   18  C   UNL     1      43.309  -9.623  11.868  1.00  0.00     0.032 C 
ENDBRANCH  14  15
ENDBRANCH  10  14
ENDBRANCH   7   8
ENDBRANCH   3   7
BRANCH   1  19
HETATM   19  C   UNL     1      42.194 -15.812   3.295  1.00  0.00     0.139 C 
HETATM   20  C   UNL     1      40.725 -16.090   3.588  1.00  0.00     0.039 C 
BRANCH  19  21
HETATM   21  C   UNL     1      43.014 -17.059   3.412  1.00  0.00     0.075 A 
HETATM   22  O   UNL     1      42.827 -18.023   2.458  1.00  0.00    -0.318 OA
HETATM   23  C   UNL     1      43.634 -19.070   2.782  1.00  0.00     0.049 A 
HETATM   24  C   UNL     1      43.578 -20.246   1.890  1.00  0.00     0.076 C 
HETATM   25  C   UNL     1      44.353 -18.782   3.920  1.00  0.00     0.035 A 
HETATM   26  C   UNL     1      43.951 -17.488   4.329  1.00  0.00     0.037 A 
ENDBRANCH  19  21
ENDBRANCH   1  19
TORSDOF 6
ENDMDL
MODEL 5
REMARK VINA RESULT:      -7.2      2.884      4.863
REMARK  6 active torsions:
REMARK  status: ('A' for Active; 'I' for Inactive)
REMARK    1  A    between atoms: C_4  and  C_5 
REMARK    2  A    between atoms: C_5  and  N_6 
REMARK       I    between atoms: N_6  and  C_7 
REMARK       I    between atoms: C_7  and  N_8 
REMARK    3  A    between atoms: N_8  and  C_9 
REMARK    4  A    between atoms: C_9  and  C_10 
REMARK    5  A    between atoms: C_12  and  O_13 
REMARK    6  A    between atoms: O_13  and  C_14 
ROOT
HETATM    1  N   UNL     1      42.134 -15.480   5.699  1.00  0.00    -0.333 N 
HETATM    2  C   UNL     1      40.838 -15.414   6.091  1.00  0.00     0.317 C 
HETATM    3  N   UNL     1      40.021 -14.628   5.345  1.00  0.00    -0.339 N 
HETATM    4  O   UNL     1      40.385 -16.019   7.057  1.00  0.00    -0.247 OA
HETATM    5  H   UNL     1      42.383 -15.163   4.774  1.00  0.00     0.165 HD
HETATM    6  H   UNL     1      39.078 -14.601   5.711  1.00  0.00     0.164 HD
ENDROOT
BRANCH   3   7
HETATM    7  C   UNL     1      40.381 -13.648   4.341  1.00  0.00     0.163 C 
BRANCH   7   8
HETATM    8  C   UNL     1      40.205 -14.101   2.914  1.00  0.00    -0.035 A 
HETATM    9  C   UNL     1      39.999 -13.212   1.855  1.00  0.00     0.066 A 
HETATM   10  C   UNL     1      39.794 -13.726   0.584  1.00  0.00     0.164 A 
HETATM   11  N   UNL     1      39.825 -15.041   0.283  1.00  0.00    -0.237 NA
HETATM   12  C   UNL     1      40.065 -15.882   1.308  1.00  0.00     0.120 A 
HETATM   13  C   UNL     1      40.255 -15.469   2.619  1.00  0.00     0.028 A 
BRANCH  10  14
HETATM   14  O   UNL     1      39.527 -12.812  -0.417  1.00  0.00    -0.329 OA
BRANCH  14  15
HETATM   15  C   UNL     1      40.447 -12.815  -1.529  1.00  0.00     0.130 C 
HETATM   16  C   UNL     1      39.842 -12.585  -2.941  1.00  0.00     0.032 C 
HETATM   17  C   UNL     1      41.066 -11.710  -3.258  1.00  0.00     0.005 C 
HETATM   18  C   UNL     1      41.209 -11.480  -1.743  1.00  0.00     0.032 C 
ENDBRANCH  14  15
ENDBRANCH  10  14
ENDBRANCH   7   8
ENDBRANCH   3   7
BRANCH   1  19
HETATM   19  C   UNL     1      43.090 -16.371   6.330  1.00  0.00     0.139 C 
HETATM   20  C   UNL     1      44.333 -15.609   6.774  1.00  0.00     0.039 C 
BRANCH  19  21
HETATM   21  C   UNL     1      43.435 -17.449   5.352  1.00  0.00     0.075 A 
HETATM   22  O   UNL     1      43.697 -18.694   5.859  1.00  0.00    -0.318 OA
HETATM   23  C   UNL     1      44.025 -19.495   4.808  1.00  0.00     0.049 A 
HETATM   24  C   UNL     1      44.371 -20.894   5.128  1.00  0.00     0.076 C 
HETATM   25  C   UNL     1      43.957 -18.785   3.630  1.00  0.00     0.035 A 
HETATM   26  C   UNL     1      43.581 -17.466   3.980  1.00  0.00     0.037 A 
ENDBRANCH  19  21
ENDBRANCH   1  19
TORSDOF 6
ENDMDL
MODEL 6
REMARK VINA RESULT:      -7.1      2.278      3.004
REMARK  6 active torsions:
REMARK  status: ('A' for Active; 'I' for Inactive)
REMARK    1  A    between atoms: C_4  and  C_5 
REMARK    2  A    between atoms: C_5  and  N_6 
REMARK       I    between atoms: N_6  and  C_7 
REMARK       I    between atoms: C_7  and  N_8 
REMARK    3  A    between atoms: N_8  and  C_9 
REMARK    4  A    between atoms: C_9  and  C_10 
REMARK    5  A    between atoms: C_12  and  O_13 
REMARK    6  A    between atoms: O_13  and  C_14 
ROOT
HETATM    1  N   UNL     1      41.874 -15.537   6.212  1.00  0.00    -0.333 N 
HETATM    2  C   UNL     1      40.542 -15.307   6.304  1.00  0.00     0.317 C 
HETATM    3  N   UNL     1      40.050 -14.299   5.541  1.00  0.00    -0.339 N 
HETATM    4  O   UNL     1      39.786 -15.953   7.021  1.00  0.00    -0.247 OA
HETATM    5  H   UNL     1      42.388 -15.144   5.438  1.00  0.00     0.165 HD
HETATM    6  H   UNL     1      39.057 -14.163   5.681  1.00  0.00     0.164 HD
ENDROOT
BRANCH   3   7
HETATM    7  C   UNL     1      40.775 -13.266   4.831  1.00  0.00     0.163 C 
BRANCH   7   8
HETATM    8  C   UNL     1      41.114 -12.046   5.649  1.00  0.00    -0.035 A 
HETATM    9  C   UNL     1      42.426 -11.690   5.975  1.00  0.00     0.066 A 
HETATM   10  C   UNL     1      42.636 -10.579   6.777  1.00  0.00     0.164 A 
HETATM   11  N   UNL     1      41.651  -9.778   7.235  1.00  0.00    -0.237 NA
HETATM   12  C   UNL     1      40.395 -10.111   6.878  1.00  0.00     0.120 A 
HETATM   13  C   UNL     1      40.080 -11.218   6.103  1.00  0.00     0.028 A 
BRANCH  10  14
HETATM   14  O   UNL     1      43.944 -10.307   7.127  1.00  0.00    -0.329 OA
BRANCH  14  15
HETATM   15  C   UNL     1      44.126  -9.617   8.381  1.00  0.00     0.130 C 
HETATM   16  C   UNL     1      44.162 -10.491   9.664  1.00  0.00     0.032 C 
HETATM   17  C   UNL     1      45.294  -9.585  10.178  1.00  0.00     0.005 C 
HETATM   18  C   UNL     1      45.597  -9.246   8.708  1.00  0.00     0.032 C 
ENDBRANCH  14  15
ENDBRANCH  10  14
ENDBRANCH   7   8
ENDBRANCH   3   7
BRANCH   1  19
HETATM   19  C   UNL     1      42.516 -16.655   6.879  1.00  0.00     0.139 C 
HETATM   20  C   UNL     1      43.520 -16.167   7.915  1.00  0.00     0.039 C 
BRANCH  19  21
HETATM   21  C   UNL     1      43.179 -17.499   5.837  1.00  0.00     0.075 A 
HETATM   22  O   UNL     1      43.386 -18.819   6.138  1.00  0.00    -0.318 OA
HETATM   23  C   UNL     1      44.032 -19.377   5.078  1.00  0.00     0.049 A 
HETATM   24  C   UNL     1      44.379 -20.807   5.196  1.00  0.00     0.076 C 
HETATM   25  C   UNL     1      44.224 -18.437   4.090  1.00  0.00     0.035 A 
HETATM   26  C   UNL     1      43.678 -17.226   4.580  1.00  0.00     0.037 A 
ENDBRANCH  19  21
ENDBRANCH   1  19
TORSDOF 6
ENDMDL
MODEL 7
REMARK VINA RESULT:      -7.1      3.479      5.688
REMARK  6 active torsions:
REMARK  status: ('A' for Active; 'I' for Inactive)
REMARK    1  A    between atoms: C_4  and  C_5 
REMARK    2  A    between atoms: C_5  and  N_6 
REMARK       I    between atoms: N_6  and  C_7 
REMARK       I    between atoms: C_7  and  N_8 
REMARK    3  A    between atoms: N_8  and  C_9 
REMARK    4  A    between atoms: C_9  and  C_10 
REMARK    5  A    between atoms: C_12  and  O_13 
REMARK    6  A    between atoms: O_13  and  C_14 
ROOT
HETATM    1  N   UNL     1      42.939 -13.244   4.110  1.00  0.00    -0.333 N 
HETATM    2  C   UNL     1      43.515 -12.034   3.912  1.00  0.00     0.317 C 
HETATM    3  N   UNL     1      44.297 -11.566   4.917  1.00  0.00    -0.339 N 
HETATM    4  O   UNL     1      43.369 -11.367   2.893  1.00  0.00    -0.247 OA
HETATM    5  H   UNL     1      43.288 -13.839   4.846  1.00  0.00     0.165 HD
HETATM    6  H   UNL     1      44.670 -10.647   4.715  1.00  0.00     0.164 HD
ENDROOT
BRANCH   3   7
HETATM    7  C   UNL     1      44.407 -12.051   6.277  1.00  0.00     0.163 C 
BRANCH   7   8
HETATM    8  C   UNL     1      44.720 -10.998   7.308  1.00  0.00    -0.035 A 
HETATM    9  C   UNL     1      43.787 -10.554   8.250  1.00  0.00     0.066 A 
HETATM   10  C   UNL     1      44.151  -9.543   9.124  1.00  0.00     0.164 A 
HETATM   11  N   UNL     1      45.376  -8.979   9.164  1.00  0.00    -0.237 NA
HETATM   12  C   UNL     1      46.277  -9.446   8.278  1.00  0.00     0.120 A 
HETATM   13  C   UNL     1      46.001 -10.435   7.344  1.00  0.00     0.028 A 
BRANCH  10  14
HETATM   14  O   UNL     1      43.173  -9.093   9.990  1.00  0.00    -0.329 OA
BRANCH  14  15
HETATM   15  C   UNL     1      43.540  -9.056  11.385  1.00  0.00     0.130 C 
HETATM   16  C   UNL     1      42.959  -7.892  12.234  1.00  0.00     0.032 C 
HETATM   17  C   UNL     1      42.752  -8.905  13.373  1.00  0.00     0.005 C 
HETATM   18  C   UNL     1      42.716 -10.005  12.296  1.00  0.00     0.032 C 
ENDBRANCH  14  15
ENDBRANCH  10  14
ENDBRANCH   7   8
ENDBRANCH   3   7
BRANCH   1  19
HETATM   19  C   UNL     1      42.176 -13.918   3.075  1.00  0.00     0.139 C 
HETATM   20  C   UNL     1      40.685 -13.876   3.385  1.00  0.00     0.039 C 
BRANCH  19  21
HETATM   21  C   UNL     1      42.669 -15.327   2.978  1.00  0.00     0.075 A 
HETATM   22  O   UNL     1      43.089 -15.926   4.135  1.00  0.00    -0.318 OA
HETATM   23  C   UNL     1      43.529 -17.171   3.807  1.00  0.00     0.049 A 
HETATM   24  C   UNL     1      44.055 -17.997   4.912  1.00  0.00     0.076 C 
HETATM   25  C   UNL     1      43.378 -17.388   2.456  1.00  0.00     0.035 A 
HETATM   26  C   UNL     1      42.827 -16.199   1.920  1.00  0.00     0.037 A 
ENDBRANCH  19  21
ENDBRANCH   1  19
TORSDOF 6
ENDMDL
MODEL 8
REMARK VINA RESULT:      -7.0      2.708      6.192
REMARK  6 active torsions:
REMARK  status: ('A' for Active; 'I' for Inactive)
REMARK    1  A    between atoms: C_4  and  C_5 
REMARK    2  A    between atoms: C_5  and  N_6 
REMARK       I    between atoms: N_6  and  C_7 
REMARK       I    between atoms: C_7  and  N_8 
REMARK    3  A    between atoms: N_8  and  C_9 
REMARK    4  A    between atoms: C_9  and  C_10 
REMARK    5  A    between atoms: C_12  and  O_13 
REMARK    6  A    between atoms: O_13  and  C_14 
ROOT
HETATM    1  N   UNL     1      40.828 -11.355   5.481  1.00  0.00    -0.333 N 
HETATM    2  C   UNL     1      39.672 -11.974   5.821  1.00  0.00     0.317 C 
HETATM    3  N   UNL     1      39.137 -12.807   4.893  1.00  0.00    -0.339 N 
HETATM    4  O   UNL     1      39.108 -11.822   6.899  1.00  0.00    -0.247 OA
HETATM    5  H   UNL     1      41.358 -11.704   4.696  1.00  0.00     0.165 HD
HETATM    6  H   UNL     1      38.262 -13.211   5.200  1.00  0.00     0.164 HD
ENDROOT
BRANCH   3   7
HETATM    7  C   UNL     1      39.484 -12.941   3.493  1.00  0.00     0.163 C 
BRANCH   7   8
HETATM    8  C   UNL     1      40.145 -14.243   3.120  1.00  0.00    -0.035 A 
HETATM    9  C   UNL     1      40.956 -14.964   4.002  1.00  0.00     0.066 A 
HETATM   10  C   UNL     1      41.564 -16.125   3.551  1.00  0.00     0.164 A 
HETATM   11  N   UNL     1      41.391 -16.642   2.317  1.00  0.00    -0.237 NA
HETATM   12  C   UNL     1      40.574 -15.957   1.492  1.00  0.00     0.120 A 
HETATM   13  C   UNL     1      39.941 -14.772   1.840  1.00  0.00     0.028 A 
BRANCH  10  14
HETATM   14  O   UNL     1      42.409 -16.764   4.437  1.00  0.00    -0.329 OA
BRANCH  14  15
HETATM   15  C   UNL     1      42.827 -15.985   5.578  1.00  0.00     0.130 C 
HETATM   16  C   UNL     1      42.250 -16.395   6.959  1.00  0.00     0.032 C 
HETATM   17  C   UNL     1      43.640 -16.122   7.556  1.00  0.00     0.005 C 
HETATM   18  C   UNL     1      44.217 -16.370   6.151  1.00  0.00     0.032 C 
ENDBRANCH  14  15
ENDBRANCH  10  14
ENDBRANCH   7   8
ENDBRANCH   3   7
BRANCH   1  19
HETATM   19  C   UNL     1      41.571 -10.531   6.416  1.00  0.00     0.139 C 
HETATM   20  C   UNL     1      41.698  -9.103   5.902  1.00  0.00     0.039 C 
BRANCH  19  21
HETATM   21  C   UNL     1      42.916 -11.156   6.619  1.00  0.00     0.075 A 
HETATM   22  O   UNL     1      43.908 -10.358   7.121  1.00  0.00    -0.318 OA
HETATM   23  C   UNL     1      45.039 -11.112   7.182  1.00  0.00     0.049 A 
HETATM   24  C   UNL     1      46.255 -10.439   7.680  1.00  0.00     0.076 C 
HETATM   25  C   UNL     1      44.781 -12.392   6.743  1.00  0.00     0.035 A 
HETATM   26  C   UNL     1      43.414 -12.420   6.376  1.00  0.00     0.037 A 
ENDBRANCH  19  21
ENDBRANCH   1  19
TORSDOF 6
ENDMDL
MODEL 9
REMARK VINA RESULT:      -6.9      3.196      5.450
REMARK  6 active torsions:
REMARK  status: ('A' for Active; 'I' for Inactive)
REMARK    1  A    between atoms: C_4  and  C_5 
REMARK    2  A    between atoms: C_5  and  N_6 
REMARK       I    between atoms: N_6  and  C_7 
REMARK       I    between atoms: C_7  and  N_8 
REMARK    3  A    between atoms: N_8  and  C_9 
REMARK    4  A    between atoms: C_9  and  C_10 
REMARK    5  A    between atoms: C_12  and  O_13 
REMARK    6  A    between atoms: O_13  and  C_14 
ROOT
HETATM    1  N   UNL     1      41.680 -13.763   5.427  1.00  0.00    -0.333 N 
HETATM    2  C   UNL     1      40.344 -13.785   5.651  1.00  0.00     0.317 C 
HETATM    3  N   UNL     1      39.557 -13.299   4.659  1.00  0.00    -0.339 N 
HETATM    4  O   UNL     1      39.831 -14.218   6.677  1.00  0.00    -0.247 OA
HETATM    5  H   UNL     1      42.017 -13.627   4.485  1.00  0.00     0.165 HD
HETATM    6  H   UNL     1      38.576 -13.318   4.904  1.00  0.00     0.164 HD
ENDROOT
BRANCH   3   7
HETATM    7  C   UNL     1      39.943 -12.525   3.497  1.00  0.00     0.163 C 
BRANCH   7   8
HETATM    8  C   UNL     1      40.058 -13.309   2.216  1.00  0.00    -0.035 A 
HETATM    9  C   UNL     1      40.344 -12.714   0.983  1.00  0.00     0.066 A 
HETATM   10  C   UNL     1      40.377 -13.510  -0.150  1.00  0.00     0.164 A 
HETATM   11  N   UNL     1      40.195 -14.848  -0.143  1.00  0.00    -0.237 NA
HETATM   12  C   UNL     1      39.961 -15.412   1.058  1.00  0.00     0.120 A 
HETATM   13  C   UNL     1      39.881 -14.697   2.245  1.00  0.00     0.028 A 
BRANCH  10  14
HETATM   14  O   UNL     1      40.596 -12.867  -1.353  1.00  0.00    -0.329 OA
BRANCH  14  15
HETATM   15  C   UNL     1      39.435 -12.694  -2.191  1.00  0.00     0.130 C 
HETATM   16  C   UNL     1      38.770 -13.983  -2.746  1.00  0.00     0.032 C 
HETATM   17  C   UNL     1      37.406 -13.324  -2.481  1.00  0.00     0.005 C 
HETATM   18  C   UNL     1      38.108 -12.457  -1.420  1.00  0.00     0.032 C 
ENDBRANCH  14  15
ENDBRANCH  10  14
ENDBRANCH   7   8
ENDBRANCH   3   7
BRANCH   1  19
HETATM   19  C   UNL     1      42.631 -14.359   6.348  1.00  0.00     0.139 C 
HETATM   20  C   UNL     1      43.712 -13.358   6.735  1.00  0.00     0.039 C 
BRANCH  19  21
HETATM   21  C   UNL     1      43.220 -15.566   5.691  1.00  0.00     0.075 A 
HETATM   22  O   UNL     1      42.850 -15.820   4.397  1.00  0.00    -0.318 OA
HETATM   23  C   UNL     1      43.465 -16.974   4.021  1.00  0.00     0.049 A 
HETATM   24  C   UNL     1      43.187 -17.454   2.653  1.00  0.00     0.076 C 
HETATM   25  C   UNL     1      44.243 -17.455   5.050  1.00  0.00     0.035 A 
HETATM   26  C   UNL     1      44.083 -16.551   6.128  1.00  0.00     0.037 A 
ENDBRANCH  19  21
ENDBRANCH   1  19
TORSDOF 6
ENDMDL
MODEL 10
REMARK VINA RESULT:      -6.9      3.773      8.258
REMARK  6 active torsions:
REMARK  status: ('A' for Active; 'I' for Inactive)
REMARK    1  A    between atoms: C_4  and  C_5 
REMARK    2  A    between atoms: C_5  and  N_6 
REMARK       I    between atoms: N_6  and  C_7 
REMARK       I    between atoms: C_7  and  N_8 
REMARK    3  A    between atoms: N_8  and  C_9 
REMARK    4  A    between atoms: C_9  and  C_10 
REMARK    5  A    between atoms: C_12  and  O_13 
REMARK    6  A    between atoms: O_13  and  C_14 
ROOT
HETATM    1  N   UNL     1      43.756 -10.847   8.737  1.00  0.00    -0.333 N 
HETATM    2  C   UNL     1      44.659 -10.914   7.729  1.00  0.00     0.317 C 
HETATM    3  N   UNL     1      44.546 -11.972   6.886  1.00  0.00    -0.339 N 
HETATM    4  O   UNL     1      45.542 -10.083   7.547  1.00  0.00    -0.247 OA
HETATM    5  H   UNL     1      42.923 -11.413   8.687  1.00  0.00     0.165 HD
HETATM    6  H   UNL     1      45.267 -11.975   6.177  1.00  0.00     0.164 HD
ENDROOT
BRANCH   3   7
HETATM    7  C   UNL     1      43.761 -13.178   7.052  1.00  0.00     0.163 C 
BRANCH   7   8
HETATM    8  C   UNL     1      43.059 -13.659   5.808  1.00  0.00    -0.035 A 
HETATM    9  C   UNL     1      42.854 -15.013   5.526  1.00  0.00     0.066 A 
HETATM   10  C   UNL     1      42.245 -15.361   4.331  1.00  0.00     0.164 A 
HETATM   11  N   UNL     1      41.787 -14.471   3.426  1.00  0.00    -0.237 NA
HETATM   12  C   UNL     1      41.955 -13.169   3.731  1.00  0.00     0.120 A 
HETATM   13  C   UNL     1      42.577 -12.721   4.888  1.00  0.00     0.028 A 
BRANCH  10  14
HETATM   14  O   UNL     1      42.126 -16.712   4.068  1.00  0.00    -0.329 OA
BRANCH  14  15
HETATM   15  C   UNL     1      43.261 -17.326   3.420  1.00  0.00     0.130 C 
HETATM   16  C   UNL     1      43.928 -18.520   4.156  1.00  0.00     0.032 C 
HETATM   17  C   UNL     1      44.077 -19.204   2.787  1.00  0.00     0.005 C 
HETATM   18  C   UNL     1      42.898 -18.341   2.304  1.00  0.00     0.032 C 
ENDBRANCH  14  15
ENDBRANCH  10  14
ENDBRANCH   7   8
ENDBRANCH   3   7
BRANCH   1  19
HETATM   19  C   UNL     1      43.685  -9.713   9.639  1.00  0.00     0.139 C 
HETATM   20  C   UNL     1      44.624  -9.900  10.824  1.00  0.00     0.039 C 
BRANCH  19  21
HETATM   21  C   UNL     1      42.266  -9.566  10.090  1.00  0.00     0.075 A 
HETATM   22  O   UNL     1      41.963  -9.994  11.355  1.00  0.00    -0.318 OA
HETATM   23  C   UNL     1      40.627  -9.807  11.534  1.00  0.00     0.049 A 
HETATM   24  C   UNL     1      40.071 -10.225  12.836  1.00  0.00     0.076 C 
HETATM   25  C   UNL     1      40.070  -9.245  10.406  1.00  0.00     0.035 A 
HETATM   26  C   UNL     1      41.125  -9.093   9.474  1.00  0.00     0.037 A 
ENDBRANCH  19  21
ENDBRANCH   1  19
TORSDOF 6
ENDMDL
