MODEL 1
REMARK VINA RESULT:      -8.6      0.000      0.000
REMARK  7 active torsions:
REMARK  status: ('A' for Active; 'I' for Inactive)
REMARK    1  A    between atoms: C_5  and  O_6 
REMARK    2  A    between atoms: O_6  and  C_7 
REMARK    3  A    between atoms: C_7  and  C_8 
REMARK       I    between atoms: C_8  and  N_9 
REMARK    4  A    between atoms: N_9  and  C_10 
REMARK    5  A    between atoms: C_13  and  N_14 
REMARK    6  A    between atoms: N_14  and  C_15 
REMARK    7  A    between atoms: C_15  and  C_16 
ROOT
HETATM    1  C   UNL     1      42.088 -14.841   5.031  1.00  0.00     0.034 A 
HETATM    2  C   UNL     1      42.810 -14.125   4.078  1.00  0.00     0.031 A 
HETATM    3  C   UNL     1      42.503 -14.249   2.716  1.00  0.00     0.026 A 
HETATM    4  C   UNL     1      41.467 -15.079   2.281  1.00  0.00     0.008 A 
HETATM    5  C   UNL     1      40.735 -15.781   3.241  1.00  0.00     0.026 A 
HETATM    6  C   UNL     1      41.059 -15.683   4.599  1.00  0.00     0.031 A 
ENDROOT
BRANCH   1   7
HETATM    7  N   UNL     1      42.374 -14.842   6.405  1.00  0.00    -0.325 N 
HETATM    8  C   UNL     1      43.162 -15.640   7.184  1.00  0.00     0.246 C 
HETATM    9  O   UNL     1      43.020 -15.568   8.410  1.00  0.00    -0.271 OA
HETATM   10  H   UNL     1      41.929 -14.118   6.957  1.00  0.00     0.169 HD
BRANCH   8  11
HETATM   11  C   UNL     1      44.233 -16.549   6.587  1.00  0.00     0.278 C 
BRANCH  11  12
HETATM   12  O   UNL     1      43.822 -17.906   6.682  1.00  0.00    -0.342 OA
BRANCH  12  13
HETATM   13  C   UNL     1      43.813 -18.636   5.528  1.00  0.00     0.069 A 
HETATM   14  C   UNL     1      43.692 -17.882   4.360  1.00  0.00     0.037 A 
HETATM   15  C   UNL     1      43.684 -18.504   3.110  1.00  0.00     0.009 A 
HETATM   16  C   UNL     1      43.787 -19.894   3.014  1.00  0.00    -0.062 A 
HETATM   17  C   UNL     1      43.775 -20.579   1.680  1.00  0.00     0.048 C 
HETATM   18  C   UNL     1      43.881 -20.650   4.191  1.00  0.00     0.009 A 
HETATM   19  C   UNL     1      43.892 -20.025   5.443  1.00  0.00     0.037 A 
ENDBRANCH  12  13
ENDBRANCH  11  12
ENDBRANCH   8  11
ENDBRANCH   1   7
BRANCH   4  20
HETATM   20  N   UNL     1      41.158 -15.224   0.918  1.00  0.00    -0.289 NA
HETATM   21  H   UNL     1      41.957 -15.000   0.331  1.00  0.00     0.128 HD
BRANCH  20  22
HETATM   22  C   UNL     1      39.968 -14.491   0.485  1.00  0.00     0.132 C 
BRANCH  22  23
HETATM   23  C   UNL     1      40.296 -13.694  -0.747  1.00  0.00    -0.027 A 
HETATM   24  C   UNL     1      40.018 -14.186  -2.019  1.00  0.00     0.124 A 
HETATM   25  N   UNL     1      40.278 -13.517  -3.166  1.00  0.00    -0.273 NA
HETATM   26  C   UNL     1      40.841 -12.296  -3.042  1.00  0.00     0.116 A 
HETATM   27  C   UNL     1      41.152 -11.712  -1.825  1.00  0.00     0.020 A 
HETATM   28  C   UNL     1      40.872 -12.423  -0.662  1.00  0.00     0.011 A 
ENDBRANCH  22  23
ENDBRANCH  20  22
ENDBRANCH   4  20
TORSDOF 7
ENDMDL
MODEL 2
REMARK VINA RESULT:      -8.4      1.142      1.975
REMARK  7 active torsions:
REMARK  status: ('A' for Active; 'I' for Inactive)
REMARK    1  A    between atoms: C_5  and  O_6 
REMARK    2  A    between atoms: O_6  and  C_7 
REMARK    3  A    between atoms: C_7  and  C_8 
REMARK       I    between atoms: C_8  and  N_9 
REMARK    4  A    between atoms: N_9  and  C_10 
REMARK    5  A    between atoms: C_13  and  N_14 
REMARK    6  A    between atoms: N_14  and  C_15 
REMARK    7  A    between atoms: C_15  and  C_16 
ROOT
HETATM    1  C   UNL     1      41.705 -15.059   5.053  1.00  0.00     0.034 A 
HETATM    2  C   UNL     1      40.765 -15.973   4.581  1.00  0.00     0.031 A 
HETATM    3  C   UNL     1      40.377 -15.961   3.234  1.00  0.00     0.026 A 
HETATM    4  C   UNL     1      40.927 -15.047   2.332  1.00  0.00     0.008 A 
HETATM    5  C   UNL     1      41.881 -14.144   2.806  1.00  0.00     0.026 A 
HETATM    6  C   UNL     1      42.247 -14.133   4.156  1.00  0.00     0.031 A 
ENDROOT
BRANCH   1   7
HETATM    7  N   UNL     1      42.094 -14.943   6.396  1.00  0.00    -0.325 N 
HETATM    8  C   UNL     1      43.063 -15.562   7.133  1.00  0.00     0.246 C 
HETATM    9  O   UNL     1      43.007 -15.452   8.364  1.00  0.00    -0.271 OA
HETATM   10  H   UNL     1      41.578 -14.275   6.957  1.00  0.00     0.169 HD
BRANCH   8  11
HETATM   11  C   UNL     1      44.220 -16.312   6.481  1.00  0.00     0.278 C 
BRANCH  11  12
HETATM   12  O   UNL     1      43.943 -17.706   6.465  1.00  0.00    -0.342 OA
BRANCH  12  13
HETATM   13  C   UNL     1      43.884 -18.315   5.245  1.00  0.00     0.069 A 
HETATM   14  C   UNL     1      43.969 -19.707   5.280  1.00  0.00     0.037 A 
HETATM   15  C   UNL     1      43.907 -20.454   4.103  1.00  0.00     0.009 A 
HETATM   16  C   UNL     1      43.768 -19.813   2.868  1.00  0.00    -0.062 A 
HETATM   17  C   UNL     1      43.704 -20.600   1.593  1.00  0.00     0.048 C 
HETATM   18  C   UNL     1      43.709 -18.414   2.834  1.00  0.00     0.009 A 
HETATM   19  C   UNL     1      43.769 -17.667   4.016  1.00  0.00     0.037 A 
ENDBRANCH  12  13
ENDBRANCH  11  12
ENDBRANCH   8  11
ENDBRANCH   1   7
BRANCH   4  20
HETATM   20  N   UNL     1      40.537 -15.014   0.983  1.00  0.00    -0.289 NA
HETATM   21  H   UNL     1      41.136 -15.604   0.410  1.00  0.00     0.128 HD
BRANCH  20  22
HETATM   22  C   UNL     1      40.431 -13.669   0.416  1.00  0.00     0.132 C 
BRANCH  22  23
HETATM   23  C   UNL     1      39.475 -13.693  -0.745  1.00  0.00    -0.027 A 
HETATM   24  C   UNL     1      38.605 -12.634  -0.985  1.00  0.00     0.124 A 
HETATM   25  N   UNL     1      37.729 -12.589  -2.015  1.00  0.00    -0.273 NA
HETATM   26  C   UNL     1      37.721 -13.649  -2.851  1.00  0.00     0.116 A 
HETATM   27  C   UNL     1      38.549 -14.750  -2.706  1.00  0.00     0.020 A 
HETATM   28  C   UNL     1      39.439 -14.768  -1.638  1.00  0.00     0.011 A 
ENDBRANCH  22  23
ENDBRANCH  20  22
ENDBRANCH   4  20
TORSDOF 7
ENDMDL
MODEL 3
REMARK VINA RESULT:      -8.1      3.428      6.753
REMARK  7 active torsions:
REMARK  status: ('A' for Active; 'I' for Inactive)
REMARK    1  A    between atoms: C_5  and  O_6 
REMARK    2  A    between atoms: O_6  and  C_7 
REMARK    3  A    between atoms: C_7  and  C_8 
REMARK       I    between atoms: C_8  and  N_9 
REMARK    4  A    between atoms: N_9  and  C_10 
REMARK    5  A    between atoms: C_13  and  N_14 
REMARK    6  A    between atoms: N_14  and  C_15 
REMARK    7  A    between atoms: C_15  and  C_16 
ROOT
HETATM    1  C   UNL     1      43.402 -17.283   5.872  1.00  0.00     0.034 A 
HETATM    2  C   UNL     1      42.083 -16.836   5.902  1.00  0.00     0.031 A 
HETATM    3  C   UNL     1      41.793 -15.496   6.196  1.00  0.00     0.026 A 
HETATM    4  C   UNL     1      42.813 -14.577   6.455  1.00  0.00     0.008 A 
HETATM    5  C   UNL     1      44.134 -15.026   6.407  1.00  0.00     0.026 A 
HETATM    6  C   UNL     1      44.424 -16.369   6.144  1.00  0.00     0.031 A 
ENDROOT
BRANCH   1   7
HETATM    7  N   UNL     1      43.782 -18.617   5.667  1.00  0.00    -0.325 N 
HETATM    8  C   UNL     1      44.005 -19.350   4.536  1.00  0.00     0.246 C 
HETATM    9  O   UNL     1      44.077 -20.580   4.652  1.00  0.00    -0.271 OA
HETATM   10  H   UNL     1      43.935 -19.174   6.500  1.00  0.00     0.169 HD
BRANCH   8  11
HETATM   11  C   UNL     1      44.227 -18.693   3.177  1.00  0.00     0.278 C 
BRANCH  11  12
HETATM   12  O   UNL     1      42.978 -18.487   2.532  1.00  0.00    -0.342 OA
BRANCH  12  13
HETATM   13  C   UNL     1      42.572 -17.195   2.360  1.00  0.00     0.069 A 
HETATM   14  C   UNL     1      43.604 -16.281   2.144  1.00  0.00     0.037 A 
HETATM   15  C   UNL     1      43.327 -14.928   1.940  1.00  0.00     0.009 A 
HETATM   16  C   UNL     1      42.006 -14.470   1.959  1.00  0.00    -0.062 A 
HETATM   17  C   UNL     1      41.690 -13.019   1.747  1.00  0.00     0.048 C 
HETATM   18  C   UNL     1      40.975 -15.385   2.204  1.00  0.00     0.009 A 
HETATM   19  C   UNL     1      41.255 -16.742   2.405  1.00  0.00     0.037 A 
ENDBRANCH  12  13
ENDBRANCH  11  12
ENDBRANCH   8  11
ENDBRANCH   1   7
BRANCH   4  20
HETATM   20  N   UNL     1      42.538 -13.235   6.766  1.00  0.00    -0.289 NA
HETATM   21  H   UNL     1      41.536 -13.065   6.821  1.00  0.00     0.128 HD
BRANCH  20  22
HETATM   22  C   UNL     1      43.185 -12.264   5.883  1.00  0.00     0.132 C 
BRANCH  22  23
HETATM   23  C   UNL     1      44.047 -11.343   6.703  1.00  0.00    -0.027 A 
HETATM   24  C   UNL     1      43.491 -10.308   7.449  1.00  0.00     0.124 A 
HETATM   25  N   UNL     1      44.207  -9.453   8.213  1.00  0.00    -0.273 NA
HETATM   26  C   UNL     1      45.544  -9.638   8.241  1.00  0.00     0.116 A 
HETATM   27  C   UNL     1      46.197 -10.640   7.542  1.00  0.00     0.020 A 
HETATM   28  C   UNL     1      45.434 -11.505   6.764  1.00  0.00     0.011 A 
ENDBRANCH  22  23
ENDBRANCH  20  22
ENDBRANCH   4  20
TORSDOF 7
ENDMDL
MODEL 4
REMARK VINA RESULT:      -7.9      2.084      2.872
REMARK  7 active torsions:
REMARK  status: ('A' for Active; 'I' for Inactive)
REMARK    1  A    between atoms: C_5  and  O_6 
REMARK    2  A    between atoms: O_6  and  C_7 
REMARK    3  A    between atoms: C_7  and  C_8 
REMARK       I    between atoms: C_8  and  N_9 
REMARK    4  A    between atoms: N_9  and  C_10 
REMARK    5  A    between atoms: C_13  and  N_14 
REMARK    6  A    between atoms: N_14  and  C_15 
REMARK    7  A    between atoms: C_15  and  C_16 
ROOT
HETATM    1  C   UNL     1      40.253 -14.394   3.066  1.00  0.00     0.034 A 
HETATM    2  C   UNL     1      40.552 -13.196   2.421  1.00  0.00     0.031 A 
HETATM    3  C   UNL     1      40.584 -13.133   1.022  1.00  0.00     0.026 A 
HETATM    4  C   UNL     1      40.309 -14.258   0.240  1.00  0.00     0.008 A 
HETATM    5  C   UNL     1      39.993 -15.452   0.891  1.00  0.00     0.026 A 
HETATM    6  C   UNL     1      39.991 -15.526   2.289  1.00  0.00     0.031 A 
ENDROOT
BRANCH   1   7
HETATM    7  N   UNL     1      40.276 -14.572   4.458  1.00  0.00    -0.325 N 
HETATM    8  C   UNL     1      41.282 -14.859   5.336  1.00  0.00     0.246 C 
HETATM    9  O   UNL     1      40.965 -15.216   6.477  1.00  0.00    -0.271 OA
HETATM   10  H   UNL     1      39.389 -14.470   4.938  1.00  0.00     0.169 HD
BRANCH   8  11
HETATM   11  C   UNL     1      42.752 -14.688   4.965  1.00  0.00     0.278 C 
BRANCH  11  12
HETATM   12  O   UNL     1      43.483 -15.846   5.348  1.00  0.00    -0.342 OA
BRANCH  12  13
HETATM   13  C   UNL     1      43.524 -16.878   4.455  1.00  0.00     0.069 A 
HETATM   14  C   UNL     1      44.028 -18.075   4.967  1.00  0.00     0.037 A 
HETATM   15  C   UNL     1      44.112 -19.213   4.164  1.00  0.00     0.009 A 
HETATM   16  C   UNL     1      43.699 -19.166   2.829  1.00  0.00    -0.062 A 
HETATM   17  C   UNL     1      43.786 -20.378   1.951  1.00  0.00     0.048 C 
HETATM   18  C   UNL     1      43.219 -17.956   2.311  1.00  0.00     0.009 A 
HETATM   19  C   UNL     1      43.133 -16.816   3.119  1.00  0.00     0.037 A 
ENDBRANCH  12  13
ENDBRANCH  11  12
ENDBRANCH   8  11
ENDBRANCH   1   7
BRANCH   4  20
HETATM   20  N   UNL     1      40.352 -14.213  -1.163  1.00  0.00    -0.289 NA
HETATM   21  H   UNL     1      41.084 -14.816  -1.531  1.00  0.00     0.128 HD
BRANCH  20  22
HETATM   22  C   UNL     1      40.452 -12.865  -1.723  1.00  0.00     0.132 C 
BRANCH  22  23
HETATM   23  C   UNL     1      39.081 -12.383  -2.110  1.00  0.00    -0.027 A 
HETATM   24  C   UNL     1      38.782 -11.025  -2.163  1.00  0.00     0.124 A 
HETATM   25  N   UNL     1      37.574 -10.526  -2.512  1.00  0.00    -0.273 NA
HETATM   26  C   UNL     1      36.616 -11.423  -2.828  1.00  0.00     0.116 A 
HETATM   27  C   UNL     1      36.811 -12.795  -2.814  1.00  0.00     0.020 A 
HETATM   28  C   UNL     1      38.063 -13.278  -2.451  1.00  0.00     0.011 A 
ENDBRANCH  22  23
ENDBRANCH  20  22
ENDBRANCH   4  20
TORSDOF 7
ENDMDL
MODEL 5
REMARK VINA RESULT:      -7.9      3.152      6.457
REMARK  7 active torsions:
REMARK  status: ('A' for Active; 'I' for Inactive)
REMARK    1  A    between atoms: C_5  and  O_6 
REMARK    2  A    between atoms: O_6  and  C_7 
REMARK    3  A    between atoms: C_7  and  C_8 
REMARK       I    between atoms: C_8  and  N_9 
REMARK    4  A    between atoms: N_9  and  C_10 
REMARK    5  A    between atoms: C_13  and  N_14 
REMARK    6  A    between atoms: N_14  and  C_15 
REMARK    7  A    between atoms: C_15  and  C_16 
ROOT
HETATM    1  C   UNL     1      41.978 -12.722   2.564  1.00  0.00     0.034 A 
HETATM    2  C   UNL     1      43.180 -13.427   2.574  1.00  0.00     0.031 A 
HETATM    3  C   UNL     1      43.180 -14.829   2.556  1.00  0.00     0.026 A 
HETATM    4  C   UNL     1      41.985 -15.551   2.517  1.00  0.00     0.008 A 
HETATM    5  C   UNL     1      40.784 -14.839   2.490  1.00  0.00     0.026 A 
HETATM    6  C   UNL     1      40.780 -13.441   2.539  1.00  0.00     0.031 A 
ENDROOT
BRANCH   1   7
HETATM    7  N   UNL     1      41.879 -11.326   2.660  1.00  0.00    -0.325 N 
HETATM    8  C   UNL     1      41.826 -10.475   3.727  1.00  0.00     0.246 C 
HETATM    9  O   UNL     1      41.475  -9.308   3.516  1.00  0.00    -0.271 OA
HETATM   10  H   UNL     1      41.842 -10.817   1.784  1.00  0.00     0.169 HD
BRANCH   8  11
HETATM   11  C   UNL     1      42.243 -10.909   5.129  1.00  0.00     0.278 C 
BRANCH  11  12
HETATM   12  O   UNL     1      41.260 -11.776   5.678  1.00  0.00    -0.342 OA
BRANCH  12  13
HETATM   13  C   UNL     1      41.668 -13.027   6.044  1.00  0.00     0.069 A 
HETATM   14  C   UNL     1      43.038 -13.150   6.280  1.00  0.00     0.037 A 
HETATM   15  C   UNL     1      43.585 -14.372   6.674  1.00  0.00     0.009 A 
HETATM   16  C   UNL     1      42.765 -15.494   6.828  1.00  0.00    -0.062 A 
HETATM   17  C   UNL     1      43.337 -16.816   7.246  1.00  0.00     0.048 C 
HETATM   18  C   UNL     1      41.395 -15.374   6.563  1.00  0.00     0.009 A 
HETATM   19  C   UNL     1      40.847 -14.146   6.171  1.00  0.00     0.037 A 
ENDBRANCH  12  13
ENDBRANCH  11  12
ENDBRANCH   8  11
ENDBRANCH   1   7
BRANCH   4  20
HETATM   20  N   UNL     1      41.969 -16.956   2.514  1.00  0.00    -0.289 NA
HETATM   21  H   UNL     1      41.719 -17.326   3.428  1.00  0.00     0.128 HD
BRANCH  20  22
HETATM   22  C   UNL     1      43.198 -17.574   2.016  1.00  0.00     0.132 C 
BRANCH  22  23
HETATM   23  C   UNL     1      43.532 -18.770   2.865  1.00  0.00    -0.027 A 
HETATM   24  C   UNL     1      43.502 -20.058   2.340  1.00  0.00     0.124 A 
HETATM   25  N   UNL     1      43.800 -21.173   3.046  1.00  0.00    -0.273 NA
HETATM   26  C   UNL     1      44.149 -20.998   4.338  1.00  0.00     0.116 A 
HETATM   27  C   UNL     1      44.216 -19.760   4.956  1.00  0.00     0.020 A 
HETATM   28  C   UNL     1      43.904 -18.632   4.206  1.00  0.00     0.011 A 
ENDBRANCH  22  23
ENDBRANCH  20  22
ENDBRANCH   4  20
TORSDOF 7
ENDMDL
MODEL 6
REMARK VINA RESULT:      -7.9      3.903      7.193
REMARK  7 active torsions:
REMARK  status: ('A' for Active; 'I' for Inactive)
REMARK    1  A    between atoms: C_5  and  O_6 
REMARK    2  A    between atoms: O_6  and  C_7 
REMARK    3  A    between atoms: C_7  and  C_8 
REMARK       I    between atoms: C_8  and  N_9 
REMARK    4  A    between atoms: N_9  and  C_10 
REMARK    5  A    between atoms: C_13  and  N_14 
REMARK    6  A    between atoms: N_14  and  C_15 
REMARK    7  A    between atoms: C_15  and  C_16 
ROOT
HETATM    1  C   UNL     1      41.320 -13.153   2.928  1.00  0.00     0.034 A 
HETATM    2  C   UNL     1      42.683 -13.160   3.216  1.00  0.00     0.031 A 
HETATM    3  C   UNL     1      43.134 -12.894   4.516  1.00  0.00     0.026 A 
HETATM    4  C   UNL     1      42.237 -12.627   5.553  1.00  0.00     0.008 A 
HETATM    5  C   UNL     1      40.871 -12.638   5.262  1.00  0.00     0.026 A 
HETATM    6  C   UNL     1      40.419 -12.872   3.959  1.00  0.00     0.031 A 
ENDROOT
BRANCH   1   7
HETATM    7  N   UNL     1      40.781 -13.329   1.644  1.00  0.00    -0.325 N 
HETATM    8  C   UNL     1      40.294 -14.424   0.990  1.00  0.00     0.246 C 
HETATM    9  O   UNL     1      40.124 -14.335  -0.233  1.00  0.00    -0.271 OA
HETATM   10  H   UNL     1      40.721 -12.500   1.065  1.00  0.00     0.169 HD
BRANCH   8  11
HETATM   11  C   UNL     1      39.905 -15.701   1.728  1.00  0.00     0.278 C 
BRANCH  11  12
HETATM   12  O   UNL     1      41.059 -16.501   1.949  1.00  0.00    -0.342 OA
BRANCH  12  13
HETATM   13  C   UNL     1      41.570 -16.519   3.215  1.00  0.00     0.069 A 
HETATM   14  C   UNL     1      42.948 -16.726   3.287  1.00  0.00     0.037 A 
HETATM   15  C   UNL     1      43.600 -16.753   4.521  1.00  0.00     0.009 A 
HETATM   16  C   UNL     1      42.876 -16.582   5.704  1.00  0.00    -0.062 A 
HETATM   17  C   UNL     1      43.559 -16.613   7.038  1.00  0.00     0.048 C 
HETATM   18  C   UNL     1      41.488 -16.402   5.630  1.00  0.00     0.009 A 
HETATM   19  C   UNL     1      40.837 -16.372   4.391  1.00  0.00     0.037 A 
ENDBRANCH  12  13
ENDBRANCH  11  12
ENDBRANCH   8  11
ENDBRANCH   1   7
BRANCH   4  20
HETATM   20  N   UNL     1      42.675 -12.343   6.857  1.00  0.00    -0.289 NA
HETATM   21  H   UNL     1      42.352 -11.430   7.166  1.00  0.00     0.128 HD
BRANCH  20  22
HETATM   22  C   UNL     1      44.118 -12.483   7.055  1.00  0.00     0.132 C 
BRANCH  22  23
HETATM   23  C   UNL     1      44.664 -11.213   7.645  1.00  0.00    -0.027 A 
HETATM   24  C   UNL     1      45.927 -10.741   7.299  1.00  0.00     0.124 A 
HETATM   25  N   UNL     1      46.473  -9.603   7.785  1.00  0.00    -0.273 NA
HETATM   26  C   UNL     1      45.723  -8.895   8.657  1.00  0.00     0.116 A 
HETATM   27  C   UNL     1      44.454  -9.272   9.063  1.00  0.00     0.020 A 
HETATM   28  C   UNL     1      43.918 -10.447   8.545  1.00  0.00     0.011 A 
ENDBRANCH  22  23
ENDBRANCH  20  22
ENDBRANCH   4  20
TORSDOF 7
ENDMDL
MODEL 7
REMARK VINA RESULT:      -7.8      1.797      2.102
REMARK  7 active torsions:
REMARK  status: ('A' for Active; 'I' for Inactive)
REMARK    1  A    between atoms: C_5  and  O_6 
REMARK    2  A    between atoms: O_6  and  C_7 
REMARK    3  A    between atoms: C_7  and  C_8 
REMARK       I    between atoms: C_8  and  N_9 
REMARK    4  A    between atoms: N_9  and  C_10 
REMARK    5  A    between atoms: C_13  and  N_14 
REMARK    6  A    between atoms: N_14  and  C_15 
REMARK    7  A    between atoms: C_15  and  C_16 
ROOT
HETATM    1  C   UNL     1      42.069 -13.731   3.832  1.00  0.00     0.034 A 
HETATM    2  C   UNL     1      42.647 -13.781   2.565  1.00  0.00     0.031 A 
HETATM    3  C   UNL     1      41.875 -14.123   1.446  1.00  0.00     0.026 A 
HETATM    4  C   UNL     1      40.512 -14.408   1.567  1.00  0.00     0.008 A 
HETATM    5  C   UNL     1      39.934 -14.339   2.837  1.00  0.00     0.026 A 
HETATM    6  C   UNL     1      40.709 -14.029   3.960  1.00  0.00     0.031 A 
ENDROOT
BRANCH   1   7
HETATM    7  N   UNL     1      42.777 -13.478   5.016  1.00  0.00    -0.325 N 
HETATM    8  C   UNL     1      43.042 -14.244   6.115  1.00  0.00     0.246 C 
HETATM    9  O   UNL     1      43.470 -13.672   7.125  1.00  0.00    -0.271 OA
HETATM   10  H   UNL     1      43.192 -12.557   5.104  1.00  0.00     0.169 HD
BRANCH   8  11
HETATM   11  C   UNL     1      42.884 -15.762   6.100  1.00  0.00     0.278 C 
BRANCH  11  12
HETATM   12  O   UNL     1      44.081 -16.366   5.628  1.00  0.00    -0.342 OA
BRANCH  12  13
HETATM   13  C   UNL     1      43.949 -17.402   4.749  1.00  0.00     0.069 A 
HETATM   14  C   UNL     1      43.444 -17.048   3.497  1.00  0.00     0.037 A 
HETATM   15  C   UNL     1      43.273 -18.010   2.500  1.00  0.00     0.009 A 
HETATM   16  C   UNL     1      43.597 -19.347   2.749  1.00  0.00    -0.062 A 
HETATM   17  C   UNL     1      43.415 -20.394   1.691  1.00  0.00     0.048 C 
HETATM   18  C   UNL     1      44.078 -19.703   4.015  1.00  0.00     0.009 A 
HETATM   19  C   UNL     1      44.252 -18.737   5.013  1.00  0.00     0.037 A 
ENDBRANCH  12  13
ENDBRANCH  11  12
ENDBRANCH   8  11
ENDBRANCH   1   7
BRANCH   4  20
HETATM   20  N   UNL     1      39.729 -14.765   0.457  1.00  0.00    -0.289 NA
HETATM   21  H   UNL     1      39.647 -15.776   0.372  1.00  0.00     0.128 HD
BRANCH  20  22
HETATM   22  C   UNL     1      40.161 -14.166  -0.806  1.00  0.00     0.132 C 
BRANCH  22  23
HETATM   23  C   UNL     1      39.062 -13.289  -1.341  1.00  0.00    -0.027 A 
HETATM   24  C   UNL     1      38.934 -11.965  -0.935  1.00  0.00     0.124 A 
HETATM   25  N   UNL     1      37.977 -11.121  -1.384  1.00  0.00    -0.273 NA
HETATM   26  C   UNL     1      37.104 -11.619  -2.286  1.00  0.00     0.116 A 
HETATM   27  C   UNL     1      37.147 -12.920  -2.761  1.00  0.00     0.020 A 
HETATM   28  C   UNL     1      38.143 -13.764  -2.281  1.00  0.00     0.011 A 
ENDBRANCH  22  23
ENDBRANCH  20  22
ENDBRANCH   4  20
TORSDOF 7
ENDMDL
MODEL 8
REMARK VINA RESULT:      -7.7      3.818      6.813
REMARK  7 active torsions:
REMARK  status: ('A' for Active; 'I' for Inactive)
REMARK    1  A    between atoms: C_5  and  O_6 
REMARK    2  A    between atoms: O_6  and  C_7 
REMARK    3  A    between atoms: C_7  and  C_8 
REMARK       I    between atoms: C_8  and  N_9 
REMARK    4  A    between atoms: N_9  and  C_10 
REMARK    5  A    between atoms: C_13  and  N_14 
REMARK    6  A    between atoms: N_14  and  C_15 
REMARK    7  A    between atoms: C_15  and  C_16 
ROOT
HETATM    1  C   UNL     1      41.241 -13.631   3.309  1.00  0.00     0.034 A 
HETATM    2  C   UNL     1      42.547 -13.151   3.368  1.00  0.00     0.031 A 
HETATM    3  C   UNL     1      43.135 -12.841   4.602  1.00  0.00     0.026 A 
HETATM    4  C   UNL     1      42.436 -13.016   5.800  1.00  0.00     0.008 A 
HETATM    5  C   UNL     1      41.133 -13.514   5.736  1.00  0.00     0.026 A 
HETATM    6  C   UNL     1      40.533 -13.794   4.504  1.00  0.00     0.031 A 
ENDROOT
BRANCH   1   7
HETATM    7  N   UNL     1      40.545 -13.891   2.119  1.00  0.00    -0.325 N 
HETATM    8  C   UNL     1      40.490 -14.984   1.301  1.00  0.00     0.246 C 
HETATM    9  O   UNL     1      39.994 -14.837   0.177  1.00  0.00    -0.271 OA
HETATM   10  H   UNL     1      39.953 -13.145   1.773  1.00  0.00     0.169 HD
BRANCH   8  11
HETATM   11  C   UNL     1      40.958 -16.362   1.759  1.00  0.00     0.278 C 
BRANCH  11  12
HETATM   12  O   UNL     1      42.371 -16.363   1.918  1.00  0.00    -0.342 OA
BRANCH  12  13
HETATM   13  C   UNL     1      42.903 -17.313   2.742  1.00  0.00     0.069 A 
HETATM   14  C   UNL     1      43.020 -18.582   2.173  1.00  0.00     0.037 A 
HETATM   15  C   UNL     1      43.562 -19.641   2.902  1.00  0.00     0.009 A 
HETATM   16  C   UNL     1      43.986 -19.446   4.220  1.00  0.00    -0.062 A 
HETATM   17  C   UNL     1      44.566 -20.574   5.019  1.00  0.00     0.048 C 
HETATM   18  C   UNL     1      43.842 -18.177   4.797  1.00  0.00     0.009 A 
HETATM   19  C   UNL     1      43.301 -17.115   4.063  1.00  0.00     0.037 A 
ENDBRANCH  12  13
ENDBRANCH  11  12
ENDBRANCH   8  11
ENDBRANCH   1   7
BRANCH   4  20
HETATM   20  N   UNL     1      43.006 -12.697   7.043  1.00  0.00    -0.289 NA
HETATM   21  H   UNL     1      42.535 -11.905   7.474  1.00  0.00     0.128 HD
BRANCH  20  22
HETATM   22  C   UNL     1      44.454 -12.490   7.010  1.00  0.00     0.132 C 
BRANCH  22  23
HETATM   23  C   UNL     1      44.774 -11.124   7.551  1.00  0.00    -0.027 A 
HETATM   24  C   UNL     1      46.067 -10.613   7.503  1.00  0.00     0.124 A 
HETATM   25  N   UNL     1      46.419  -9.391   7.963  1.00  0.00    -0.273 NA
HETATM   26  C   UNL     1      45.435  -8.636   8.495  1.00  0.00     0.116 A 
HETATM   27  C   UNL     1      44.115  -9.046   8.585  1.00  0.00     0.020 A 
HETATM   28  C   UNL     1      43.782 -10.308   8.104  1.00  0.00     0.011 A 
ENDBRANCH  22  23
ENDBRANCH  20  22
ENDBRANCH   4  20
TORSDOF 7
ENDMDL
MODEL 9
REMARK VINA RESULT:      -7.6      5.456      8.970
REMARK  7 active torsions:
REMARK  status: ('A' for Active; 'I' for Inactive)
REMARK    1  A    between atoms: C_5  and  O_6 
REMARK    2  A    between atoms: O_6  and  C_7 
REMARK    3  A    between atoms: C_7  and  C_8 
REMARK       I    between atoms: C_8  and  N_9 
REMARK    4  A    between atoms: N_9  and  C_10 
REMARK    5  A    between atoms: C_13  and  N_14 
REMARK    6  A    between atoms: N_14  and  C_15 
REMARK    7  A    between atoms: C_15  and  C_16 
ROOT
HETATM    1  C   UNL     1      44.798 -11.544   6.258  1.00  0.00     0.034 A 
HETATM    2  C   UNL     1      44.285 -11.454   4.966  1.00  0.00     0.031 A 
HETATM    3  C   UNL     1      43.406 -12.433   4.483  1.00  0.00     0.026 A 
HETATM    4  C   UNL     1      43.014 -13.511   5.281  1.00  0.00     0.008 A 
HETATM    5  C   UNL     1      43.518 -13.587   6.581  1.00  0.00     0.026 A 
HETATM    6  C   UNL     1      44.420 -12.629   7.055  1.00  0.00     0.031 A 
ENDROOT
BRANCH   1   7
HETATM    7  N   UNL     1      45.743 -10.658   6.799  1.00  0.00    -0.325 N 
HETATM    8  C   UNL     1      45.644  -9.645   7.709  1.00  0.00     0.246 C 
HETATM    9  O   UNL     1      46.596  -8.860   7.802  1.00  0.00    -0.271 OA
HETATM   10  H   UNL     1      46.698 -10.769   6.477  1.00  0.00     0.169 HD
BRANCH   8  11
HETATM   11  C   UNL     1      44.438  -9.503   8.633  1.00  0.00     0.278 C 
BRANCH  11  12
HETATM   12  O   UNL     1      44.694 -10.169   9.863  1.00  0.00    -0.342 OA
BRANCH  12  13
HETATM   13  C   UNL     1      44.002  -9.738  10.959  1.00  0.00     0.069 A 
HETATM   14  C   UNL     1      43.394 -10.750  11.702  1.00  0.00     0.037 A 
HETATM   15  C   UNL     1      42.667 -10.447  12.855  1.00  0.00     0.009 A 
HETATM   16  C   UNL     1      42.532  -9.121  13.275  1.00  0.00    -0.062 A 
HETATM   17  C   UNL     1      41.751  -8.778  14.508  1.00  0.00     0.048 C 
HETATM   18  C   UNL     1      43.121  -8.105  12.511  1.00  0.00     0.009 A 
HETATM   19  C   UNL     1      43.852  -8.411  11.356  1.00  0.00     0.037 A 
ENDBRANCH  12  13
ENDBRANCH  11  12
ENDBRANCH   8  11
ENDBRANCH   1   7
BRANCH   4  20
HETATM   20  N   UNL     1      42.145 -14.507   4.805  1.00  0.00    -0.289 NA
HETATM   21  H   UNL     1      42.036 -15.258   5.482  1.00  0.00     0.128 HD
BRANCH  20  22
HETATM   22  C   UNL     1      42.495 -15.036   3.487  1.00  0.00     0.132 C 
BRANCH  22  23
HETATM   23  C   UNL     1      43.076 -16.415   3.643  1.00  0.00    -0.027 A 
HETATM   24  C   UNL     1      43.217 -17.266   2.551  1.00  0.00     0.124 A 
HETATM   25  N   UNL     1      43.740 -18.512   2.622  1.00  0.00    -0.273 NA
HETATM   26  C   UNL     1      44.146 -18.931   3.839  1.00  0.00     0.116 A 
HETATM   27  C   UNL     1      44.056 -18.162   4.987  1.00  0.00     0.020 A 
HETATM   28  C   UNL     1      43.515 -16.885   4.884  1.00  0.00     0.011 A 
ENDBRANCH  22  23
ENDBRANCH  20  22
ENDBRANCH   4  20
TORSDOF 7
ENDMDL
MODEL 10
REMARK VINA RESULT:      -7.5      1.818      2.279
REMARK  7 active torsions:
REMARK  status: ('A' for Active; 'I' for Inactive)
REMARK    1  A    between atoms: C_5  and  O_6 
REMARK    2  A    between atoms: O_6  and  C_7 
REMARK    3  A    between atoms: C_7  and  C_8 
REMARK       I    between atoms: C_8  and  N_9 
REMARK    4  A    between atoms: N_9  and  C_10 
REMARK    5  A    between atoms: C_13  and  N_14 
REMARK    6  A    between atoms: N_14  and  C_15 
REMARK    7  A    between atoms: C_15  and  C_16 
ROOT
HETATM    1  C   UNL     1      41.592 -13.499   5.954  1.00  0.00     0.034 A 
HETATM    2  C   UNL     1      40.216 -13.294   6.027  1.00  0.00     0.031 A 
HETATM    3  C   UNL     1      39.529 -12.701   4.959  1.00  0.00     0.026 A 
HETATM    4  C   UNL     1      40.198 -12.312   3.796  1.00  0.00     0.008 A 
HETATM    5  C   UNL     1      41.575 -12.535   3.720  1.00  0.00     0.026 A 
HETATM    6  C   UNL     1      42.268 -13.098   4.797  1.00  0.00     0.031 A 
ENDROOT
BRANCH   1   7
HETATM    7  N   UNL     1      42.375 -14.010   7.000  1.00  0.00    -0.325 N 
HETATM    8  C   UNL     1      42.646 -15.284   7.413  1.00  0.00     0.246 C 
HETATM    9  O   UNL     1      43.161 -15.429   8.529  1.00  0.00    -0.271 OA
HETATM   10  H   UNL     1      42.850 -13.329   7.580  1.00  0.00     0.169 HD
BRANCH   8  11
HETATM   11  C   UNL     1      42.392 -16.495   6.521  1.00  0.00     0.278 C 
BRANCH  11  12
HETATM   12  O   UNL     1      43.597 -17.229   6.351  1.00  0.00    -0.342 OA
BRANCH  12  13
HETATM   13  C   UNL     1      43.661 -18.082   5.287  1.00  0.00     0.069 A 
HETATM   14  C   UNL     1      43.375 -17.499   4.052  1.00  0.00     0.037 A 
HETATM   15  C   UNL     1      43.419 -18.256   2.880  1.00  0.00     0.009 A 
HETATM   16  C   UNL     1      43.740 -19.616   2.932  1.00  0.00    -0.062 A 
HETATM   17  C   UNL     1      43.786 -20.445   1.683  1.00  0.00     0.048 C 
HETATM   18  C   UNL     1      43.999 -20.204   4.176  1.00  0.00     0.009 A 
HETATM   19  C   UNL     1      43.958 -19.442   5.350  1.00  0.00     0.037 A 
ENDBRANCH  12  13
ENDBRANCH  11  12
ENDBRANCH   8  11
ENDBRANCH   1   7
BRANCH   4  20
HETATM   20  N   UNL     1      39.525 -11.703   2.724  1.00  0.00    -0.289 NA
HETATM   21  H   UNL     1      38.671 -12.203   2.491  1.00  0.00     0.128 HD
BRANCH  20  22
HETATM   22  C   UNL     1      40.350 -11.491   1.534  1.00  0.00     0.132 C 
BRANCH  22  23
HETATM   23  C   UNL     1      39.850 -12.370   0.420  1.00  0.00    -0.027 A 
HETATM   24  C   UNL     1      40.443 -13.600   0.150  1.00  0.00     0.124 A 
HETATM   25  N   UNL     1      40.037 -14.441  -0.828  1.00  0.00    -0.273 NA
HETATM   26  C   UNL     1      38.986 -14.040  -1.575  1.00  0.00     0.116 A 
HETATM   27  C   UNL     1      38.321 -12.839  -1.387  1.00  0.00     0.020 A 
HETATM   28  C   UNL     1      38.761 -11.995  -0.372  1.00  0.00     0.011 A 
ENDBRANCH  22  23
ENDBRANCH  20  22
ENDBRANCH   4  20
TORSDOF 7
ENDMDL
