MODEL 1
REMARK VINA RESULT:      -8.5      0.000      0.000
REMARK  8 active torsions:
REMARK  status: ('A' for Active; 'I' for Inactive)
REMARK    1  A    between atoms: C_2  and  C_3 
REMARK    2  A    between atoms: C_3  and  N_4 
REMARK    3  A    between atoms: N_4  and  C_6 
REMARK    4  A    between atoms: N_4  and  C_23 
REMARK    5  A    between atoms: C_6  and  C_7 
REMARK       I    between atoms: C_7  and  N_8 
REMARK    6  A    between atoms: N_8  and  C_9 
REMARK    7  A    between atoms: C_23  and  C_24 
REMARK       I    between atoms: C_24  and  N_25 
REMARK    8  A    between atoms: N_25  and  C_26 
ROOT
HETATM    1  N   UNL     1      41.185 -13.078   5.539  1.00  0.00    -0.055 N 
HETATM    2  H   UNL     1      41.432 -13.390   4.587  1.00  0.00     0.281 HD
ENDROOT
BRANCH   1   3
HETATM    3  C   UNL     1      39.705 -12.768   5.538  1.00  0.00     0.235 C 
BRANCH   3   4
HETATM    4  C   UNL     1      39.183 -12.323   4.173  1.00  0.00     0.023 C 
HETATM    5  C   UNL     1      38.961 -10.824   4.053  1.00  0.00     0.007 C 
ENDBRANCH   3   4
ENDBRANCH   1   3
BRANCH   1   6
HETATM    6  C   UNL     1      42.082 -11.870   5.888  1.00  0.00     0.338 C 
BRANCH   6   7
HETATM    7  C   UNL     1      43.507 -12.000   5.317  1.00  0.00     0.249 C 
HETATM    8  N   UNL     1      43.766 -12.144   3.996  1.00  0.00    -0.304 N 
HETATM    9  H   UNL     1      44.742 -12.125   3.720  1.00  0.00     0.171 HD
HETATM   10  O   UNL     1      44.474 -11.890   6.083  1.00  0.00    -0.271 OA
BRANCH   8  11
HETATM   11  C   UNL     1      42.864 -12.405   3.011  1.00  0.00     0.174 A 
HETATM   12  S   UNL     1      42.249 -11.016   2.254  1.00  0.00    -0.050 SA
HETATM   13  C   UNL     1      41.286 -12.015   1.235  1.00  0.00     0.040 A 
HETATM   14  C   UNL     1      41.540 -13.356   1.545  1.00  0.00     0.079 A 
HETATM   15  C   UNL     1      40.381 -11.636   0.232  1.00  0.00     0.061 A 
HETATM   16  N   UNL     1      42.434 -13.563   2.594  1.00  0.00    -0.223 NA
HETATM   17  C   UNL     1      40.894 -14.359   0.793  1.00  0.00     0.072 A 
HETATM   18  C   UNL     1      40.018 -13.990  -0.233  1.00  0.00     0.104 A 
HETATM   19  C   UNL     1      39.741 -12.647  -0.485  1.00  0.00     0.103 A 
HETATM   20  O   UNL     1      39.460 -15.016  -0.954  1.00  0.00    -0.346 OA
HETATM   21  O   UNL     1      38.855 -12.230  -1.447  1.00  0.00    -0.346 OA
HETATM   22  C   UNL     1      38.038 -13.307  -1.921  1.00  0.00     0.202 C 
HETATM   23  C   UNL     1      38.885 -14.542  -2.179  1.00  0.00     0.202 C 
ENDBRANCH   8  11
ENDBRANCH   6   7
ENDBRANCH   1   6
BRANCH   1  24
HETATM   24  C   UNL     1      41.496 -14.307   6.416  1.00  0.00     0.338 C 
BRANCH  24  25
HETATM   25  C   UNL     1      41.482 -15.600   5.594  1.00  0.00     0.248 C 
HETATM   26  N   UNL     1      42.679 -15.867   4.965  1.00  0.00    -0.323 N 
HETATM   27  H   UNL     1      43.454 -15.215   5.081  1.00  0.00     0.169 HD
HETATM   28  O   UNL     1      40.469 -16.296   5.599  1.00  0.00    -0.271 OA
BRANCH  26  29
HETATM   29  C   UNL     1      43.015 -17.000   4.187  1.00  0.00     0.077 A 
HETATM   30  C   UNL     1      43.771 -17.996   4.826  1.00  0.00     0.184 A 
HETATM   31  F   UNL     1      44.116 -17.818   6.112  1.00  0.00    -0.200 F 
HETATM   32  C   UNL     1      44.146 -19.156   4.162  1.00  0.00     0.195 A 
HETATM   33  F   UNL     1      44.854 -20.097   4.801  1.00  0.00    -0.199 F 
HETATM   34  C   UNL     1      43.775 -19.331   2.840  1.00  0.00     0.158 A 
HETATM   35  F   UNL     1      44.127 -20.442   2.181  1.00  0.00    -0.203 F 
HETATM   36  C   UNL     1      43.031 -18.354   2.180  1.00  0.00     0.048 A 
HETATM   37  C   UNL     1      42.647 -17.187   2.853  1.00  0.00     0.036 A 
ENDBRANCH  26  29
ENDBRANCH  24  25
ENDBRANCH   1  24
TORSDOF 8
ENDMDL
MODEL 2
REMARK VINA RESULT:      -8.1      4.880      8.328
REMARK  8 active torsions:
REMARK  status: ('A' for Active; 'I' for Inactive)
REMARK    1  A    between atoms: C_2  and  C_3 
REMARK    2  A    between atoms: C_3  and  N_4 
REMARK    3  A    between atoms: N_4  and  C_6 
REMARK    4  A    between atoms: N_4  and  C_23 
REMARK    5  A    between atoms: C_6  and  C_7 
REMARK       I    between atoms: C_7  and  N_8 
REMARK    6  A    between atoms: N_8  and  C_9 
REMARK    7  A    between atoms: C_23  and  C_24 
REMARK       I    between atoms: C_24  and  N_25 
REMARK    8  A    between atoms: N_25  and  C_26 
ROOT
HETATM    1  N   UNL     1      43.542 -13.344   6.189  1.00  0.00    -0.055 N 
HETATM    2  H   UNL     1      44.471 -13.536   5.783  1.00  0.00     0.281 HD
ENDROOT
BRANCH   1   3
HETATM    3  C   UNL     1      42.595 -13.089   5.037  1.00  0.00     0.235 C 
BRANCH   3   4
HETATM    4  C   UNL     1      43.308 -12.943   3.693  1.00  0.00     0.023 C 
HETATM    5  C   UNL     1      43.094 -14.114   2.748  1.00  0.00     0.007 C 
ENDBRANCH   3   4
ENDBRANCH   1   3
BRANCH   1   6
HETATM    6  C   UNL     1      43.688 -12.152   7.160  1.00  0.00     0.338 C 
BRANCH   6   7
HETATM    7  C   UNL     1      45.064 -11.466   7.062  1.00  0.00     0.249 C 
HETATM    8  N   UNL     1      45.546 -10.633   8.015  1.00  0.00    -0.304 N 
HETATM    9  H   UNL     1      46.500 -10.311   7.896  1.00  0.00     0.171 HD
HETATM   10  O   UNL     1      45.806 -11.741   6.110  1.00  0.00    -0.271 OA
BRANCH   8  11
HETATM   11  C   UNL     1      44.858 -10.110   9.065  1.00  0.00     0.174 A 
HETATM   12  S   UNL     1      44.353  -8.506   8.829  1.00  0.00    -0.050 SA
HETATM   13  C   UNL     1      43.627  -8.520  10.390  1.00  0.00     0.040 A 
HETATM   14  C   UNL     1      43.811  -9.783  10.964  1.00  0.00     0.079 A 
HETATM   15  C   UNL     1      42.941  -7.489  11.051  1.00  0.00     0.061 A 
HETATM   16  N   UNL     1      44.549 -10.682  10.196  1.00  0.00    -0.223 NA
HETATM   17  C   UNL     1      43.249 -10.039  12.232  1.00  0.00     0.072 A 
HETATM   18  C   UNL     1      42.532  -9.029  12.881  1.00  0.00     0.104 A 
HETATM   19  C   UNL     1      42.411  -7.762  12.311  1.00  0.00     0.103 A 
HETATM   20  O   UNL     1      41.974  -9.361  14.090  1.00  0.00    -0.346 OA
HETATM   21  O   UNL     1      41.759  -6.721  12.925  1.00  0.00    -0.346 OA
HETATM   22  C   UNL     1      41.511  -6.991  14.310  1.00  0.00     0.202 C 
HETATM   23  C   UNL     1      40.983  -8.404  14.489  1.00  0.00     0.202 C 
ENDBRANCH   8  11
ENDBRANCH   6   7
ENDBRANCH   1   6
BRANCH   1  24
HETATM   24  C   UNL     1      43.187 -14.653   6.921  1.00  0.00     0.338 C 
BRANCH  24  25
HETATM   25  C   UNL     1      43.870 -15.862   6.271  1.00  0.00     0.248 C 
HETATM   26  N   UNL     1      43.017 -16.638   5.517  1.00  0.00    -0.323 N 
HETATM   27  H   UNL     1      42.035 -16.370   5.450  1.00  0.00     0.169 HD
HETATM   28  O   UNL     1      45.081 -16.011   6.421  1.00  0.00    -0.271 OA
BRANCH  26  29
HETATM   29  C   UNL     1      43.339 -17.778   4.744  1.00  0.00     0.077 A 
HETATM   30  C   UNL     1      43.605 -18.960   5.453  1.00  0.00     0.184 A 
HETATM   31  F   UNL     1      43.534 -18.937   6.795  1.00  0.00    -0.200 F 
HETATM   32  C   UNL     1      43.920 -20.142   4.797  1.00  0.00     0.195 A 
HETATM   33  F   UNL     1      44.154 -21.259   5.500  1.00  0.00    -0.199 F 
HETATM   34  C   UNL     1      43.981 -20.155   3.414  1.00  0.00     0.158 A 
HETATM   35  F   UNL     1      44.283 -21.284   2.762  1.00  0.00    -0.203 F 
HETATM   36  C   UNL     1      43.727 -18.994   2.686  1.00  0.00     0.048 A 
HETATM   37  C   UNL     1      43.404 -17.802   3.350  1.00  0.00     0.036 A 
ENDBRANCH  26  29
ENDBRANCH  24  25
ENDBRANCH   1  24
TORSDOF 8
ENDMDL
MODEL 3
REMARK VINA RESULT:      -8.1      1.622      2.057
REMARK  8 active torsions:
REMARK  status: ('A' for Active; 'I' for Inactive)
REMARK    1  A    between atoms: C_2  and  C_3 
REMARK    2  A    between atoms: C_3  and  N_4 
REMARK    3  A    between atoms: N_4  and  C_6 
REMARK    4  A    between atoms: N_4  and  C_23 
REMARK    5  A    between atoms: C_6  and  C_7 
REMARK       I    between atoms: C_7  and  N_8 
REMARK    6  A    between atoms: N_8  and  C_9 
REMARK    7  A    between atoms: C_23  and  C_24 
REMARK       I    between atoms: C_24  and  N_25 
REMARK    8  A    between atoms: N_25  and  C_26 
ROOT
HETATM    1  N   UNL     1      41.458 -13.289   4.342  1.00  0.00    -0.055 N 
HETATM    2  H   UNL     1      41.445 -13.392   3.314  1.00  0.00     0.281 HD
ENDROOT
BRANCH   1   3
HETATM    3  C   UNL     1      40.302 -14.098   4.886  1.00  0.00     0.235 C 
BRANCH   3   4
HETATM    4  C   UNL     1      40.506 -14.542   6.334  1.00  0.00     0.023 C 
HETATM    5  C   UNL     1      40.154 -15.999   6.590  1.00  0.00     0.007 C 
ENDBRANCH   3   4
ENDBRANCH   1   3
BRANCH   1   6
HETATM    6  C   UNL     1      41.381 -11.781   4.666  1.00  0.00     0.338 C 
BRANCH   6   7
HETATM    7  C   UNL     1      42.484 -10.962   3.968  1.00  0.00     0.249 C 
HETATM    8  N   UNL     1      42.463 -10.666   2.647  1.00  0.00    -0.304 N 
HETATM    9  H   UNL     1      43.189 -10.042   2.310  1.00  0.00     0.171 HD
HETATM   10  O   UNL     1      43.399 -10.481   4.651  1.00  0.00    -0.271 OA
BRANCH   8  11
HETATM   11  C   UNL     1      41.630 -11.187   1.707  1.00  0.00     0.174 A 
HETATM   12  S   UNL     1      40.678 -10.029   0.910  1.00  0.00    -0.050 SA
HETATM   13  C   UNL     1      39.965 -11.283  -0.030  1.00  0.00     0.040 A 
HETATM   14  C   UNL     1      40.545 -12.505   0.330  1.00  0.00     0.079 A 
HETATM   15  C   UNL     1      38.972 -11.186  -1.017  1.00  0.00     0.061 A 
HETATM   16  N   UNL     1      41.486 -12.435   1.355  1.00  0.00    -0.223 NA
HETATM   17  C   UNL     1      40.146 -13.671  -0.354  1.00  0.00     0.072 A 
HETATM   18  C   UNL     1      39.183 -13.579  -1.364  1.00  0.00     0.104 A 
HETATM   19  C   UNL     1      38.582 -12.357  -1.666  1.00  0.00     0.103 A 
HETATM   20  O   UNL     1      38.876 -14.745  -2.020  1.00  0.00    -0.346 OA
HETATM   21  O   UNL     1      37.599 -12.217  -2.615  1.00  0.00    -0.346 OA
HETATM   22  C   UNL     1      37.059 -13.483  -3.012  1.00  0.00     0.202 C 
HETATM   23  C   UNL     1      38.175 -14.488  -3.244  1.00  0.00     0.202 C 
ENDBRANCH   8  11
ENDBRANCH   6   7
ENDBRANCH   1   6
BRANCH   1  24
HETATM   24  C   UNL     1      42.810 -13.905   4.752  1.00  0.00     0.338 C 
BRANCH  24  25
HETATM   25  C   UNL     1      43.167 -15.108   3.873  1.00  0.00     0.248 C 
HETATM   26  N   UNL     1      43.160 -16.309   4.550  1.00  0.00    -0.323 N 
HETATM   27  H   UNL     1      42.933 -16.313   5.544  1.00  0.00     0.169 HD
HETATM   28  O   UNL     1      43.372 -14.928   2.674  1.00  0.00    -0.271 OA
BRANCH  26  29
HETATM   29  C   UNL     1      43.384 -17.602   4.023  1.00  0.00     0.077 A 
HETATM   30  C   UNL     1      43.914 -18.555   4.907  1.00  0.00     0.184 A 
HETATM   31  F   UNL     1      44.166 -18.189   6.175  1.00  0.00    -0.200 F 
HETATM   32  C   UNL     1      44.162 -19.859   4.501  1.00  0.00     0.195 A 
HETATM   33  F   UNL     1      44.655 -20.751   5.371  1.00  0.00    -0.199 F 
HETATM   34  C   UNL     1      43.889 -20.226   3.195  1.00  0.00     0.158 A 
HETATM   35  F   UNL     1      44.121 -21.479   2.782  1.00  0.00    -0.203 F 
HETATM   36  C   UNL     1      43.369 -19.298   2.295  1.00  0.00     0.048 A 
HETATM   37  C   UNL     1      43.113 -17.983   2.708  1.00  0.00     0.036 A 
ENDBRANCH  26  29
ENDBRANCH  24  25
ENDBRANCH   1  24
TORSDOF 8
ENDMDL
MODEL 4
REMARK VINA RESULT:      -8.1      2.589      6.452
REMARK  8 active torsions:
REMARK  status: ('A' for Active; 'I' for Inactive)
REMARK    1  A    between atoms: C_2  and  C_3 
REMARK    2  A    between atoms: C_3  and  N_4 
REMARK    3  A    between atoms: N_4  and  C_6 
REMARK    4  A    between atoms: N_4  and  C_23 
REMARK    5  A    between atoms: C_6  and  C_7 
REMARK       I    between atoms: C_7  and  N_8 
REMARK    6  A    between atoms: N_8  and  C_9 
REMARK    7  A    between atoms: C_23  and  C_24 
REMARK       I    between atoms: C_24  and  N_25 
REMARK    8  A    between atoms: N_25  and  C_26 
ROOT
HETATM    1  N   UNL     1      40.962 -13.772   2.938  1.00  0.00    -0.055 N 
HETATM    2  H   UNL     1      41.853 -13.834   2.420  1.00  0.00     0.281 HD
ENDROOT
BRANCH   1   3
HETATM    3  C   UNL     1      39.995 -14.731   2.281  1.00  0.00     0.235 C 
BRANCH   3   4
HETATM    4  C   UNL     1      40.467 -15.219   0.912  1.00  0.00     0.023 C 
HETATM    5  C   UNL     1      39.890 -14.436  -0.257  1.00  0.00     0.007 C 
ENDBRANCH   3   4
ENDBRANCH   1   3
BRANCH   1   6
HETATM    6  C   UNL     1      40.503 -12.298   2.914  1.00  0.00     0.338 C 
BRANCH   6   7
HETATM    7  C   UNL     1      41.495 -11.375   2.181  1.00  0.00     0.249 C 
HETATM    8  N   UNL     1      42.515 -10.739   2.804  1.00  0.00    -0.304 N 
HETATM    9  H   UNL     1      43.164 -10.232   2.211  1.00  0.00     0.171 HD
HETATM   10  O   UNL     1      41.414 -11.262   0.950  1.00  0.00    -0.271 OA
BRANCH   8  11
HETATM   11  C   UNL     1      42.711 -10.631   4.146  1.00  0.00     0.174 A 
HETATM   12  S   UNL     1      43.968 -11.604   4.741  1.00  0.00    -0.050 SA
HETATM   13  C   UNL     1      43.664 -11.002   6.325  1.00  0.00     0.040 A 
HETATM   14  C   UNL     1      42.625 -10.067   6.263  1.00  0.00     0.079 A 
HETATM   15  C   UNL     1      44.306 -11.330   7.529  1.00  0.00     0.061 A 
HETATM   16  N   UNL     1      42.066  -9.885   5.000  1.00  0.00    -0.223 NA
HETATM   17  C   UNL     1      42.240  -9.404   7.446  1.00  0.00     0.072 A 
HETATM   18  C   UNL     1      42.900  -9.698   8.644  1.00  0.00     0.104 A 
HETATM   19  C   UNL     1      43.896 -10.672   8.688  1.00  0.00     0.103 A 
HETATM   20  O   UNL     1      42.506  -8.981   9.746  1.00  0.00    -0.346 OA
HETATM   21  O   UNL     1      44.543 -11.034   9.844  1.00  0.00    -0.346 OA
HETATM   22  C   UNL     1      43.870 -10.540  11.007  1.00  0.00     0.202 C 
HETATM   23  C   UNL     1      43.463  -9.089  10.810  1.00  0.00     0.202 C 
ENDBRANCH   8  11
ENDBRANCH   6   7
ENDBRANCH   1   6
BRANCH   1  24
HETATM   24  C   UNL     1      41.334 -14.243   4.358  1.00  0.00     0.338 C 
BRANCH  24  25
HETATM   25  C   UNL     1      41.473 -15.768   4.425  1.00  0.00     0.248 C 
HETATM   26  N   UNL     1      42.688 -16.232   3.969  1.00  0.00    -0.323 N 
HETATM   27  H   UNL     1      43.377 -15.561   3.630  1.00  0.00     0.169 HD
HETATM   28  O   UNL     1      40.554 -16.427   4.906  1.00  0.00    -0.271 OA
BRANCH  26  29
HETATM   29  C   UNL     1      43.154 -17.568   3.953  1.00  0.00     0.077 A 
HETATM   30  C   UNL     1      43.085 -18.240   2.722  1.00  0.00     0.184 A 
HETATM   31  F   UNL     1      42.596 -17.584   1.656  1.00  0.00    -0.200 F 
HETATM   32  C   UNL     1      43.525 -19.549   2.587  1.00  0.00     0.195 A 
HETATM   33  F   UNL     1      43.461 -20.160   1.397  1.00  0.00    -0.199 F 
HETATM   34  C   UNL     1      44.036 -20.210   3.692  1.00  0.00     0.158 A 
HETATM   35  F   UNL     1      44.466 -21.474   3.583  1.00  0.00    -0.203 F 
HETATM   36  C   UNL     1      44.109 -19.568   4.926  1.00  0.00     0.048 A 
HETATM   37  C   UNL     1      43.669 -18.244   5.060  1.00  0.00     0.036 A 
ENDBRANCH  26  29
ENDBRANCH  24  25
ENDBRANCH   1  24
TORSDOF 8
ENDMDL
MODEL 5
REMARK VINA RESULT:      -8.0      1.935      3.105
REMARK  8 active torsions:
REMARK  status: ('A' for Active; 'I' for Inactive)
REMARK    1  A    between atoms: C_2  and  C_3 
REMARK    2  A    between atoms: C_3  and  N_4 
REMARK    3  A    between atoms: N_4  and  C_6 
REMARK    4  A    between atoms: N_4  and  C_23 
REMARK    5  A    between atoms: C_6  and  C_7 
REMARK       I    between atoms: C_7  and  N_8 
REMARK    6  A    between atoms: N_8  and  C_9 
REMARK    7  A    between atoms: C_23  and  C_24 
REMARK       I    between atoms: C_24  and  N_25 
REMARK    8  A    between atoms: N_25  and  C_26 
ROOT
HETATM    1  N   UNL     1      42.503 -13.293   5.680  1.00  0.00    -0.055 N 
HETATM    2  H   UNL     1      42.073 -14.078   6.194  1.00  0.00     0.281 HD
ENDROOT
BRANCH   1   3
HETATM    3  C   UNL     1      43.715 -12.851   6.469  1.00  0.00     0.235 C 
BRANCH   3   4
HETATM    4  C   UNL     1      44.399 -11.617   5.882  1.00  0.00     0.023 C 
HETATM    5  C   UNL     1      45.735 -11.284   6.528  1.00  0.00     0.007 C 
ENDBRANCH   3   4
ENDBRANCH   1   3
BRANCH   1   6
HETATM    6  C   UNL     1      41.429 -12.197   5.506  1.00  0.00     0.338 C 
BRANCH   6   7
HETATM    7  C   UNL     1      39.993 -12.740   5.642  1.00  0.00     0.249 C 
HETATM    8  N   UNL     1      39.216 -13.054   4.579  1.00  0.00    -0.304 N 
HETATM    9  H   UNL     1      38.324 -13.492   4.782  1.00  0.00     0.171 HD
HETATM   10  O   UNL     1      39.546 -12.980   6.772  1.00  0.00    -0.271 OA
BRANCH   8  11
HETATM   11  C   UNL     1      39.462 -12.760   3.273  1.00  0.00     0.174 A 
HETATM   12  S   UNL     1      39.784 -14.120   2.309  1.00  0.00    -0.050 SA
HETATM   13  C   UNL     1      39.971 -13.089   0.943  1.00  0.00     0.040 A 
HETATM   14  C   UNL     1      39.740 -11.766   1.338  1.00  0.00     0.079 A 
HETATM   15  C   UNL     1      40.292 -13.430  -0.380  1.00  0.00     0.061 A 
HETATM   16  N   UNL     1      39.474 -11.591   2.695  1.00  0.00    -0.223 NA
HETATM   17  C   UNL     1      39.789 -10.750   0.363  1.00  0.00     0.072 A 
HETATM   18  C   UNL     1      40.072 -11.086  -0.965  1.00  0.00     0.104 A 
HETATM   19  C   UNL     1      40.352 -12.404  -1.322  1.00  0.00     0.103 A 
HETATM   20  O   UNL     1      40.058 -10.053  -1.869  1.00  0.00    -0.346 OA
HETATM   21  O   UNL     1      40.681 -12.783  -2.600  1.00  0.00    -0.346 OA
HETATM   22  C   UNL     1      41.007 -11.656  -3.422  1.00  0.00     0.202 C 
HETATM   23  C   UNL     1      39.997 -10.540  -3.217  1.00  0.00     0.202 C 
ENDBRANCH   8  11
ENDBRANCH   6   7
ENDBRANCH   1   6
BRANCH   1  24
HETATM   24  C   UNL     1      42.915 -13.924   4.334  1.00  0.00     0.338 C 
BRANCH  24  25
HETATM   25  C   UNL     1      42.623 -15.428   4.308  1.00  0.00     0.248 C 
HETATM   26  N   UNL     1      43.544 -16.157   3.585  1.00  0.00    -0.323 N 
HETATM   27  H   UNL     1      44.316 -15.667   3.135  1.00  0.00     0.169 HD
HETATM   28  O   UNL     1      41.665 -15.858   4.947  1.00  0.00    -0.271 OA
BRANCH  26  29
HETATM   29  C   UNL     1      43.597 -17.560   3.416  1.00  0.00     0.077 A 
HETATM   30  C   UNL     1      44.124 -18.300   4.487  1.00  0.00     0.184 A 
HETATM   31  F   UNL     1      44.530 -17.642   5.587  1.00  0.00    -0.200 F 
HETATM   32  C   UNL     1      44.213 -19.684   4.436  1.00  0.00     0.195 A 
HETATM   33  F   UNL     1      44.705 -20.365   5.479  1.00  0.00    -0.199 F 
HETATM   34  C   UNL     1      43.781 -20.349   3.301  1.00  0.00     0.158 A 
HETATM   35  F   UNL     1      43.858 -21.684   3.231  1.00  0.00    -0.203 F 
HETATM   36  C   UNL     1      43.261 -19.638   2.221  1.00  0.00     0.048 A 
HETATM   37  C   UNL     1      43.166 -18.241   2.277  1.00  0.00     0.036 A 
ENDBRANCH  26  29
ENDBRANCH  24  25
ENDBRANCH   1  24
TORSDOF 8
ENDMDL
MODEL 6
REMARK VINA RESULT:      -7.9      4.472      7.919
REMARK  8 active torsions:
REMARK  status: ('A' for Active; 'I' for Inactive)
REMARK    1  A    between atoms: C_2  and  C_3 
REMARK    2  A    between atoms: C_3  and  N_4 
REMARK    3  A    between atoms: N_4  and  C_6 
REMARK    4  A    between atoms: N_4  and  C_23 
REMARK    5  A    between atoms: C_6  and  C_7 
REMARK       I    between atoms: C_7  and  N_8 
REMARK    6  A    between atoms: N_8  and  C_9 
REMARK    7  A    between atoms: C_23  and  C_24 
REMARK       I    between atoms: C_24  and  N_25 
REMARK    8  A    between atoms: N_25  and  C_26 
ROOT
HETATM    1  N   UNL     1      43.041 -12.706   5.885  1.00  0.00    -0.055 N 
HETATM    2  H   UNL     1      43.516 -13.209   5.118  1.00  0.00     0.281 HD
ENDROOT
BRANCH   1   3
HETATM    3  C   UNL     1      42.563 -11.385   5.324  1.00  0.00     0.235 C 
BRANCH   3   4
HETATM    4  C   UNL     1      43.093 -11.099   3.920  1.00  0.00     0.023 C 
HETATM    5  C   UNL     1      43.382 -12.348   3.102  1.00  0.00     0.007 C 
ENDBRANCH   3   4
ENDBRANCH   1   3
BRANCH   1   6
HETATM    6  C   UNL     1      44.043 -12.571   7.052  1.00  0.00     0.338 C 
BRANCH   6   7
HETATM    7  C   UNL     1      45.152 -11.540   6.773  1.00  0.00     0.249 C 
HETATM    8  N   UNL     1      45.418 -10.496   7.594  1.00  0.00    -0.304 N 
HETATM    9  H   UNL     1      46.230  -9.933   7.364  1.00  0.00     0.171 HD
HETATM   10  O   UNL     1      45.894 -11.705   5.795  1.00  0.00    -0.271 OA
BRANCH   8  11
HETATM   11  C   UNL     1      44.661 -10.067   8.639  1.00  0.00     0.174 A 
HETATM   12  S   UNL     1      43.568  -8.831   8.238  1.00  0.00    -0.050 SA
HETATM   13  C   UNL     1      43.017  -8.808   9.869  1.00  0.00     0.040 A 
HETATM   14  C   UNL     1      43.708  -9.786  10.594  1.00  0.00     0.079 A 
HETATM   15  C   UNL     1      42.041  -7.989  10.457  1.00  0.00     0.061 A 
HETATM   16  N   UNL     1      44.675 -10.485   9.874  1.00  0.00    -0.223 NA
HETATM   17  C   UNL     1      43.379  -9.980  11.951  1.00  0.00     0.072 A 
HETATM   18  C   UNL     1      42.382  -9.194  12.535  1.00  0.00     0.104 A 
HETATM   19  C   UNL     1      41.747  -8.190  11.805  1.00  0.00     0.103 A 
HETATM   20  O   UNL     1      42.081  -9.469  13.846  1.00  0.00    -0.346 OA
HETATM   21  O   UNL     1      40.795  -7.358  12.341  1.00  0.00    -0.346 OA
HETATM   22  C   UNL     1      40.769  -7.431  13.771  1.00  0.00     0.202 C 
HETATM   23  C   UNL     1      40.832  -8.877  14.231  1.00  0.00     0.202 C 
ENDBRANCH   8  11
ENDBRANCH   6   7
ENDBRANCH   1   6
BRANCH   1  24
HETATM   24  C   UNL     1      41.853 -13.623   6.239  1.00  0.00     0.338 C 
BRANCH  24  25
HETATM   25  C   UNL     1      41.777 -14.830   5.298  1.00  0.00     0.248 C 
HETATM   26  N   UNL     1      43.006 -15.384   5.010  1.00  0.00    -0.323 N 
HETATM   27  H   UNL     1      43.842 -14.969   5.419  1.00  0.00     0.169 HD
HETATM   28  O   UNL     1      40.673 -15.228   4.931  1.00  0.00    -0.271 OA
BRANCH  26  29
HETATM   29  C   UNL     1      43.276 -16.533   4.230  1.00  0.00     0.077 A 
HETATM   30  C   UNL     1      43.866 -17.618   4.898  1.00  0.00     0.184 A 
HETATM   31  F   UNL     1      44.127 -17.502   6.211  1.00  0.00    -0.200 F 
HETATM   32  C   UNL     1      44.164 -18.800   4.234  1.00  0.00     0.195 A 
HETATM   33  F   UNL     1      44.713 -19.825   4.901  1.00  0.00    -0.199 F 
HETATM   34  C   UNL     1      43.882 -18.909   2.884  1.00  0.00     0.158 A 
HETATM   35  F   UNL     1      44.162 -20.041   2.224  1.00  0.00    -0.203 F 
HETATM   36  C   UNL     1      43.303 -17.845   2.195  1.00  0.00     0.048 A 
HETATM   37  C   UNL     1      42.997 -16.654   2.868  1.00  0.00     0.036 A 
ENDBRANCH  26  29
ENDBRANCH  24  25
ENDBRANCH   1  24
TORSDOF 8
ENDMDL
MODEL 7
REMARK VINA RESULT:      -7.5      2.834      4.216
REMARK  8 active torsions:
REMARK  status: ('A' for Active; 'I' for Inactive)
REMARK    1  A    between atoms: C_2  and  C_3 
REMARK    2  A    between atoms: C_3  and  N_4 
REMARK    3  A    between atoms: N_4  and  C_6 
REMARK    4  A    between atoms: N_4  and  C_23 
REMARK    5  A    between atoms: C_6  and  C_7 
REMARK       I    between atoms: C_7  and  N_8 
REMARK    6  A    between atoms: N_8  and  C_9 
REMARK    7  A    between atoms: C_23  and  C_24 
REMARK       I    between atoms: C_24  and  N_25 
REMARK    8  A    between atoms: N_25  and  C_26 
ROOT
HETATM    1  N   UNL     1      41.481 -14.002   3.884  1.00  0.00    -0.055 N 
HETATM    2  H   UNL     1      41.381 -15.019   4.036  1.00  0.00     0.281 HD
ENDROOT
BRANCH   1   3
HETATM    3  C   UNL     1      41.655 -13.362   5.244  1.00  0.00     0.235 C 
BRANCH   3   4
HETATM    4  C   UNL     1      43.101 -12.967   5.543  1.00  0.00     0.023 C 
HETATM    5  C   UNL     1      43.571 -13.351   6.937  1.00  0.00     0.007 C 
ENDBRANCH   3   4
ENDBRANCH   1   3
BRANCH   1   6
HETATM    6  C   UNL     1      40.235 -13.516   3.112  1.00  0.00     0.338 C 
BRANCH   6   7
HETATM    7  C   UNL     1      39.794 -14.497   2.010  1.00  0.00     0.249 C 
HETATM    8  N   UNL     1      39.797 -14.182   0.693  1.00  0.00    -0.304 N 
HETATM    9  H   UNL     1      39.578 -14.933   0.047  1.00  0.00     0.171 HD
HETATM   10  O   UNL     1      39.494 -15.658   2.323  1.00  0.00    -0.271 OA
BRANCH   8  11
HETATM   11  C   UNL     1      39.971 -12.948   0.150  1.00  0.00     0.174 A 
HETATM   12  S   UNL     1      38.555 -12.014   0.089  1.00  0.00    -0.050 SA
HETATM   13  C   UNL     1      39.449 -10.730  -0.631  1.00  0.00     0.040 A 
HETATM   14  C   UNL     1      40.789 -11.119  -0.743  1.00  0.00     0.079 A 
HETATM   15  C   UNL     1      38.995  -9.473  -1.056  1.00  0.00     0.061 A 
HETATM   16  N   UNL     1      41.069 -12.415  -0.313  1.00  0.00    -0.223 NA
HETATM   17  C   UNL     1      41.720 -10.196  -1.263  1.00  0.00     0.072 A 
HETATM   18  C   UNL     1      41.283  -8.927  -1.655  1.00  0.00     0.104 A 
HETATM   19  C   UNL     1      39.933  -8.585  -1.583  1.00  0.00     0.103 A 
HETATM   20  O   UNL     1      42.249  -8.065  -2.108  1.00  0.00    -0.346 OA
HETATM   21  O   UNL     1      39.442  -7.372  -1.998  1.00  0.00    -0.346 OA
HETATM   22  C   UNL     1      40.399  -6.651  -2.783  1.00  0.00     0.202 C 
HETATM   23  C   UNL     1      41.772  -6.712  -2.136  1.00  0.00     0.202 C 
ENDBRANCH   8  11
ENDBRANCH   6   7
ENDBRANCH   1   6
BRANCH   1  24
HETATM   24  C   UNL     1      42.769 -13.886   3.045  1.00  0.00     0.338 C 
BRANCH  24  25
HETATM   25  C   UNL     1      43.256 -15.259   2.571  1.00  0.00     0.248 C 
HETATM   26  N   UNL     1      42.985 -16.278   3.459  1.00  0.00    -0.323 N 
HETATM   27  H   UNL     1      42.506 -16.057   4.332  1.00  0.00     0.169 HD
HETATM   28  O   UNL     1      43.779 -15.354   1.463  1.00  0.00    -0.271 OA
BRANCH  26  29
HETATM   29  C   UNL     1      43.244 -17.659   3.299  1.00  0.00     0.077 A 
HETATM   30  C   UNL     1      43.901 -18.301   4.361  1.00  0.00     0.184 A 
HETATM   31  F   UNL     1      44.230 -17.578   5.445  1.00  0.00    -0.200 F 
HETATM   32  C   UNL     1      44.195 -19.656   4.317  1.00  0.00     0.195 A 
HETATM   33  F   UNL     1      44.808 -20.245   5.352  1.00  0.00    -0.199 F 
HETATM   34  C   UNL     1      43.841 -20.391   3.198  1.00  0.00     0.158 A 
HETATM   35  F   UNL     1      44.116 -21.700   3.134  1.00  0.00    -0.203 F 
HETATM   36  C   UNL     1      43.195 -19.777   2.126  1.00  0.00     0.048 A 
HETATM   37  C   UNL     1      42.893 -18.409   2.175  1.00  0.00     0.036 A 
ENDBRANCH  26  29
ENDBRANCH  24  25
ENDBRANCH   1  24
TORSDOF 8
ENDMDL
MODEL 8
REMARK VINA RESULT:      -7.5      2.646      3.938
REMARK  8 active torsions:
REMARK  status: ('A' for Active; 'I' for Inactive)
REMARK    1  A    between atoms: C_2  and  C_3 
REMARK    2  A    between atoms: C_3  and  N_4 
REMARK    3  A    between atoms: N_4  and  C_6 
REMARK    4  A    between atoms: N_4  and  C_23 
REMARK    5  A    between atoms: C_6  and  C_7 
REMARK       I    between atoms: C_7  and  N_8 
REMARK    6  A    between atoms: N_8  and  C_9 
REMARK    7  A    between atoms: C_23  and  C_24 
REMARK       I    between atoms: C_24  and  N_25 
REMARK    8  A    between atoms: N_25  and  C_26 
ROOT
HETATM    1  N   UNL     1      42.816 -10.956   7.317  1.00  0.00    -0.055 N 
HETATM    2  H   UNL     1      42.251 -11.747   7.667  1.00  0.00     0.281 HD
ENDROOT
BRANCH   1   3
HETATM    3  C   UNL     1      43.933 -10.732   8.311  1.00  0.00     0.235 C 
BRANCH   3   4
HETATM    4  C   UNL     1      45.290 -10.492   7.650  1.00  0.00     0.023 C 
HETATM    5  C   UNL     1      46.069  -9.329   8.241  1.00  0.00     0.007 C 
ENDBRANCH   3   4
ENDBRANCH   1   3
BRANCH   1   6
HETATM    6  C   UNL     1      41.876  -9.745   7.140  1.00  0.00     0.338 C 
BRANCH   6   7
HETATM    7  C   UNL     1      40.484  -9.972   7.760  1.00  0.00     0.249 C 
HETATM    8  N   UNL     1      39.527 -10.732   7.175  1.00  0.00    -0.304 N 
HETATM    9  H   UNL     1      38.683 -10.892   7.713  1.00  0.00     0.171 HD
HETATM   10  O   UNL     1      40.242  -9.509   8.883  1.00  0.00    -0.271 OA
BRANCH   8  11
HETATM   11  C   UNL     1      39.539 -11.225   5.907  1.00  0.00     0.174 A 
HETATM   12  S   UNL     1      39.386 -10.038   4.703  1.00  0.00    -0.050 SA
HETATM   13  C   UNL     1      39.478 -11.266   3.500  1.00  0.00     0.040 A 
HETATM   14  C   UNL     1      39.650 -12.505   4.130  1.00  0.00     0.079 A 
HETATM   15  C   UNL     1      39.411 -11.138   2.104  1.00  0.00     0.061 A 
HETATM   16  N   UNL     1      39.654 -12.466   5.523  1.00  0.00    -0.223 NA
HETATM   17  C   UNL     1      39.802 -13.655   3.329  1.00  0.00     0.072 A 
HETATM   18  C   UNL     1      39.773 -13.531   1.937  1.00  0.00     0.104 A 
HETATM   19  C   UNL     1      39.547 -12.294   1.336  1.00  0.00     0.103 A 
HETATM   20  O   UNL     1      39.974 -14.684   1.220  1.00  0.00    -0.346 OA
HETATM   21  O   UNL     1      39.462 -12.122  -0.024  1.00  0.00    -0.346 OA
HETATM   22  C   UNL     1      39.316 -13.371  -0.709  1.00  0.00     0.202 C 
HETATM   23  C   UNL     1      40.284 -14.400  -0.152  1.00  0.00     0.202 C 
ENDBRANCH   8  11
ENDBRANCH   6   7
ENDBRANCH   1   6
BRANCH   1  24
HETATM   24  C   UNL     1      43.364 -11.470   5.970  1.00  0.00     0.338 C 
BRANCH  24  25
HETATM   25  C   UNL     1      43.171 -12.984   5.827  1.00  0.00     0.248 C 
HETATM   26  N   UNL     1      43.191 -13.422   4.520  1.00  0.00    -0.323 N 
HETATM   27  H   UNL     1      43.322 -12.741   3.774  1.00  0.00     0.169 HD
HETATM   28  O   UNL     1      43.069 -13.668   6.843  1.00  0.00    -0.271 OA
BRANCH  26  29
HETATM   29  C   UNL     1      43.102 -14.754   4.052  1.00  0.00     0.077 A 
HETATM   30  C   UNL     1      43.172 -14.934   2.662  1.00  0.00     0.184 A 
HETATM   31  F   UNL     1      43.323 -13.853   1.878  1.00  0.00    -0.200 F 
HETATM   32  C   UNL     1      43.109 -16.199   2.093  1.00  0.00     0.195 A 
HETATM   33  F   UNL     1      43.194 -16.342   0.763  1.00  0.00    -0.199 F 
HETATM   34  C   UNL     1      42.964 -17.305   2.912  1.00  0.00     0.158 A 
HETATM   35  F   UNL     1      42.899 -18.534   2.383  1.00  0.00    -0.203 F 
HETATM   36  C   UNL     1      42.884 -17.153   4.295  1.00  0.00     0.048 A 
HETATM   37  C   UNL     1      42.955 -15.876   4.869  1.00  0.00     0.036 A 
ENDBRANCH  26  29
ENDBRANCH  24  25
ENDBRANCH   1  24
TORSDOF 8
ENDMDL
MODEL 9
REMARK VINA RESULT:      -7.5      1.809      2.806
REMARK  8 active torsions:
REMARK  status: ('A' for Active; 'I' for Inactive)
REMARK    1  A    between atoms: C_2  and  C_3 
REMARK    2  A    between atoms: C_3  and  N_4 
REMARK    3  A    between atoms: N_4  and  C_6 
REMARK    4  A    between atoms: N_4  and  C_23 
REMARK    5  A    between atoms: C_6  and  C_7 
REMARK       I    between atoms: C_7  and  N_8 
REMARK    6  A    between atoms: N_8  and  C_9 
REMARK    7  A    between atoms: C_23  and  C_24 
REMARK       I    between atoms: C_24  and  N_25 
REMARK    8  A    between atoms: N_25  and  C_26 
ROOT
HETATM    1  N   UNL     1      41.705 -13.383   5.215  1.00  0.00    -0.055 N 
HETATM    2  H   UNL     1      40.786 -13.437   4.747  1.00  0.00     0.281 HD
ENDROOT
BRANCH   1   3
HETATM    3  C   UNL     1      41.632 -14.259   6.446  1.00  0.00     0.235 C 
BRANCH   3   4
HETATM    4  C   UNL     1      42.974 -14.407   7.161  1.00  0.00     0.023 C 
HETATM    5  C   UNL     1      43.200 -15.779   7.776  1.00  0.00     0.007 C 
ENDBRANCH   3   4
ENDBRANCH   1   3
BRANCH   1   6
HETATM    6  C   UNL     1      41.997 -11.897   5.514  1.00  0.00     0.338 C 
BRANCH   6   7
HETATM    7  C   UNL     1      40.725 -11.091   5.838  1.00  0.00     0.249 C 
HETATM    8  N   UNL     1      39.676 -10.987   4.987  1.00  0.00    -0.304 N 
HETATM    9  H   UNL     1      38.852 -10.513   5.339  1.00  0.00     0.171 HD
HETATM   10  O   UNL     1      40.609 -10.574   6.958  1.00  0.00    -0.271 OA
BRANCH   8  11
HETATM   11  C   UNL     1      39.644 -11.370   3.682  1.00  0.00     0.174 A 
HETATM   12  S   UNL     1      39.662 -10.076   2.583  1.00  0.00    -0.050 SA
HETATM   13  C   UNL     1      39.614 -11.201   1.280  1.00  0.00     0.040 A 
HETATM   14  C   UNL     1      39.616 -12.500   1.803  1.00  0.00     0.079 A 
HETATM   15  C   UNL     1      39.585 -10.948  -0.099  1.00  0.00     0.061 A 
HETATM   16  N   UNL     1      39.604 -12.579   3.194  1.00  0.00    -0.223 NA
HETATM   17  C   UNL     1      39.631 -13.589   0.908  1.00  0.00     0.072 A 
HETATM   18  C   UNL     1      39.639 -13.346  -0.469  1.00  0.00     0.104 A 
HETATM   19  C   UNL     1      39.583 -12.043  -0.963  1.00  0.00     0.103 A 
HETATM   20  O   UNL     1      39.701 -14.451  -1.281  1.00  0.00    -0.346 OA
HETATM   21  O   UNL     1      39.541 -11.748  -2.303  1.00  0.00    -0.346 OA
HETATM   22  C   UNL     1      39.246 -12.906  -3.094  1.00  0.00     0.202 C 
HETATM   23  C   UNL     1      40.066 -14.095  -2.622  1.00  0.00     0.202 C 
ENDBRANCH   8  11
ENDBRANCH   6   7
ENDBRANCH   1   6
BRANCH   1  24
HETATM   24  C   UNL     1      42.678 -13.970   4.172  1.00  0.00     0.338 C 
BRANCH  24  25
HETATM   25  C   UNL     1      42.444 -15.470   3.968  1.00  0.00     0.248 C 
HETATM   26  N   UNL     1      43.584 -16.232   4.111  1.00  0.00    -0.323 N 
HETATM   27  H   UNL     1      44.465 -15.765   4.328  1.00  0.00     0.169 HD
HETATM   28  O   UNL     1      41.301 -15.870   3.755  1.00  0.00    -0.271 OA
BRANCH  26  29
HETATM   29  C   UNL     1      43.699 -17.640   4.048  1.00  0.00     0.077 A 
HETATM   30  C   UNL     1      43.539 -18.225   2.782  1.00  0.00     0.184 A 
HETATM   31  F   UNL     1      43.297 -17.426   1.729  1.00  0.00    -0.200 F 
HETATM   32  C   UNL     1      43.643 -19.597   2.600  1.00  0.00     0.195 A 
HETATM   33  F   UNL     1      43.500 -20.125   1.378  1.00  0.00    -0.199 F 
HETATM   34  C   UNL     1      43.902 -20.408   3.692  1.00  0.00     0.158 A 
HETATM   35  F   UNL     1      44.006 -21.734   3.539  1.00  0.00    -0.203 F 
HETATM   36  C   UNL     1      44.058 -19.853   4.961  1.00  0.00     0.048 A 
HETATM   37  C   UNL     1      43.958 -18.467   5.142  1.00  0.00     0.036 A 
ENDBRANCH  26  29
ENDBRANCH  24  25
ENDBRANCH   1  24
TORSDOF 8
ENDMDL
MODEL 10
REMARK VINA RESULT:      -7.4      3.659      6.875
REMARK  8 active torsions:
REMARK  status: ('A' for Active; 'I' for Inactive)
REMARK    1  A    between atoms: C_2  and  C_3 
REMARK    2  A    between atoms: C_3  and  N_4 
REMARK    3  A    between atoms: N_4  and  C_6 
REMARK    4  A    between atoms: N_4  and  C_23 
REMARK    5  A    between atoms: C_6  and  C_7 
REMARK       I    between atoms: C_7  and  N_8 
REMARK    6  A    between atoms: N_8  and  C_9 
REMARK    7  A    between atoms: C_23  and  C_24 
REMARK       I    between atoms: C_24  and  N_25 
REMARK    8  A    between atoms: N_25  and  C_26 
ROOT
HETATM    1  N   UNL     1      42.839 -16.645   2.975  1.00  0.00    -0.055 N 
HETATM    2  H   UNL     1      41.953 -16.169   3.208  1.00  0.00     0.281 HD
ENDROOT
BRANCH   1   3
HETATM    3  C   UNL     1      42.485 -18.022   2.459  1.00  0.00     0.235 C 
BRANCH   3   4
HETATM    4  C   UNL     1      43.652 -19.006   2.519  1.00  0.00     0.023 C 
HETATM    5  C   UNL     1      43.374 -20.338   1.842  1.00  0.00     0.007 C 
ENDBRANCH   3   4
ENDBRANCH   1   3
BRANCH   1   6
HETATM    6  C   UNL     1      43.718 -16.653   4.245  1.00  0.00     0.338 C 
BRANCH   6   7
HETATM    7  C   UNL     1      42.967 -17.166   5.488  1.00  0.00     0.249 C 
HETATM    8  N   UNL     1      41.899 -16.529   6.025  1.00  0.00    -0.304 N 
HETATM    9  H   UNL     1      41.423 -17.003   6.784  1.00  0.00     0.171 HD
HETATM   10  O   UNL     1      43.297 -18.253   5.984  1.00  0.00    -0.271 OA
BRANCH   8  11
HETATM   11  C   UNL     1      41.454 -15.281   5.717  1.00  0.00     0.174 A 
HETATM   12  S   UNL     1      42.251 -14.038   6.553  1.00  0.00    -0.050 SA
HETATM   13  C   UNL     1      41.272 -12.880   5.737  1.00  0.00     0.040 A 
HETATM   14  C   UNL     1      40.418 -13.552   4.854  1.00  0.00     0.079 A 
HETATM   15  C   UNL     1      41.268 -11.483   5.867  1.00  0.00     0.061 A 
HETATM   16  N   UNL     1      40.517 -14.941   4.875  1.00  0.00    -0.223 NA
HETATM   17  C   UNL     1      39.556 -12.792   4.038  1.00  0.00     0.072 A 
HETATM   18  C   UNL     1      39.572 -11.397   4.134  1.00  0.00     0.104 A 
HETATM   19  C   UNL     1      40.393 -10.756   5.060  1.00  0.00     0.103 A 
HETATM   20  O   UNL     1      38.740 -10.719   3.277  1.00  0.00    -0.346 OA
HETATM   21  O   UNL     1      40.415  -9.394   5.230  1.00  0.00    -0.346 OA
HETATM   22  C   UNL     1      39.300  -8.760   4.593  1.00  0.00     0.202 C 
HETATM   23  C   UNL     1      39.090  -9.330   3.200  1.00  0.00     0.202 C 
ENDBRANCH   8  11
ENDBRANCH   6   7
ENDBRANCH   1   6
BRANCH   1  24
HETATM   24  C   UNL     1      43.439 -15.768   1.857  1.00  0.00     0.338 C 
BRANCH  24  25
HETATM   25  C   UNL     1      42.667 -14.454   1.700  1.00  0.00     0.248 C 
HETATM   26  N   UNL     1      41.784 -14.455   0.642  1.00  0.00    -0.323 N 
HETATM   27  H   UNL     1      41.712 -15.289   0.060  1.00  0.00     0.169 HD
HETATM   28  O   UNL     1      42.846 -13.559   2.523  1.00  0.00    -0.271 OA
BRANCH  26  29
HETATM   29  C   UNL     1      40.885 -13.430   0.263  1.00  0.00     0.077 A 
HETATM   30  C   UNL     1      39.752 -13.829  -0.465  1.00  0.00     0.184 A 
HETATM   31  F   UNL     1      39.593 -15.133  -0.746  1.00  0.00    -0.200 F 
HETATM   32  C   UNL     1      38.797 -12.910  -0.878  1.00  0.00     0.195 A 
HETATM   33  F   UNL     1      37.719 -13.322  -1.558  1.00  0.00    -0.199 F 
HETATM   34  C   UNL     1      38.969 -11.571  -0.573  1.00  0.00     0.158 A 
HETATM   35  F   UNL     1      38.060 -10.668  -0.961  1.00  0.00    -0.203 F 
HETATM   36  C   UNL     1      40.087 -11.147   0.143  1.00  0.00     0.048 A 
HETATM   37  C   UNL     1      41.048 -12.077   0.564  1.00  0.00     0.036 A 
ENDBRANCH  26  29
ENDBRANCH  24  25
ENDBRANCH   1  24
TORSDOF 8
ENDMDL
