MODEL 1
REMARK VINA RESULT:      -7.7      0.000      0.000
REMARK  5 active torsions:
REMARK  status: ('A' for Active; 'I' for Inactive)
REMARK    1  A    between atoms: C_2  and  O_3 
REMARK    2  A    between atoms: O_3  and  C_4 
REMARK    3  A    between atoms: C_8  and  N_9 
REMARK       I    between atoms: N_9  and  C_10 
REMARK       I    between atoms: C_10  and  N_11 
REMARK    4  A    between atoms: N_11  and  C_12 
REMARK    5  A    between atoms: C_12  and  C_13 
ROOT
HETATM    1  N   UNL     1      40.236 -15.399   3.940  1.00  0.00    -0.309 N 
HETATM    2  C   UNL     1      41.291 -15.872   4.652  1.00  0.00     0.321 C 
HETATM    3  N   UNL     1      42.479 -16.034   4.028  1.00  0.00    -0.337 N 
HETATM    4  O   UNL     1      41.121 -16.168   5.834  1.00  0.00    -0.247 OA
HETATM    5  H   UNL     1      39.390 -15.475   4.493  1.00  0.00     0.170 HD
HETATM    6  H   UNL     1      42.460 -16.249   3.042  1.00  0.00     0.164 HD
ENDROOT
BRANCH   1   7
HETATM    7  C   UNL     1      40.095 -14.816   2.668  1.00  0.00     0.038 A 
HETATM    8  C   UNL     1      39.963 -13.452   2.416  1.00  0.00     0.056 A 
HETATM    9  C   UNL     1      39.841 -12.987   1.098  1.00  0.00     0.069 A 
HETATM   10  C   UNL     1      39.825 -13.874   0.009  1.00  0.00     0.090 A 
HETATM   11 CL   UNL     1      39.706 -11.276   0.856  1.00  0.00    -0.081 Cl
HETATM   12  C   UNL     1      39.914 -15.241   0.270  1.00  0.00     0.041 A 
HETATM   13  C   UNL     1      40.044 -15.703   1.585  1.00  0.00     0.032 A 
BRANCH  10  14
HETATM   14  O   UNL     1      39.712 -13.330  -1.243  1.00  0.00    -0.350 OA
BRANCH  14  15
HETATM   15  C   UNL     1      38.472 -13.489  -1.927  1.00  0.00     0.171 C 
HETATM   16  C   UNL     1      38.694 -14.433  -3.096  1.00  0.00     0.034 C 
ENDBRANCH  14  15
ENDBRANCH  10  14
ENDBRANCH   1   7
BRANCH   3  17
HETATM   17  C   UNL     1      43.599 -16.614   4.738  1.00  0.00     0.183 C 
BRANCH  17  18
HETATM   18  C   UNL     1      43.727 -18.104   4.501  1.00  0.00     0.053 A 
HETATM   19  N   UNL     1      43.945 -18.913   5.574  1.00  0.00    -0.264 NA
HETATM   20  C   UNL     1      44.047 -20.242   5.347  1.00  0.00     0.118 A 
HETATM   21  C   UNL     1      43.967 -20.813   4.093  1.00  0.00     0.043 A 
HETATM   22  C   UNL     1      43.771 -19.965   3.012  1.00  0.00     0.037 A 
HETATM   23 CL   UNL     1      43.678 -20.615   1.421  1.00  0.00    -0.084 Cl
HETATM   24  C   UNL     1      43.648 -18.596   3.203  1.00  0.00     0.052 A 
ENDBRANCH  17  18
ENDBRANCH   3  17
TORSDOF 5
ENDMDL
MODEL 2
REMARK VINA RESULT:      -7.5      4.654      7.975
REMARK  5 active torsions:
REMARK  status: ('A' for Active; 'I' for Inactive)
REMARK    1  A    between atoms: C_2  and  O_3 
REMARK    2  A    between atoms: O_3  and  C_4 
REMARK    3  A    between atoms: C_8  and  N_9 
REMARK       I    between atoms: N_9  and  C_10 
REMARK       I    between atoms: C_10  and  N_11 
REMARK    4  A    between atoms: N_11  and  C_12 
REMARK    5  A    between atoms: C_12  and  C_13 
ROOT
HETATM    1  N   UNL     1      40.810 -15.014   6.027  1.00  0.00    -0.309 N 
HETATM    2  C   UNL     1      40.882 -13.672   6.216  1.00  0.00     0.321 C 
HETATM    3  N   UNL     1      42.097 -13.079   6.223  1.00  0.00    -0.337 N 
HETATM    4  O   UNL     1      39.841 -13.044   6.406  1.00  0.00    -0.247 OA
HETATM    5  H   UNL     1      39.862 -15.331   6.197  1.00  0.00     0.170 HD
HETATM    6  H   UNL     1      42.880 -13.629   6.545  1.00  0.00     0.164 HD
ENDROOT
BRANCH   1   7
HETATM    7  C   UNL     1      41.729 -15.998   5.624  1.00  0.00     0.038 A 
HETATM    8  C   UNL     1      42.016 -16.342   4.305  1.00  0.00     0.056 A 
HETATM    9  C   UNL     1      42.967 -17.336   4.025  1.00  0.00     0.069 A 
HETATM   10  C   UNL     1      43.631 -18.020   5.055  1.00  0.00     0.090 A 
HETATM   11 CL   UNL     1      43.292 -17.695   2.361  1.00  0.00    -0.081 Cl
HETATM   12  C   UNL     1      43.309 -17.703   6.374  1.00  0.00     0.041 A 
HETATM   13  C   UNL     1      42.367 -16.705   6.652  1.00  0.00     0.032 A 
BRANCH  10  14
HETATM   14  O   UNL     1      44.550 -18.968   4.689  1.00  0.00    -0.350 OA
BRANCH  14  15
HETATM   15  C   UNL     1      44.277 -20.326   5.028  1.00  0.00     0.171 C 
HETATM   16  C   UNL     1      43.842 -21.050   3.767  1.00  0.00     0.034 C 
ENDBRANCH  14  15
ENDBRANCH  10  14
ENDBRANCH   1   7
BRANCH   3  17
HETATM   17  C   UNL     1      42.213 -11.664   6.505  1.00  0.00     0.183 C 
BRANCH  17  18
HETATM   18  C   UNL     1      43.608 -11.271   6.940  1.00  0.00     0.053 A 
HETATM   19  N   UNL     1      44.642 -11.505   6.086  1.00  0.00    -0.264 NA
HETATM   20  C   UNL     1      45.881 -11.140   6.485  1.00  0.00     0.118 A 
HETATM   21  C   UNL     1      46.153 -10.569   7.712  1.00  0.00     0.043 A 
HETATM   22  C   UNL     1      45.087 -10.365   8.576  1.00  0.00     0.037 A 
HETATM   23 CL   UNL     1      45.363  -9.671  10.126  1.00  0.00    -0.084 Cl
HETATM   24  C   UNL     1      43.797 -10.714   8.200  1.00  0.00     0.052 A 
ENDBRANCH  17  18
ENDBRANCH   3  17
TORSDOF 5
ENDMDL
MODEL 3
REMARK VINA RESULT:      -7.5      4.589      7.280
REMARK  5 active torsions:
REMARK  status: ('A' for Active; 'I' for Inactive)
REMARK    1  A    between atoms: C_2  and  O_3 
REMARK    2  A    between atoms: O_3  and  C_4 
REMARK    3  A    between atoms: C_8  and  N_9 
REMARK       I    between atoms: N_9  and  C_10 
REMARK       I    between atoms: C_10  and  N_11 
REMARK    4  A    between atoms: N_11  and  C_12 
REMARK    5  A    between atoms: C_12  and  C_13 
ROOT
HETATM    1  N   UNL     1      40.339 -14.643   5.439  1.00  0.00    -0.309 N 
HETATM    2  C   UNL     1      40.499 -13.361   5.854  1.00  0.00     0.321 C 
HETATM    3  N   UNL     1      41.718 -12.787   5.745  1.00  0.00    -0.337 N 
HETATM    4  O   UNL     1      39.536 -12.774   6.344  1.00  0.00    -0.247 OA
HETATM    5  H   UNL     1      39.425 -14.981   5.719  1.00  0.00     0.170 HD
HETATM    6  H   UNL     1      42.524 -13.393   5.811  1.00  0.00     0.164 HD
ENDROOT
BRANCH   1   7
HETATM    7  C   UNL     1      41.131 -15.540   4.700  1.00  0.00     0.038 A 
HETATM    8  C   UNL     1      42.251 -16.214   5.182  1.00  0.00     0.056 A 
HETATM    9  C   UNL     1      42.956 -17.097   4.350  1.00  0.00     0.069 A 
HETATM   10  C   UNL     1      42.570 -17.308   3.016  1.00  0.00     0.090 A 
HETATM   11 CL   UNL     1      44.325 -17.920   5.023  1.00  0.00    -0.081 Cl
HETATM   12  C   UNL     1      41.475 -16.598   2.526  1.00  0.00     0.041 A 
HETATM   13  C   UNL     1      40.767 -15.724   3.359  1.00  0.00     0.032 A 
BRANCH  10  14
HETATM   14  O   UNL     1      43.311 -18.195   2.281  1.00  0.00    -0.350 OA
BRANCH  14  15
HETATM   15  C   UNL     1      42.781 -19.504   2.088  1.00  0.00     0.171 C 
HETATM   16  C   UNL     1      43.943 -20.481   2.028  1.00  0.00     0.034 C 
ENDBRANCH  14  15
ENDBRANCH  10  14
ENDBRANCH   1   7
BRANCH   3  17
HETATM   17  C   UNL     1      41.940 -11.452   6.256  1.00  0.00     0.183 C 
BRANCH  17  18
HETATM   18  C   UNL     1      43.380 -11.216   6.660  1.00  0.00     0.053 A 
HETATM   19  N   UNL     1      44.362 -11.540   5.774  1.00  0.00    -0.264 NA
HETATM   20  C   UNL     1      45.642 -11.315   6.147  1.00  0.00     0.118 A 
HETATM   21  C   UNL     1      46.004 -10.802   7.376  1.00  0.00     0.043 A 
HETATM   22  C   UNL     1      44.986 -10.504   8.272  1.00  0.00     0.037 A 
HETATM   23 CL   UNL     1      45.373  -9.875   9.826  1.00  0.00    -0.084 Cl
HETATM   24  C   UNL     1      43.658 -10.708   7.924  1.00  0.00     0.052 A 
ENDBRANCH  17  18
ENDBRANCH   3  17
TORSDOF 5
ENDMDL
MODEL 4
REMARK VINA RESULT:      -7.4      2.908      7.503
REMARK  5 active torsions:
REMARK  status: ('A' for Active; 'I' for Inactive)
REMARK    1  A    between atoms: C_2  and  O_3 
REMARK    2  A    between atoms: O_3  and  C_4 
REMARK    3  A    between atoms: C_8  and  N_9 
REMARK       I    between atoms: N_9  and  C_10 
REMARK       I    between atoms: C_10  and  N_11 
REMARK    4  A    between atoms: N_11  and  C_12 
REMARK    5  A    between atoms: C_12  and  C_13 
ROOT
HETATM    1  N   UNL     1      40.356 -14.882   3.518  1.00  0.00    -0.309 N 
HETATM    2  C   UNL     1      40.075 -13.837   2.700  1.00  0.00     0.321 C 
HETATM    3  N   UNL     1      41.029 -13.402   1.845  1.00  0.00    -0.337 N 
HETATM    4  O   UNL     1      38.972 -13.299   2.785  1.00  0.00    -0.247 OA
HETATM    5  H   UNL     1      39.611 -14.994   4.196  1.00  0.00     0.170 HD
HETATM    6  H   UNL     1      41.991 -13.516   2.128  1.00  0.00     0.164 HD
ENDROOT
BRANCH   1   7
HETATM    7  C   UNL     1      41.401 -15.821   3.586  1.00  0.00     0.038 A 
HETATM    8  C   UNL     1      42.359 -15.890   4.595  1.00  0.00     0.056 A 
HETATM    9  C   UNL     1      43.350 -16.883   4.561  1.00  0.00     0.069 A 
HETATM   10  C   UNL     1      43.417 -17.811   3.508  1.00  0.00     0.090 A 
HETATM   11 CL   UNL     1      44.494 -16.926   5.861  1.00  0.00    -0.081 Cl
HETATM   12  C   UNL     1      42.482 -17.710   2.478  1.00  0.00     0.041 A 
HETATM   13  C   UNL     1      41.489 -16.724   2.518  1.00  0.00     0.032 A 
BRANCH  10  14
HETATM   14  O   UNL     1      44.412 -18.751   3.562  1.00  0.00    -0.350 OA
BRANCH  14  15
HETATM   15  C   UNL     1      44.029 -20.118   3.689  1.00  0.00     0.171 C 
HETATM   16  C   UNL     1      44.207 -20.527   5.141  1.00  0.00     0.034 C 
ENDBRANCH  14  15
ENDBRANCH  10  14
ENDBRANCH   1   7
BRANCH   3  17
HETATM   17  C   UNL     1      40.788 -12.238   1.021  1.00  0.00     0.183 C 
BRANCH  17  18
HETATM   18  C   UNL     1      40.648 -12.584  -0.447  1.00  0.00     0.053 A 
HETATM   19  N   UNL     1      41.274 -11.794  -1.361  1.00  0.00    -0.264 NA
HETATM   20  C   UNL     1      41.147 -12.123  -2.666  1.00  0.00     0.118 A 
HETATM   21  C   UNL     1      40.402 -13.194  -3.118  1.00  0.00     0.043 A 
HETATM   22  C   UNL     1      39.752 -13.969  -2.168  1.00  0.00     0.037 A 
HETATM   23 CL   UNL     1      38.796 -15.310  -2.669  1.00  0.00    -0.084 Cl
HETATM   24  C   UNL     1      39.867 -13.674  -0.816  1.00  0.00     0.052 A 
ENDBRANCH  17  18
ENDBRANCH   3  17
TORSDOF 5
ENDMDL
MODEL 5
REMARK VINA RESULT:      -7.1      1.996      2.449
REMARK  5 active torsions:
REMARK  status: ('A' for Active; 'I' for Inactive)
REMARK    1  A    between atoms: C_2  and  O_3 
REMARK    2  A    between atoms: O_3  and  C_4 
REMARK    3  A    between atoms: C_8  and  N_9 
REMARK       I    between atoms: N_9  and  C_10 
REMARK       I    between atoms: C_10  and  N_11 
REMARK    4  A    between atoms: N_11  and  C_12 
REMARK    5  A    between atoms: C_12  and  C_13 
ROOT
HETATM    1  N   UNL     1      39.942 -15.401   2.801  1.00  0.00    -0.309 N 
HETATM    2  C   UNL     1      41.008 -15.874   3.496  1.00  0.00     0.321 C 
HETATM    3  N   UNL     1      42.238 -15.791   2.941  1.00  0.00    -0.337 N 
HETATM    4  O   UNL     1      40.815 -16.392   4.595  1.00  0.00    -0.247 OA
HETATM    5  H   UNL     1      39.084 -15.667   3.271  1.00  0.00     0.170 HD
HETATM    6  H   UNL     1      42.295 -15.829   1.934  1.00  0.00     0.164 HD
ENDROOT
BRANCH   1   7
HETATM    7  C   UNL     1      39.797 -14.621   1.641  1.00  0.00     0.038 A 
HETATM    8  C   UNL     1      39.741 -15.115   0.339  1.00  0.00     0.056 A 
HETATM    9  C   UNL     1      39.581 -14.235  -0.743  1.00  0.00     0.069 A 
HETATM   10  C   UNL     1      39.497 -12.847  -0.549  1.00  0.00     0.090 A 
HETATM   11 CL   UNL     1      39.493 -14.921  -2.333  1.00  0.00    -0.081 Cl
HETATM   12  C   UNL     1      39.598 -12.355   0.752  1.00  0.00     0.041 A 
HETATM   13  C   UNL     1      39.749 -13.234   1.831  1.00  0.00     0.032 A 
BRANCH  10  14
HETATM   14  O   UNL     1      39.332 -12.066  -1.662  1.00  0.00    -0.350 OA
BRANCH  14  15
HETATM   15  C   UNL     1      40.402 -11.200  -2.031  1.00  0.00     0.171 C 
HETATM   16  C   UNL     1      41.221 -11.891  -3.107  1.00  0.00     0.034 C 
ENDBRANCH  14  15
ENDBRANCH  10  14
ENDBRANCH   1   7
BRANCH   3  17
HETATM   17  C   UNL     1      43.381 -16.362   3.620  1.00  0.00     0.183 C 
BRANCH  17  18
HETATM   18  C   UNL     1      43.498 -17.856   3.405  1.00  0.00     0.053 A 
HETATM   19  N   UNL     1      43.138 -18.366   2.195  1.00  0.00    -0.264 NA
HETATM   20  C   UNL     1      43.258 -19.700   2.016  1.00  0.00     0.118 A 
HETATM   21  C   UNL     1      43.697 -20.569   2.995  1.00  0.00     0.043 A 
HETATM   22  C   UNL     1      44.033 -20.028   4.229  1.00  0.00     0.037 A 
HETATM   23 CL   UNL     1      44.574 -21.061   5.495  1.00  0.00    -0.084 Cl
HETATM   24  C   UNL     1      43.937 -18.661   4.450  1.00  0.00     0.052 A 
ENDBRANCH  17  18
ENDBRANCH   3  17
TORSDOF 5
ENDMDL
MODEL 6
REMARK VINA RESULT:      -7.0      2.746      7.701
REMARK  5 active torsions:
REMARK  status: ('A' for Active; 'I' for Inactive)
REMARK    1  A    between atoms: C_2  and  O_3 
REMARK    2  A    between atoms: O_3  and  C_4 
REMARK    3  A    between atoms: C_8  and  N_9 
REMARK       I    between atoms: N_9  and  C_10 
REMARK       I    between atoms: C_10  and  N_11 
REMARK    4  A    between atoms: N_11  and  C_12 
REMARK    5  A    between atoms: C_12  and  C_13 
ROOT
HETATM    1  N   UNL     1      40.281 -14.526   3.593  1.00  0.00    -0.309 N 
HETATM    2  C   UNL     1      39.839 -13.600   2.705  1.00  0.00     0.321 C 
HETATM    3  N   UNL     1      40.566 -13.368   1.589  1.00  0.00    -0.337 N 
HETATM    4  O   UNL     1      38.808 -12.980   2.961  1.00  0.00    -0.247 OA
HETATM    5  H   UNL     1      39.723 -14.481   4.438  1.00  0.00     0.170 HD
HETATM    6  H   UNL     1      41.565 -13.504   1.649  1.00  0.00     0.164 HD
ENDROOT
BRANCH   1   7
HETATM    7  C   UNL     1      41.281 -15.514   3.563  1.00  0.00     0.038 A 
HETATM    8  C   UNL     1      42.311 -15.647   4.491  1.00  0.00     0.056 A 
HETATM    9  C   UNL     1      43.247 -16.686   4.363  1.00  0.00     0.069 A 
HETATM   10  C   UNL     1      43.185 -17.595   3.295  1.00  0.00     0.090 A 
HETATM   11 CL   UNL     1      44.488 -16.806   5.567  1.00  0.00    -0.081 Cl
HETATM   12  C   UNL     1      42.178 -17.431   2.345  1.00  0.00     0.041 A 
HETATM   13  C   UNL     1      41.240 -16.401   2.479  1.00  0.00     0.032 A 
BRANCH  10  14
HETATM   14  O   UNL     1      44.135 -18.583   3.255  1.00  0.00    -0.350 OA
BRANCH  14  15
HETATM   15  C   UNL     1      43.803 -19.798   2.588  1.00  0.00     0.171 C 
HETATM   16  C   UNL     1      43.882 -20.929   3.598  1.00  0.00     0.034 C 
ENDBRANCH  14  15
ENDBRANCH  10  14
ENDBRANCH   1   7
BRANCH   3  17
HETATM   17  C   UNL     1      40.166 -12.328   0.665  1.00  0.00     0.183 C 
BRANCH  17  18
HETATM   18  C   UNL     1      39.399 -12.870  -0.522  1.00  0.00     0.053 A 
HETATM   19  N   UNL     1      39.736 -14.097  -1.005  1.00  0.00    -0.264 NA
HETATM   20  C   UNL     1      39.035 -14.571  -2.059  1.00  0.00     0.118 A 
HETATM   21  C   UNL     1      38.022 -13.871  -2.683  1.00  0.00     0.043 A 
HETATM   22  C   UNL     1      37.714 -12.611  -2.189  1.00  0.00     0.037 A 
HETATM   23 CL   UNL     1      36.470 -11.682  -2.933  1.00  0.00    -0.084 Cl
HETATM   24  C   UNL     1      38.401 -12.093  -1.100  1.00  0.00     0.052 A 
ENDBRANCH  17  18
ENDBRANCH   3  17
TORSDOF 5
ENDMDL
MODEL 7
REMARK VINA RESULT:      -6.9      4.876      6.862
REMARK  5 active torsions:
REMARK  status: ('A' for Active; 'I' for Inactive)
REMARK    1  A    between atoms: C_2  and  O_3 
REMARK    2  A    between atoms: O_3  and  C_4 
REMARK    3  A    between atoms: C_8  and  N_9 
REMARK       I    between atoms: N_9  and  C_10 
REMARK       I    between atoms: C_10  and  N_11 
REMARK    4  A    between atoms: N_11  and  C_12 
REMARK    5  A    between atoms: C_12  and  C_13 
ROOT
HETATM    1  N   UNL     1      43.529 -12.092   3.864  1.00  0.00    -0.309 N 
HETATM    2  C   UNL     1      42.954 -13.167   3.267  1.00  0.00     0.321 C 
HETATM    3  N   UNL     1      42.472 -14.163   4.044  1.00  0.00    -0.337 N 
HETATM    4  O   UNL     1      42.918 -13.213   2.038  1.00  0.00    -0.247 OA
HETATM    5  H   UNL     1      43.972 -11.510   3.162  1.00  0.00     0.170 HD
HETATM    6  H   UNL     1      42.927 -14.322   4.931  1.00  0.00     0.164 HD
ENDROOT
BRANCH   1   7
HETATM    7  C   UNL     1      43.596 -11.625   5.188  1.00  0.00     0.038 A 
HETATM    8  C   UNL     1      42.625 -10.852   5.820  1.00  0.00     0.056 A 
HETATM    9  C   UNL     1      42.798 -10.454   7.156  1.00  0.00     0.069 A 
HETATM   10  C   UNL     1      43.952 -10.803   7.876  1.00  0.00     0.090 A 
HETATM   11 CL   UNL     1      41.539  -9.514   7.887  1.00  0.00    -0.081 Cl
HETATM   12  C   UNL     1      44.940 -11.540   7.225  1.00  0.00     0.041 A 
HETATM   13  C   UNL     1      44.762 -11.943   5.896  1.00  0.00     0.032 A 
BRANCH  10  14
HETATM   14  O   UNL     1      44.031 -10.380   9.177  1.00  0.00    -0.350 OA
BRANCH  14  15
HETATM   15  C   UNL     1      45.146  -9.572   9.547  1.00  0.00     0.171 C 
HETATM   16  C   UNL     1      45.022  -8.238   8.832  1.00  0.00     0.034 C 
ENDBRANCH  14  15
ENDBRANCH  10  14
ENDBRANCH   1   7
BRANCH   3  17
HETATM   17  C   UNL     1      41.929 -15.359   3.436  1.00  0.00     0.183 C 
BRANCH  17  18
HETATM   18  C   UNL     1      42.804 -16.574   3.663  1.00  0.00     0.053 A 
HETATM   19  N   UNL     1      43.629 -16.584   4.746  1.00  0.00    -0.264 NA
HETATM   20  C   UNL     1      44.396 -17.680   4.939  1.00  0.00     0.118 A 
HETATM   21  C   UNL     1      44.405 -18.769   4.091  1.00  0.00     0.043 A 
HETATM   22  C   UNL     1      43.575 -18.724   2.980  1.00  0.00     0.037 A 
HETATM   23 CL   UNL     1      43.552 -20.045   1.877  1.00  0.00    -0.084 Cl
HETATM   24  C   UNL     1      42.761 -17.623   2.751  1.00  0.00     0.052 A 
ENDBRANCH  17  18
ENDBRANCH   3  17
TORSDOF 5
ENDMDL
MODEL 8
REMARK VINA RESULT:      -6.7      7.941     10.148
REMARK  5 active torsions:
REMARK  status: ('A' for Active; 'I' for Inactive)
REMARK    1  A    between atoms: C_2  and  O_3 
REMARK    2  A    between atoms: O_3  and  C_4 
REMARK    3  A    between atoms: C_8  and  N_9 
REMARK       I    between atoms: N_9  and  C_10 
REMARK       I    between atoms: C_10  and  N_11 
REMARK    4  A    between atoms: N_11  and  C_12 
REMARK    5  A    between atoms: C_12  and  C_13 
ROOT
HETATM    1  N   UNL     1      45.270 -10.393   8.841  1.00  0.00    -0.309 N 
HETATM    2  C   UNL     1      45.067 -11.047   7.669  1.00  0.00     0.321 C 
HETATM    3  N   UNL     1      43.818 -11.467   7.365  1.00  0.00    -0.337 N 
HETATM    4  O   UNL     1      46.032 -11.263   6.938  1.00  0.00    -0.247 OA
HETATM    5  H   UNL     1      46.265 -10.277   8.998  1.00  0.00     0.170 HD
HETATM    6  H   UNL     1      43.209 -11.706   8.134  1.00  0.00     0.164 HD
ENDROOT
BRANCH   1   7
HETATM    7  C   UNL     1      44.420  -9.835   9.812  1.00  0.00     0.038 A 
HETATM    8  C   UNL     1      43.949  -8.524   9.814  1.00  0.00     0.056 A 
HETATM    9  C   UNL     1      43.092  -8.083  10.835  1.00  0.00     0.069 A 
HETATM   10  C   UNL     1      42.708  -8.936  11.883  1.00  0.00     0.090 A 
HETATM   11 CL   UNL     1      42.524  -6.448  10.762  1.00  0.00    -0.081 Cl
HETATM   12  C   UNL     1      43.217 -10.234  11.900  1.00  0.00     0.041 A 
HETATM   13  C   UNL     1      44.065 -10.674  10.877  1.00  0.00     0.032 A 
BRANCH  10  14
HETATM   14  O   UNL     1      41.861  -8.424  12.831  1.00  0.00    -0.350 OA
BRANCH  14  15
HETATM   15  C   UNL     1      42.315  -8.394  14.182  1.00  0.00     0.171 C 
HETATM   16  C   UNL     1      43.078  -7.099  14.397  1.00  0.00     0.034 C 
ENDBRANCH  14  15
ENDBRANCH  10  14
ENDBRANCH   1   7
BRANCH   3  17
HETATM   17  C   UNL     1      43.585 -12.240   6.164  1.00  0.00     0.183 C 
BRANCH  17  18
HETATM   18  C   UNL     1      43.038 -13.620   6.459  1.00  0.00     0.053 A 
HETATM   19  N   UNL     1      43.431 -14.241   7.605  1.00  0.00    -0.264 NA
HETATM   20  C   UNL     1      42.925 -15.468   7.858  1.00  0.00     0.118 A 
HETATM   21  C   UNL     1      42.059 -16.131   7.012  1.00  0.00     0.043 A 
HETATM   22  C   UNL     1      41.694 -15.489   5.837  1.00  0.00     0.037 A 
HETATM   23 CL   UNL     1      40.628 -16.268   4.733  1.00  0.00    -0.084 Cl
HETATM   24  C   UNL     1      42.180 -14.221   5.545  1.00  0.00     0.052 A 
ENDBRANCH  17  18
ENDBRANCH   3  17
TORSDOF 5
ENDMDL
MODEL 9
REMARK VINA RESULT:      -6.5     13.966     15.783
REMARK  5 active torsions:
REMARK  status: ('A' for Active; 'I' for Inactive)
REMARK    1  A    between atoms: C_2  and  O_3 
REMARK    2  A    between atoms: O_3  and  C_4 
REMARK    3  A    between atoms: C_8  and  N_9 
REMARK       I    between atoms: N_9  and  C_10 
REMARK       I    between atoms: C_10  and  N_11 
REMARK    4  A    between atoms: N_11  and  C_12 
REMARK    5  A    between atoms: C_12  and  C_13 
ROOT
HETATM    1  N   UNL     1      45.678 -28.220   0.054  1.00  0.00    -0.309 N 
HETATM    2  C   UNL     1      46.732 -28.451   0.877  1.00  0.00     0.321 C 
HETATM    3  N   UNL     1      47.463 -29.574   0.700  1.00  0.00    -0.337 N 
HETATM    4  O   UNL     1      46.968 -27.645   1.777  1.00  0.00    -0.247 OA
HETATM    5  H   UNL     1      45.143 -27.430   0.399  1.00  0.00     0.170 HD
HETATM    6  H   UNL     1      46.988 -30.383   0.328  1.00  0.00     0.164 HD
ENDROOT
BRANCH   1   7
HETATM    7  C   UNL     1      45.223 -28.799  -1.143  1.00  0.00     0.038 A 
HETATM    8  C   UNL     1      44.813 -30.123  -1.294  1.00  0.00     0.056 A 
HETATM    9  C   UNL     1      44.366 -30.586  -2.541  1.00  0.00     0.069 A 
HETATM   10  C   UNL     1      44.340 -29.744  -3.665  1.00  0.00     0.090 A 
HETATM   11 CL   UNL     1      43.848 -32.236  -2.650  1.00  0.00    -0.081 Cl
HETATM   12  C   UNL     1      44.793 -28.433  -3.519  1.00  0.00     0.041 A 
HETATM   13  C   UNL     1      45.230 -27.970  -2.272  1.00  0.00     0.032 A 
BRANCH  10  14
HETATM   14  O   UNL     1      43.880 -30.278  -4.839  1.00  0.00    -0.350 OA
BRANCH  14  15
HETATM   15  C   UNL     1      44.836 -30.837  -5.736  1.00  0.00     0.171 C 
HETATM   16  C   UNL     1      44.123 -31.185  -7.031  1.00  0.00     0.034 C 
ENDBRANCH  14  15
ENDBRANCH  10  14
ENDBRANCH   1   7
BRANCH   3  17
HETATM   17  C   UNL     1      48.541 -29.890   1.613  1.00  0.00     0.183 C 
BRANCH  17  18
HETATM   18  C   UNL     1      49.665 -30.650   0.943  1.00  0.00     0.053 A 
HETATM   19  N   UNL     1      50.213 -31.709   1.601  1.00  0.00    -0.264 NA
HETATM   20  C   UNL     1      51.209 -32.383   0.984  1.00  0.00     0.118 A 
HETATM   21  C   UNL     1      51.713 -32.042  -0.255  1.00  0.00     0.043 A 
HETATM   22  C   UNL     1      51.157 -30.943  -0.894  1.00  0.00     0.037 A 
HETATM   23 CL   UNL     1      51.751 -30.459  -2.435  1.00  0.00    -0.084 Cl
HETATM   24  C   UNL     1      50.123 -30.231  -0.301  1.00  0.00     0.052 A 
ENDBRANCH  17  18
ENDBRANCH   3  17
TORSDOF 5
ENDMDL
MODEL 10
REMARK VINA RESULT:      -6.5     14.049     16.972
REMARK  5 active torsions:
REMARK  status: ('A' for Active; 'I' for Inactive)
REMARK    1  A    between atoms: C_2  and  O_3 
REMARK    2  A    between atoms: O_3  and  C_4 
REMARK    3  A    between atoms: C_8  and  N_9 
REMARK       I    between atoms: N_9  and  C_10 
REMARK       I    between atoms: C_10  and  N_11 
REMARK    4  A    between atoms: N_11  and  C_12 
REMARK    5  A    between atoms: C_12  and  C_13 
ROOT
HETATM    1  N   UNL     1      46.507 -27.819  -2.712  1.00  0.00    -0.309 N 
HETATM    2  C   UNL     1      45.460 -28.176  -3.499  1.00  0.00     0.321 C 
HETATM    3  N   UNL     1      44.943 -29.418  -3.371  1.00  0.00    -0.337 N 
HETATM    4  O   UNL     1      45.038 -27.368  -4.324  1.00  0.00    -0.247 OA
HETATM    5  H   UNL     1      46.878 -26.928  -3.023  1.00  0.00     0.170 HD
HETATM    6  H   UNL     1      45.571 -30.155  -3.083  1.00  0.00     0.164 HD
ENDROOT
BRANCH   1   7
HETATM    7  C   UNL     1      47.124 -28.387  -1.585  1.00  0.00     0.038 A 
HETATM    8  C   UNL     1      46.715 -28.207  -0.265  1.00  0.00     0.056 A 
HETATM    9  C   UNL     1      47.407 -28.839   0.781  1.00  0.00     0.069 A 
HETATM   10  C   UNL     1      48.530 -29.643   0.531  1.00  0.00     0.090 A 
HETATM   11 CL   UNL     1      46.828 -28.591   2.395  1.00  0.00    -0.081 Cl
HETATM   12  C   UNL     1      48.962 -29.785  -0.787  1.00  0.00     0.041 A 
HETATM   13  C   UNL     1      48.266 -29.161  -1.830  1.00  0.00     0.032 A 
BRANCH  10  14
HETATM   14  O   UNL     1      49.137 -30.228   1.612  1.00  0.00    -0.350 OA
BRANCH  14  15
HETATM   15  C   UNL     1      50.556 -30.354   1.591  1.00  0.00     0.171 C 
HETATM   16  C   UNL     1      51.076 -30.085   2.992  1.00  0.00     0.034 C 
ENDBRANCH  14  15
ENDBRANCH  10  14
ENDBRANCH   1   7
BRANCH   3  17
HETATM   17  C   UNL     1      43.883 -29.857  -4.253  1.00  0.00     0.183 C 
BRANCH  17  18
HETATM   18  C   UNL     1      44.400 -30.651  -5.434  1.00  0.00     0.053 A 
HETATM   19  N   UNL     1      43.566 -30.857  -6.490  1.00  0.00    -0.264 NA
HETATM   20  C   UNL     1      44.047 -31.559  -7.540  1.00  0.00     0.118 A 
HETATM   21  C   UNL     1      45.319 -32.093  -7.588  1.00  0.00     0.043 A 
HETATM   22  C   UNL     1      46.141 -31.892  -6.488  1.00  0.00     0.037 A 
HETATM   23 CL   UNL     1      47.734 -32.545  -6.481  1.00  0.00    -0.084 Cl
HETATM   24  C   UNL     1      45.691 -31.165  -5.394  1.00  0.00     0.052 A 
ENDBRANCH  17  18
ENDBRANCH   3  17
TORSDOF 5
ENDMDL
