MODEL 1
REMARK VINA RESULT:      -8.3      0.000      0.000
REMARK  11 active torsions:
REMARK  status: ('A' for Active; 'I' for Inactive)
REMARK    1  A    between atoms: C_2  and  C_3 
REMARK    2  A    between atoms: C_3  and  C_4 
REMARK    3  A    between atoms: C_4  and  O_5 
REMARK    4  A    between atoms: O_5  and  C_6 
REMARK    5  A    between atoms: C_8  and  C_9 
REMARK       I    between atoms: C_9  and  N_10 
REMARK    6  A    between atoms: N_10  and  C_11 
REMARK    7  A    between atoms: C_11  and  N_12 
REMARK    8  A    between atoms: N_12  and  C_13 
REMARK    9  A    between atoms: C_15  and  C_16 
REMARK   10  A    between atoms: C_23  and  C_24 
REMARK   11  A    between atoms: C_27  and  O_28 
ROOT
HETATM    1  C   UNL     1      39.165 -10.809   6.683  1.00  0.00     0.035 A 
HETATM    2  C   UNL     1      39.838 -11.910   6.148  1.00  0.00     0.048 A 
HETATM    3  C   UNL     1      39.891 -12.141   4.766  1.00  0.00     0.052 A 
HETATM    4  C   UNL     1      39.254 -11.233   3.916  1.00  0.00     0.080 A 
HETATM    5  C   UNL     1      38.651 -10.083   4.432  1.00  0.00     0.040 A 
HETATM    6  C   UNL     1      38.624  -9.861   5.814  1.00  0.00     0.032 A 
ENDROOT
BRANCH   1   7
HETATM    7  N   UNL     1      39.060 -10.608   8.076  1.00  0.00    -0.333 N 
HETATM    8  H   UNL     1      38.591 -11.338   8.612  1.00  0.00     0.168 HD
BRANCH   7   9
HETATM    9  C   UNL     1      39.704  -9.664   8.843  1.00  0.00     0.179 C 
HETATM   10  S   UNL     1      39.037  -8.442   9.776  1.00  0.00    -0.040 SA
BRANCH   9  11
HETATM   11  N   UNL     1      41.079  -9.727   8.845  1.00  0.00    -0.299 N 
HETATM   12  C   UNL     1      42.000  -8.912   8.207  1.00  0.00     0.257 C 
HETATM   13  O   UNL     1      41.798  -7.745   7.898  1.00  0.00    -0.267 OA
HETATM   14  H   UNL     1      41.425 -10.574   9.279  1.00  0.00     0.171 HD
BRANCH  12  15
HETATM   15  C   UNL     1      43.335  -9.544   8.038  1.00  0.00     0.035 A 
HETATM   16  C   UNL     1      43.426 -10.825   7.480  1.00  0.00     0.053 A 
HETATM   17  C   UNL     1      44.684 -11.381   7.247  1.00  0.00     0.069 A 
HETATM   18  C   UNL     1      45.834 -10.668   7.600  1.00  0.00     0.037 A 
HETATM   19  C   UNL     1      45.744  -9.408   8.190  1.00  0.00     0.004 A 
HETATM   20  C   UNL     1      44.492  -8.842   8.410  1.00  0.00     0.017 A 
BRANCH  17  21
HETATM   21  O   UNL     1      44.940 -12.589   6.664  1.00  0.00    -0.351 OA
BRANCH  21  22
HETATM   22  C   UNL     1      43.845 -13.292   6.080  1.00  0.00     0.175 C 
BRANCH  22  23
HETATM   23  C   UNL     1      43.507 -14.483   6.977  1.00  0.00     0.026 C 
BRANCH  23  24
HETATM   24  C   UNL     1      44.319 -15.732   6.623  1.00  0.00    -0.002 C 
HETATM   25  C   UNL     1      43.667 -16.992   7.172  1.00  0.00     0.005 C 
ENDBRANCH  23  24
ENDBRANCH  22  23
ENDBRANCH  21  22
ENDBRANCH  17  21
ENDBRANCH  12  15
ENDBRANCH   9  11
ENDBRANCH   7   9
ENDBRANCH   1   7
BRANCH   3  26
HETATM   26  C   UNL     1      40.578 -13.323   4.266  1.00  0.00     0.183 A 
HETATM   27  O   UNL     1      41.358 -13.136   3.155  1.00  0.00    -0.289 OA
HETATM   28  C   UNL     1      41.944 -14.347   2.958  1.00  0.00     0.106 A 
HETATM   29  C   UNL     1      41.489 -15.204   3.944  1.00  0.00     0.094 A 
HETATM   30  C   UNL     1      42.856 -14.681   1.970  1.00  0.00     0.040 A 
HETATM   31  N   UNL     1      40.565 -14.558   4.737  1.00  0.00    -0.221 NA
HETATM   32  C   UNL     1      42.016 -16.503   3.995  1.00  0.00     0.041 A 
HETATM   33  C   UNL     1      42.997 -16.884   3.050  1.00  0.00    -0.056 A 
HETATM   34  C   UNL     1      43.374 -15.980   2.037  1.00  0.00     0.010 A 
BRANCH  33  35
HETATM   35  C   UNL     1      43.588 -18.275   3.162  1.00  0.00     0.034 C 
HETATM   36  C   UNL     1      43.141 -19.285   2.110  1.00  0.00     0.010 C 
ENDBRANCH  33  35
ENDBRANCH   3  26
BRANCH   4  37
HETATM   37  O   UNL     1      39.192 -11.406   2.559  1.00  0.00    -0.360 OA
HETATM   38  H   UNL     1      38.753 -12.262   2.377  1.00  0.00     0.217 HD
ENDBRANCH   4  37
TORSDOF 11
ENDMDL
MODEL 2
REMARK VINA RESULT:      -8.3      3.646      9.104
REMARK  11 active torsions:
REMARK  status: ('A' for Active; 'I' for Inactive)
REMARK    1  A    between atoms: C_2  and  C_3 
REMARK    2  A    between atoms: C_3  and  C_4 
REMARK    3  A    between atoms: C_4  and  O_5 
REMARK    4  A    between atoms: O_5  and  C_6 
REMARK    5  A    between atoms: C_8  and  C_9 
REMARK       I    between atoms: C_9  and  N_10 
REMARK    6  A    between atoms: N_10  and  C_11 
REMARK    7  A    between atoms: C_11  and  N_12 
REMARK    8  A    between atoms: N_12  and  C_13 
REMARK    9  A    between atoms: C_15  and  C_16 
REMARK   10  A    between atoms: C_23  and  C_24 
REMARK   11  A    between atoms: C_27  and  O_28 
ROOT
HETATM    1  C   UNL     1      43.151 -10.621   6.959  1.00  0.00     0.035 A 
HETATM    2  C   UNL     1      42.785 -10.039   8.176  1.00  0.00     0.048 A 
HETATM    3  C   UNL     1      43.669  -9.988   9.264  1.00  0.00     0.052 A 
HETATM    4  C   UNL     1      44.947 -10.532   9.107  1.00  0.00     0.080 A 
HETATM    5  C   UNL     1      45.354 -11.038   7.871  1.00  0.00     0.040 A 
HETATM    6  C   UNL     1      44.463 -11.065   6.791  1.00  0.00     0.032 A 
ENDROOT
BRANCH   1   7
HETATM    7  N   UNL     1      42.243 -10.727   5.884  1.00  0.00    -0.333 N 
HETATM    8  H   UNL     1      42.267  -9.983   5.187  1.00  0.00     0.168 HD
BRANCH   7   9
HETATM    9  C   UNL     1      41.482 -11.817   5.528  1.00  0.00     0.179 C 
HETATM   10  S   UNL     1      39.829 -12.039   5.695  1.00  0.00    -0.040 SA
BRANCH   9  11
HETATM   11  N   UNL     1      42.166 -12.867   4.959  1.00  0.00    -0.299 N 
HETATM   12  C   UNL     1      42.831 -12.933   3.745  1.00  0.00     0.257 C 
HETATM   13  O   UNL     1      43.313 -11.969   3.164  1.00  0.00    -0.267 OA
HETATM   14  H   UNL     1      42.036 -13.732   5.469  1.00  0.00     0.171 HD
BRANCH  12  15
HETATM   15  C   UNL     1      43.031 -14.322   3.253  1.00  0.00     0.035 A 
HETATM   16  C   UNL     1      43.220 -15.359   4.173  1.00  0.00     0.053 A 
HETATM   17  C   UNL     1      43.325 -16.672   3.713  1.00  0.00     0.069 A 
HETATM   18  C   UNL     1      43.270 -16.931   2.339  1.00  0.00     0.037 A 
HETATM   19  C   UNL     1      43.119 -15.895   1.419  1.00  0.00     0.004 A 
HETATM   20  C   UNL     1      42.998 -14.586   1.875  1.00  0.00     0.017 A 
BRANCH  17  21
HETATM   21  O   UNL     1      43.457 -17.792   4.482  1.00  0.00    -0.351 OA
BRANCH  21  22
HETATM   22  C   UNL     1      44.587 -18.630   4.251  1.00  0.00     0.175 C 
BRANCH  22  23
HETATM   23  C   UNL     1      44.259 -20.031   4.767  1.00  0.00     0.026 C 
BRANCH  23  24
HETATM   24  C   UNL     1      43.601 -20.909   3.698  1.00  0.00    -0.002 C 
HETATM   25  C   UNL     1      43.908 -20.402   2.298  1.00  0.00     0.005 C 
ENDBRANCH  23  24
ENDBRANCH  22  23
ENDBRANCH  21  22
ENDBRANCH  17  21
ENDBRANCH  12  15
ENDBRANCH   9  11
ENDBRANCH   7   9
ENDBRANCH   1   7
BRANCH   3  26
HETATM   26  C   UNL     1      43.223  -9.401  10.518  1.00  0.00     0.183 A 
HETATM   27  O   UNL     1      42.128  -9.987  11.096  1.00  0.00    -0.289 OA
HETATM   28  C   UNL     1      41.981  -9.321  12.272  1.00  0.00     0.106 A 
HETATM   29  C   UNL     1      42.980  -8.366  12.347  1.00  0.00     0.094 A 
HETATM   30  C   UNL     1      41.028  -9.555  13.250  1.00  0.00     0.040 A 
HETATM   31  N   UNL     1      43.730  -8.381  11.190  1.00  0.00    -0.221 NA
HETATM   32  C   UNL     1      43.083  -7.598  13.515  1.00  0.00     0.041 A 
HETATM   33  C   UNL     1      42.175  -7.832  14.575  1.00  0.00    -0.056 A 
HETATM   34  C   UNL     1      41.147  -8.781  14.411  1.00  0.00     0.010 A 
BRANCH  33  35
HETATM   35  C   UNL     1      42.344  -7.024  15.845  1.00  0.00     0.034 C 
HETATM   36  C   UNL     1      41.506  -7.464  17.042  1.00  0.00     0.010 C 
ENDBRANCH  33  35
ENDBRANCH   3  26
BRANCH   4  37
HETATM   37  O   UNL     1      45.858 -10.591  10.128  1.00  0.00    -0.360 OA
HETATM   38  H   UNL     1      45.843  -9.735  10.604  1.00  0.00     0.217 HD
ENDBRANCH   4  37
TORSDOF 11
ENDMDL
MODEL 3
REMARK VINA RESULT:      -8.1      4.446      6.258
REMARK  11 active torsions:
REMARK  status: ('A' for Active; 'I' for Inactive)
REMARK    1  A    between atoms: C_2  and  C_3 
REMARK    2  A    between atoms: C_3  and  C_4 
REMARK    3  A    between atoms: C_4  and  O_5 
REMARK    4  A    between atoms: O_5  and  C_6 
REMARK    5  A    between atoms: C_8  and  C_9 
REMARK       I    between atoms: C_9  and  N_10 
REMARK    6  A    between atoms: N_10  and  C_11 
REMARK    7  A    between atoms: C_11  and  N_12 
REMARK    8  A    between atoms: N_12  and  C_13 
REMARK    9  A    between atoms: C_15  and  C_16 
REMARK   10  A    between atoms: C_23  and  C_24 
REMARK   11  A    between atoms: C_27  and  O_28 
ROOT
HETATM    1  C   UNL     1      43.617 -11.385   7.279  1.00  0.00     0.035 A 
HETATM    2  C   UNL     1      43.645 -12.634   6.653  1.00  0.00     0.048 A 
HETATM    3  C   UNL     1      42.917 -12.889   5.481  1.00  0.00     0.052 A 
HETATM    4  C   UNL     1      42.153 -11.853   4.937  1.00  0.00     0.080 A 
HETATM    5  C   UNL     1      42.184 -10.577   5.503  1.00  0.00     0.040 A 
HETATM    6  C   UNL     1      42.931 -10.338   6.663  1.00  0.00     0.032 A 
ENDROOT
BRANCH   1   7
HETATM    7  N   UNL     1      44.300 -11.145   8.489  1.00  0.00    -0.333 N 
HETATM    8  H   UNL     1      44.462 -11.951   9.094  1.00  0.00     0.168 HD
BRANCH   7   9
HETATM    9  C   UNL     1      44.978 -10.008   8.864  1.00  0.00     0.179 C 
HETATM   10  S   UNL     1      46.262  -9.254   8.096  1.00  0.00    -0.040 SA
BRANCH   9  11
HETATM   11  N   UNL     1      44.549  -9.409  10.027  1.00  0.00    -0.299 N 
HETATM   12  C   UNL     1      43.906  -9.966  11.121  1.00  0.00     0.257 C 
HETATM   13  O   UNL     1      43.995 -11.139  11.456  1.00  0.00    -0.267 OA
HETATM   14  H   UNL     1      44.616  -8.399   9.987  1.00  0.00     0.171 HD
BRANCH  12  15
HETATM   15  C   UNL     1      43.181  -8.969  11.953  1.00  0.00     0.035 A 
HETATM   16  C   UNL     1      42.747  -9.326  13.236  1.00  0.00     0.053 A 
HETATM   17  C   UNL     1      42.141  -8.365  14.045  1.00  0.00     0.069 A 
HETATM   18  C   UNL     1      41.948  -7.068  13.556  1.00  0.00     0.037 A 
HETATM   19  C   UNL     1      42.346  -6.721  12.266  1.00  0.00     0.004 A 
HETATM   20  C   UNL     1      42.965  -7.673  11.461  1.00  0.00     0.017 A 
BRANCH  17  21
HETATM   21  O   UNL     1      41.715  -8.540  15.330  1.00  0.00    -0.351 OA
BRANCH  21  22
HETATM   22  C   UNL     1      41.086  -7.438  15.980  1.00  0.00     0.175 C 
BRANCH  22  23
HETATM   23  C   UNL     1      41.932  -7.050  17.193  1.00  0.00     0.026 C 
BRANCH  23  24
HETATM   24  C   UNL     1      41.448  -7.721  18.482  1.00  0.00    -0.002 C 
HETATM   25  C   UNL     1      39.934  -7.860  18.501  1.00  0.00     0.005 C 
ENDBRANCH  23  24
ENDBRANCH  22  23
ENDBRANCH  21  22
ENDBRANCH  17  21
ENDBRANCH  12  15
ENDBRANCH   9  11
ENDBRANCH   7   9
ENDBRANCH   1   7
BRANCH   3  26
HETATM   26  C   UNL     1      42.957 -14.219   4.892  1.00  0.00     0.183 A 
HETATM   27  O   UNL     1      42.852 -14.270   3.526  1.00  0.00    -0.289 OA
HETATM   28  C   UNL     1      43.008 -15.589   3.235  1.00  0.00     0.106 A 
HETATM   29  C   UNL     1      43.189 -16.268   4.426  1.00  0.00     0.094 A 
HETATM   30  C   UNL     1      43.014 -16.170   1.977  1.00  0.00     0.040 A 
HETATM   31  N   UNL     1      43.090 -15.392   5.486  1.00  0.00    -0.221 NA
HETATM   32  C   UNL     1      43.449 -17.646   4.377  1.00  0.00     0.041 A 
HETATM   33  C   UNL     1      43.529 -18.285   3.117  1.00  0.00    -0.056 A 
HETATM   34  C   UNL     1      43.278 -17.545   1.945  1.00  0.00     0.010 A 
BRANCH  33  35
HETATM   35  C   UNL     1      43.864 -19.763   3.092  1.00  0.00     0.034 C 
HETATM   36  C   UNL     1      43.753 -20.457   1.738  1.00  0.00     0.010 C 
ENDBRANCH  33  35
ENDBRANCH   3  26
BRANCH   4  37
HETATM   37  O   UNL     1      41.357 -12.020   3.835  1.00  0.00    -0.360 OA
HETATM   38  H   UNL     1      40.605 -11.396   3.901  1.00  0.00     0.217 HD
ENDBRANCH   4  37
TORSDOF 11
ENDMDL
MODEL 4
REMARK VINA RESULT:      -8.1      3.422      5.622
REMARK  11 active torsions:
REMARK  status: ('A' for Active; 'I' for Inactive)
REMARK    1  A    between atoms: C_2  and  C_3 
REMARK    2  A    between atoms: C_3  and  C_4 
REMARK    3  A    between atoms: C_4  and  O_5 
REMARK    4  A    between atoms: O_5  and  C_6 
REMARK    5  A    between atoms: C_8  and  C_9 
REMARK       I    between atoms: C_9  and  N_10 
REMARK    6  A    between atoms: N_10  and  C_11 
REMARK    7  A    between atoms: C_11  and  N_12 
REMARK    8  A    between atoms: N_12  and  C_13 
REMARK    9  A    between atoms: C_15  and  C_16 
REMARK   10  A    between atoms: C_23  and  C_24 
REMARK   11  A    between atoms: C_27  and  O_28 
ROOT
HETATM    1  C   UNL     1      43.513 -11.415   7.343  1.00  0.00     0.035 A 
HETATM    2  C   UNL     1      43.557 -12.654   6.701  1.00  0.00     0.048 A 
HETATM    3  C   UNL     1      42.864 -12.889   5.503  1.00  0.00     0.052 A 
HETATM    4  C   UNL     1      42.121 -11.843   4.950  1.00  0.00     0.080 A 
HETATM    5  C   UNL     1      42.138 -10.575   5.536  1.00  0.00     0.040 A 
HETATM    6  C   UNL     1      42.850 -10.356   6.722  1.00  0.00     0.032 A 
ENDROOT
BRANCH   1   7
HETATM    7  N   UNL     1      44.159 -11.195   8.578  1.00  0.00    -0.333 N 
HETATM    8  H   UNL     1      44.315 -12.012   9.167  1.00  0.00     0.168 HD
BRANCH   7   9
HETATM    9  C   UNL     1      44.811 -10.058   8.998  1.00  0.00     0.179 C 
HETATM   10  S   UNL     1      46.039  -9.212   8.232  1.00  0.00    -0.040 SA
BRANCH   9  11
HETATM   11  N   UNL     1      44.407  -9.546  10.210  1.00  0.00    -0.299 N 
HETATM   12  C   UNL     1      43.795 -10.185  11.277  1.00  0.00     0.257 C 
HETATM   13  O   UNL     1      43.903 -11.379  11.526  1.00  0.00    -0.267 OA
HETATM   14  H   UNL     1      44.465  -8.536  10.240  1.00  0.00     0.171 HD
BRANCH  12  15
HETATM   15  C   UNL     1      43.084  -9.257  12.195  1.00  0.00     0.035 A 
HETATM   16  C   UNL     1      43.063  -7.887  11.911  1.00  0.00     0.053 A 
HETATM   17  C   UNL     1      42.326  -7.030  12.728  1.00  0.00     0.069 A 
HETATM   18  C   UNL     1      41.643  -7.544  13.836  1.00  0.00     0.037 A 
HETATM   19  C   UNL     1      41.692  -8.903  14.141  1.00  0.00     0.004 A 
HETATM   20  C   UNL     1      42.414  -9.764  13.320  1.00  0.00     0.017 A 
BRANCH  17  21
HETATM   21  O   UNL     1      42.163  -5.685  12.554  1.00  0.00    -0.351 OA
BRANCH  21  22
HETATM   22  C   UNL     1      40.832  -5.182  12.457  1.00  0.00     0.175 C 
BRANCH  22  23
HETATM   23  C   UNL     1      40.255  -5.608  11.107  1.00  0.00     0.026 C 
BRANCH  23  24
HETATM   24  C   UNL     1      38.985  -6.452  11.252  1.00  0.00    -0.002 C 
HETATM   25  C   UNL     1      39.246  -7.911  10.912  1.00  0.00     0.005 C 
ENDBRANCH  23  24
ENDBRANCH  22  23
ENDBRANCH  21  22
ENDBRANCH  17  21
ENDBRANCH  12  15
ENDBRANCH   9  11
ENDBRANCH   7   9
ENDBRANCH   1   7
BRANCH   3  26
HETATM   26  C   UNL     1      42.918 -14.211   4.896  1.00  0.00     0.183 A 
HETATM   27  O   UNL     1      42.852 -14.242   3.527  1.00  0.00    -0.289 OA
HETATM   28  C   UNL     1      43.012 -15.557   3.222  1.00  0.00     0.106 A 
HETATM   29  C   UNL     1      43.158 -16.254   4.408  1.00  0.00     0.094 A 
HETATM   30  C   UNL     1      43.053 -16.120   1.957  1.00  0.00     0.040 A 
HETATM   31  N   UNL     1      43.031 -15.393   5.477  1.00  0.00    -0.221 NA
HETATM   32  C   UNL     1      43.417 -17.631   4.346  1.00  0.00     0.041 A 
HETATM   33  C   UNL     1      43.531 -18.253   3.080  1.00  0.00    -0.056 A 
HETATM   34  C   UNL     1      43.315 -17.496   1.912  1.00  0.00     0.010 A 
BRANCH  33  35
HETATM   35  C   UNL     1      43.863 -19.731   3.043  1.00  0.00     0.034 C 
HETATM   36  C   UNL     1      43.541 -20.463   1.744  1.00  0.00     0.010 C 
ENDBRANCH  33  35
ENDBRANCH   3  26
BRANCH   4  37
HETATM   37  O   UNL     1      41.358 -11.991   3.823  1.00  0.00    -0.360 OA
HETATM   38  H   UNL     1      41.958 -12.103   3.057  1.00  0.00     0.217 HD
ENDBRANCH   4  37
TORSDOF 11
ENDMDL
MODEL 5
REMARK VINA RESULT:      -7.8      2.782      4.942
REMARK  11 active torsions:
REMARK  status: ('A' for Active; 'I' for Inactive)
REMARK    1  A    between atoms: C_2  and  C_3 
REMARK    2  A    between atoms: C_3  and  C_4 
REMARK    3  A    between atoms: C_4  and  O_5 
REMARK    4  A    between atoms: O_5  and  C_6 
REMARK    5  A    between atoms: C_8  and  C_9 
REMARK       I    between atoms: C_9  and  N_10 
REMARK    6  A    between atoms: N_10  and  C_11 
REMARK    7  A    between atoms: C_11  and  N_12 
REMARK    8  A    between atoms: N_12  and  C_13 
REMARK    9  A    between atoms: C_15  and  C_16 
REMARK   10  A    between atoms: C_23  and  C_24 
REMARK   11  A    between atoms: C_27  and  O_28 
ROOT
HETATM    1  C   UNL     1      39.353 -11.283   4.514  1.00  0.00     0.035 A 
HETATM    2  C   UNL     1      40.206 -12.387   4.444  1.00  0.00     0.048 A 
HETATM    3  C   UNL     1      40.280 -13.189   3.295  1.00  0.00     0.052 A 
HETATM    4  C   UNL     1      39.477 -12.857   2.201  1.00  0.00     0.080 A 
HETATM    5  C   UNL     1      38.685 -11.707   2.227  1.00  0.00     0.040 A 
HETATM    6  C   UNL     1      38.638 -10.909   3.377  1.00  0.00     0.032 A 
ENDROOT
BRANCH   1   7
HETATM    7  N   UNL     1      39.233 -10.511   5.689  1.00  0.00    -0.333 N 
HETATM    8  H   UNL     1      38.437 -10.714   6.294  1.00  0.00     0.168 HD
BRANCH   7   9
HETATM    9  C   UNL     1      40.171  -9.671   6.247  1.00  0.00     0.179 C 
HETATM   10  S   UNL     1      41.372  -8.789   5.481  1.00  0.00    -0.040 SA
BRANCH   9  11
HETATM   11  N   UNL     1      40.120  -9.538   7.616  1.00  0.00    -0.299 N 
HETATM   12  C   UNL     1      39.196 -10.044   8.517  1.00  0.00     0.257 C 
HETATM   13  O   UNL     1      38.526 -11.051   8.332  1.00  0.00    -0.267 OA
HETATM   14  H   UNL     1      40.793  -8.866   7.963  1.00  0.00     0.171 HD
BRANCH  12  15
HETATM   15  C   UNL     1      39.178  -9.321   9.816  1.00  0.00     0.035 A 
HETATM   16  C   UNL     1      39.618  -9.972  10.975  1.00  0.00     0.053 A 
HETATM   17  C   UNL     1      39.678  -9.266  12.176  1.00  0.00     0.069 A 
HETATM   18  C   UNL     1      39.270  -7.928  12.214  1.00  0.00     0.037 A 
HETATM   19  C   UNL     1      38.797  -7.289  11.069  1.00  0.00     0.004 A 
HETATM   20  C   UNL     1      38.750  -7.986   9.866  1.00  0.00     0.017 A 
BRANCH  17  21
HETATM   21  O   UNL     1      40.132  -9.740  13.373  1.00  0.00    -0.351 OA
BRANCH  21  22
HETATM   22  C   UNL     1      41.238  -9.072  13.978  1.00  0.00     0.175 C 
BRANCH  22  23
HETATM   23  C   UNL     1      42.504  -9.444  13.208  1.00  0.00     0.026 C 
BRANCH  23  24
HETATM   24  C   UNL     1      43.311  -8.216  12.778  1.00  0.00    -0.002 C 
HETATM   25  C   UNL     1      42.915  -7.753  11.385  1.00  0.00     0.005 C 
ENDBRANCH  23  24
ENDBRANCH  22  23
ENDBRANCH  21  22
ENDBRANCH  17  21
ENDBRANCH  12  15
ENDBRANCH   9  11
ENDBRANCH   7   9
ENDBRANCH   1   7
BRANCH   3  26
HETATM   26  C   UNL     1      41.161 -14.347   3.290  1.00  0.00     0.183 A 
HETATM   27  O   UNL     1      42.004 -14.461   4.364  1.00  0.00    -0.289 OA
HETATM   28  C   UNL     1      42.636 -15.648   4.161  1.00  0.00     0.106 A 
HETATM   29  C   UNL     1      42.157 -16.187   2.980  1.00  0.00     0.094 A 
HETATM   30  C   UNL     1      43.575 -16.244   4.986  1.00  0.00     0.040 A 
HETATM   31  N   UNL     1      41.262 -15.317   2.396  1.00  0.00    -0.221 NA
HETATM   32  C   UNL     1      42.608 -17.458   2.595  1.00  0.00     0.041 A 
HETATM   33  C   UNL     1      43.522 -18.144   3.428  1.00  0.00    -0.056 A 
HETATM   34  C   UNL     1      44.014 -17.514   4.588  1.00  0.00     0.010 A 
BRANCH  33  35
HETATM   35  C   UNL     1      43.951 -19.537   3.014  1.00  0.00     0.034 C 
HETATM   36  C   UNL     1      43.132 -20.195   1.909  1.00  0.00     0.010 C 
ENDBRANCH  33  35
ENDBRANCH   3  26
BRANCH   4  37
HETATM   37  O   UNL     1      39.427 -13.614   1.061  1.00  0.00    -0.360 OA
HETATM   38  H   UNL     1      38.804 -13.190   0.436  1.00  0.00     0.217 HD
ENDBRANCH   4  37
TORSDOF 11
ENDMDL
MODEL 6
REMARK VINA RESULT:      -7.8      3.501      5.853
REMARK  11 active torsions:
REMARK  status: ('A' for Active; 'I' for Inactive)
REMARK    1  A    between atoms: C_2  and  C_3 
REMARK    2  A    between atoms: C_3  and  C_4 
REMARK    3  A    between atoms: C_4  and  O_5 
REMARK    4  A    between atoms: O_5  and  C_6 
REMARK    5  A    between atoms: C_8  and  C_9 
REMARK       I    between atoms: C_9  and  N_10 
REMARK    6  A    between atoms: N_10  and  C_11 
REMARK    7  A    between atoms: C_11  and  N_12 
REMARK    8  A    between atoms: N_12  and  C_13 
REMARK    9  A    between atoms: C_15  and  C_16 
REMARK   10  A    between atoms: C_23  and  C_24 
REMARK   11  A    between atoms: C_27  and  O_28 
ROOT
HETATM    1  C   UNL     1      42.250 -10.677   6.645  1.00  0.00     0.035 A 
HETATM    2  C   UNL     1      42.645 -11.847   5.992  1.00  0.00     0.048 A 
HETATM    3  C   UNL     1      41.718 -12.829   5.611  1.00  0.00     0.052 A 
HETATM    4  C   UNL     1      40.367 -12.611   5.894  1.00  0.00     0.080 A 
HETATM    5  C   UNL     1      39.949 -11.408   6.468  1.00  0.00     0.040 A 
HETATM    6  C   UNL     1      40.888 -10.433   6.825  1.00  0.00     0.032 A 
ENDROOT
BRANCH   1   7
HETATM    7  N   UNL     1      43.187  -9.718   7.082  1.00  0.00    -0.333 N 
HETATM    8  H   UNL     1      43.024  -8.752   6.796  1.00  0.00     0.168 HD
BRANCH   7   9
HETATM    9  C   UNL     1      44.170  -9.871   8.032  1.00  0.00     0.179 C 
HETATM   10  S   UNL     1      45.685 -10.568   7.868  1.00  0.00    -0.040 SA
BRANCH   9  11
HETATM   11  N   UNL     1      43.872  -9.391   9.288  1.00  0.00    -0.299 N 
HETATM   12  C   UNL     1      43.563 -10.085  10.447  1.00  0.00     0.257 C 
HETATM   13  O   UNL     1      43.926 -11.228  10.689  1.00  0.00    -0.267 OA
HETATM   14  H   UNL     1      43.747  -8.386   9.296  1.00  0.00     0.171 HD
BRANCH  12  15
HETATM   15  C   UNL     1      42.845  -9.263  11.456  1.00  0.00     0.035 A 
HETATM   16  C   UNL     1      41.446  -9.301  11.509  1.00  0.00     0.053 A 
HETATM   17  C   UNL     1      40.779  -8.594  12.509  1.00  0.00     0.069 A 
HETATM   18  C   UNL     1      41.512  -7.833  13.427  1.00  0.00     0.037 A 
HETATM   19  C   UNL     1      42.903  -7.765  13.353  1.00  0.00     0.004 A 
HETATM   20  C   UNL     1      43.573  -8.481  12.366  1.00  0.00     0.017 A 
BRANCH  17  21
HETATM   21  O   UNL     1      39.432  -8.574  12.725  1.00  0.00    -0.351 OA
BRANCH  21  22
HETATM   22  C   UNL     1      38.679  -7.512  12.143  1.00  0.00     0.175 C 
BRANCH  22  23
HETATM   23  C   UNL     1      37.989  -6.740  13.267  1.00  0.00     0.026 C 
BRANCH  23  24
HETATM   24  C   UNL     1      37.402  -5.408  12.789  1.00  0.00    -0.002 C 
HETATM   25  C   UNL     1      37.186  -4.449  13.949  1.00  0.00     0.005 C 
ENDBRANCH  23  24
ENDBRANCH  22  23
ENDBRANCH  21  22
ENDBRANCH  17  21
ENDBRANCH  12  15
ENDBRANCH   9  11
ENDBRANCH   7   9
ENDBRANCH   1   7
BRANCH   3  26
HETATM   26  C   UNL     1      42.191 -14.044   4.964  1.00  0.00     0.183 A 
HETATM   27  O   UNL     1      43.111 -14.776   5.668  1.00  0.00    -0.289 OA
HETATM   28  C   UNL     1      43.310 -15.879   4.898  1.00  0.00     0.106 A 
HETATM   29  C   UNL     1      42.516 -15.759   3.771  1.00  0.00     0.094 A 
HETATM   30  C   UNL     1      44.135 -16.955   5.181  1.00  0.00     0.040 A 
HETATM   31  N   UNL     1      41.853 -14.551   3.791  1.00  0.00    -0.221 NA
HETATM   32  C   UNL     1      42.493 -16.821   2.856  1.00  0.00     0.041 A 
HETATM   33  C   UNL     1      43.268 -17.975   3.121  1.00  0.00    -0.056 A 
HETATM   34  C   UNL     1      44.098 -18.008   4.258  1.00  0.00     0.010 A 
BRANCH  33  35
HETATM   35  C   UNL     1      43.181 -19.128   2.142  1.00  0.00     0.034 C 
HETATM   36  C   UNL     1      43.645 -20.487   2.656  1.00  0.00     0.010 C 
ENDBRANCH  33  35
ENDBRANCH   3  26
BRANCH   4  37
HETATM   37  O   UNL     1      39.395 -13.536   5.623  1.00  0.00    -0.360 OA
HETATM   38  H   UNL     1      39.637 -14.377   6.064  1.00  0.00     0.217 HD
ENDBRANCH   4  37
TORSDOF 11
ENDMDL
MODEL 7
REMARK VINA RESULT:      -7.7      3.542      6.874
REMARK  11 active torsions:
REMARK  status: ('A' for Active; 'I' for Inactive)
REMARK    1  A    between atoms: C_2  and  C_3 
REMARK    2  A    between atoms: C_3  and  C_4 
REMARK    3  A    between atoms: C_4  and  O_5 
REMARK    4  A    between atoms: O_5  and  C_6 
REMARK    5  A    between atoms: C_8  and  C_9 
REMARK       I    between atoms: C_9  and  N_10 
REMARK    6  A    between atoms: N_10  and  C_11 
REMARK    7  A    between atoms: C_11  and  N_12 
REMARK    8  A    between atoms: N_12  and  C_13 
REMARK    9  A    between atoms: C_15  and  C_16 
REMARK   10  A    between atoms: C_23  and  C_24 
REMARK   11  A    between atoms: C_27  and  O_28 
ROOT
HETATM    1  C   UNL     1      42.410 -10.687   4.539  1.00  0.00     0.035 A 
HETATM    2  C   UNL     1      42.558 -12.064   4.357  1.00  0.00     0.048 A 
HETATM    3  C   UNL     1      42.950 -12.909   5.407  1.00  0.00     0.052 A 
HETATM    4  C   UNL     1      43.188 -12.341   6.662  1.00  0.00     0.080 A 
HETATM    5  C   UNL     1      42.960 -10.980   6.878  1.00  0.00     0.040 A 
HETATM    6  C   UNL     1      42.551 -10.157   5.821  1.00  0.00     0.032 A 
ENDROOT
BRANCH   1   7
HETATM    7  N   UNL     1      42.074  -9.829   3.471  1.00  0.00    -0.333 N 
HETATM    8  H   UNL     1      42.848  -9.450   2.925  1.00  0.00     0.168 HD
BRANCH   7   9
HETATM    9  C   UNL     1      40.831  -9.611   2.922  1.00  0.00     0.179 C 
HETATM   10  S   UNL     1      39.857  -8.253   3.045  1.00  0.00    -0.040 SA
BRANCH   9  11
HETATM   11  N   UNL     1      40.315 -10.645   2.174  1.00  0.00    -0.299 N 
HETATM   12  C   UNL     1      39.643 -11.784   2.589  1.00  0.00     0.257 C 
HETATM   13  O   UNL     1      38.999 -11.871   3.626  1.00  0.00    -0.267 OA
HETATM   14  H   UNL     1      40.594 -10.594   1.202  1.00  0.00     0.171 HD
BRANCH  12  15
HETATM   15  C   UNL     1      39.661 -12.881   1.586  1.00  0.00     0.035 A 
HETATM   16  C   UNL     1      39.391 -12.592   0.243  1.00  0.00     0.053 A 
HETATM   17  C   UNL     1      39.489 -13.608  -0.709  1.00  0.00     0.069 A 
HETATM   18  C   UNL     1      39.826 -14.905  -0.306  1.00  0.00     0.037 A 
HETATM   19  C   UNL     1      40.059 -15.202   1.036  1.00  0.00     0.004 A 
HETATM   20  C   UNL     1      39.977 -14.189   1.986  1.00  0.00     0.017 A 
BRANCH  17  21
HETATM   21  O   UNL     1      39.311 -13.476  -2.056  1.00  0.00    -0.351 OA
BRANCH  21  22
HETATM   22  C   UNL     1      40.462 -13.568  -2.893  1.00  0.00     0.175 C 
BRANCH  22  23
HETATM   23  C   UNL     1      41.148 -12.202  -2.916  1.00  0.00     0.026 C 
BRANCH  23  24
HETATM   24  C   UNL     1      40.166 -11.058  -3.187  1.00  0.00    -0.002 C 
HETATM   25  C   UNL     1      40.896  -9.744  -3.419  1.00  0.00     0.005 C 
ENDBRANCH  23  24
ENDBRANCH  22  23
ENDBRANCH  21  22
ENDBRANCH  17  21
ENDBRANCH  12  15
ENDBRANCH   9  11
ENDBRANCH   7   9
ENDBRANCH   1   7
BRANCH   3  26
HETATM   26  C   UNL     1      43.122 -14.331   5.152  1.00  0.00     0.183 A 
HETATM   27  O   UNL     1      42.875 -14.742   3.868  1.00  0.00    -0.289 OA
HETATM   28  C   UNL     1      43.191 -16.064   3.880  1.00  0.00     0.106 A 
HETATM   29  C   UNL     1      43.602 -16.391   5.160  1.00  0.00     0.094 A 
HETATM   30  C   UNL     1      43.144 -16.942   2.810  1.00  0.00     0.040 A 
HETATM   31  N   UNL     1      43.492 -15.290   5.983  1.00  0.00    -0.221 NA
HETATM   32  C   UNL     1      44.057 -17.695   5.403  1.00  0.00     0.041 A 
HETATM   33  C   UNL     1      44.090 -18.621   4.334  1.00  0.00    -0.056 A 
HETATM   34  C   UNL     1      43.604 -18.240   3.069  1.00  0.00     0.010 A 
BRANCH  33  35
HETATM   35  C   UNL     1      44.636 -20.007   4.614  1.00  0.00     0.034 C 
HETATM   36  C   UNL     1      43.659 -21.007   5.224  1.00  0.00     0.010 C 
ENDBRANCH  33  35
ENDBRANCH   3  26
BRANCH   4  37
HETATM   37  O   UNL     1      43.637 -13.069   7.731  1.00  0.00    -0.360 OA
HETATM   38  H   UNL     1      42.877 -13.253   8.321  1.00  0.00     0.217 HD
ENDBRANCH   4  37
TORSDOF 11
ENDMDL
MODEL 8
REMARK VINA RESULT:      -7.7      2.741      4.543
REMARK  11 active torsions:
REMARK  status: ('A' for Active; 'I' for Inactive)
REMARK    1  A    between atoms: C_2  and  C_3 
REMARK    2  A    between atoms: C_3  and  C_4 
REMARK    3  A    between atoms: C_4  and  O_5 
REMARK    4  A    between atoms: O_5  and  C_6 
REMARK    5  A    between atoms: C_8  and  C_9 
REMARK       I    between atoms: C_9  and  N_10 
REMARK    6  A    between atoms: N_10  and  C_11 
REMARK    7  A    between atoms: C_11  and  N_12 
REMARK    8  A    between atoms: N_12  and  C_13 
REMARK    9  A    between atoms: C_15  and  C_16 
REMARK   10  A    between atoms: C_23  and  C_24 
REMARK   11  A    between atoms: C_27  and  O_28 
ROOT
HETATM    1  C   UNL     1      41.068 -11.065   4.053  1.00  0.00     0.035 A 
HETATM    2  C   UNL     1      41.726 -12.292   3.943  1.00  0.00     0.048 A 
HETATM    3  C   UNL     1      41.084 -13.431   3.432  1.00  0.00     0.052 A 
HETATM    4  C   UNL     1      39.754 -13.313   3.021  1.00  0.00     0.080 A 
HETATM    5  C   UNL     1      39.112 -12.073   3.045  1.00  0.00     0.040 A 
HETATM    6  C   UNL     1      39.775 -10.945   3.542  1.00  0.00     0.032 A 
ENDROOT
BRANCH   1   7
HETATM    7  N   UNL     1      41.693  -9.936   4.622  1.00  0.00    -0.333 N 
HETATM    8  H   UNL     1      42.440  -9.501   4.080  1.00  0.00     0.168 HD
BRANCH   7   9
HETATM    9  C   UNL     1      41.280  -9.202   5.711  1.00  0.00     0.179 C 
HETATM   10  S   UNL     1      39.850  -8.355   5.921  1.00  0.00    -0.040 SA
BRANCH   9  11
HETATM   11  N   UNL     1      42.159  -9.153   6.769  1.00  0.00    -0.299 N 
HETATM   12  C   UNL     1      43.166 -10.037   7.122  1.00  0.00     0.257 C 
HETATM   13  O   UNL     1      43.752 -10.771   6.337  1.00  0.00    -0.267 OA
HETATM   14  H   UNL     1      41.924  -8.423   7.431  1.00  0.00     0.171 HD
BRANCH  12  15
HETATM   15  C   UNL     1      43.578  -9.929   8.547  1.00  0.00     0.035 A 
HETATM   16  C   UNL     1      42.606  -9.725   9.533  1.00  0.00     0.053 A 
HETATM   17  C   UNL     1      42.986  -9.706  10.875  1.00  0.00     0.069 A 
HETATM   18  C   UNL     1      44.334  -9.861  11.216  1.00  0.00     0.037 A 
HETATM   19  C   UNL     1      45.308 -10.028  10.233  1.00  0.00     0.004 A 
HETATM   20  C   UNL     1      44.931 -10.062   8.894  1.00  0.00     0.017 A 
BRANCH  17  21
HETATM   21  O   UNL     1      42.156  -9.573  11.950  1.00  0.00    -0.351 OA
BRANCH  21  22
HETATM   22  C   UNL     1      41.507  -8.317  12.139  1.00  0.00     0.175 C 
BRANCH  22  23
HETATM   23  C   UNL     1      42.578  -7.259  12.406  1.00  0.00     0.026 C 
BRANCH  23  24
HETATM   24  C   UNL     1      43.202  -7.395  13.798  1.00  0.00    -0.002 C 
HETATM   25  C   UNL     1      42.241  -6.936  14.883  1.00  0.00     0.005 C 
ENDBRANCH  23  24
ENDBRANCH  22  23
ENDBRANCH  21  22
ENDBRANCH  17  21
ENDBRANCH  12  15
ENDBRANCH   9  11
ENDBRANCH   7   9
ENDBRANCH   1   7
BRANCH   3  26
HETATM   26  C   UNL     1      41.808 -14.691   3.372  1.00  0.00     0.183 A 
HETATM   27  O   UNL     1      42.662 -14.940   4.415  1.00  0.00    -0.289 OA
HETATM   28  C   UNL     1      43.129 -16.192   4.166  1.00  0.00     0.106 A 
HETATM   29  C   UNL     1      42.548 -16.635   2.990  1.00  0.00     0.094 A 
HETATM   30  C   UNL     1      44.008 -16.925   4.946  1.00  0.00     0.040 A 
HETATM   31  N   UNL     1      41.755 -15.643   2.456  1.00  0.00    -0.221 NA
HETATM   32  C   UNL     1      42.820 -17.943   2.563  1.00  0.00     0.041 A 
HETATM   33  C   UNL     1      43.663 -18.762   3.351  1.00  0.00    -0.056 A 
HETATM   34  C   UNL     1      44.267 -18.230   4.507  1.00  0.00     0.010 A 
BRANCH  33  35
HETATM   35  C   UNL     1      43.895 -20.188   2.893  1.00  0.00     0.034 C 
HETATM   36  C   UNL     1      43.479 -20.514   1.463  1.00  0.00     0.010 C 
ENDBRANCH  33  35
ENDBRANCH   3  26
BRANCH   4  37
HETATM   37  O   UNL     1      39.020 -14.379   2.572  1.00  0.00    -0.360 OA
HETATM   38  H   UNL     1      39.616 -15.152   2.492  1.00  0.00     0.217 HD
ENDBRANCH   4  37
TORSDOF 11
ENDMDL
MODEL 9
REMARK VINA RESULT:      -7.5      3.425      9.570
REMARK  11 active torsions:
REMARK  status: ('A' for Active; 'I' for Inactive)
REMARK    1  A    between atoms: C_2  and  C_3 
REMARK    2  A    between atoms: C_3  and  C_4 
REMARK    3  A    between atoms: C_4  and  O_5 
REMARK    4  A    between atoms: O_5  and  C_6 
REMARK    5  A    between atoms: C_8  and  C_9 
REMARK       I    between atoms: C_9  and  N_10 
REMARK    6  A    between atoms: N_10  and  C_11 
REMARK    7  A    between atoms: C_11  and  N_12 
REMARK    8  A    between atoms: N_12  and  C_13 
REMARK    9  A    between atoms: C_15  and  C_16 
REMARK   10  A    between atoms: C_23  and  C_24 
REMARK   11  A    between atoms: C_27  and  O_28 
ROOT
HETATM    1  C   UNL     1      44.059 -11.925   7.531  1.00  0.00     0.035 A 
HETATM    2  C   UNL     1      43.550 -10.989   8.434  1.00  0.00     0.048 A 
HETATM    3  C   UNL     1      44.262  -9.829   8.774  1.00  0.00     0.052 A 
HETATM    4  C   UNL     1      45.508  -9.617   8.178  1.00  0.00     0.080 A 
HETATM    5  C   UNL     1      45.989 -10.501   7.209  1.00  0.00     0.040 A 
HETATM    6  C   UNL     1      45.255 -11.644   6.870  1.00  0.00     0.032 A 
ENDROOT
BRANCH   1   7
HETATM    7  N   UNL     1      43.371 -13.121   7.234  1.00  0.00    -0.333 N 
HETATM    8  H   UNL     1      43.521 -13.907   7.867  1.00  0.00     0.168 HD
BRANCH   7   9
HETATM    9  C   UNL     1      42.348 -13.305   6.332  1.00  0.00     0.179 C 
HETATM   10  S   UNL     1      41.129 -12.239   5.901  1.00  0.00    -0.040 SA
BRANCH   9  11
HETATM   11  N   UNL     1      42.317 -14.527   5.700  1.00  0.00    -0.299 N 
HETATM   12  C   UNL     1      43.305 -15.495   5.602  1.00  0.00     0.257 C 
HETATM   13  O   UNL     1      44.209 -15.648   6.412  1.00  0.00    -0.267 OA
HETATM   14  H   UNL     1      41.487 -14.646   5.133  1.00  0.00     0.171 HD
BRANCH  12  15
HETATM   15  C   UNL     1      43.098 -16.440   4.473  1.00  0.00     0.035 A 
HETATM   16  C   UNL     1      42.072 -16.201   3.552  1.00  0.00     0.053 A 
HETATM   17  C   UNL     1      41.933 -17.043   2.448  1.00  0.00     0.069 A 
HETATM   18  C   UNL     1      42.800 -18.130   2.292  1.00  0.00     0.037 A 
HETATM   19  C   UNL     1      43.800 -18.391   3.228  1.00  0.00     0.004 A 
HETATM   20  C   UNL     1      43.951 -17.544   4.322  1.00  0.00     0.017 A 
BRANCH  17  21
HETATM   21  O   UNL     1      41.022 -16.913   1.440  1.00  0.00    -0.351 OA
BRANCH  21  22
HETATM   22  C   UNL     1      40.004 -15.925   1.585  1.00  0.00     0.175 C 
BRANCH  22  23
HETATM   23  C   UNL     1      40.092 -14.967   0.397  1.00  0.00     0.026 C 
BRANCH  23  24
HETATM   24  C   UNL     1      39.958 -13.500   0.816  1.00  0.00    -0.002 C 
HETATM   25  C   UNL     1      40.015 -13.348   2.328  1.00  0.00     0.005 C 
ENDBRANCH  23  24
ENDBRANCH  22  23
ENDBRANCH  21  22
ENDBRANCH  17  21
ENDBRANCH  12  15
ENDBRANCH   9  11
ENDBRANCH   7   9
ENDBRANCH   1   7
BRANCH   3  26
HETATM   26  C   UNL     1      43.699  -8.905   9.747  1.00  0.00     0.183 A 
HETATM   27  O   UNL     1      43.786  -9.293  11.058  1.00  0.00    -0.289 OA
HETATM   28  C   UNL     1      43.281  -8.236  11.747  1.00  0.00     0.106 A 
HETATM   29  C   UNL     1      42.907  -7.270  10.829  1.00  0.00     0.094 A 
HETATM   30  C   UNL     1      43.173  -8.111  13.122  1.00  0.00     0.040 A 
HETATM   31  N   UNL     1      43.118  -7.734   9.549  1.00  0.00    -0.221 NA
HETATM   32  C   UNL     1      42.425  -6.043  11.309  1.00  0.00     0.041 A 
HETATM   33  C   UNL     1      42.349  -5.834  12.706  1.00  0.00    -0.056 A 
HETATM   34  C   UNL     1      42.692  -6.879  13.585  1.00  0.00     0.010 A 
BRANCH  33  35
HETATM   35  C   UNL     1      41.875  -4.480  13.195  1.00  0.00     0.034 C 
HETATM   36  C   UNL     1      41.118  -4.468  14.520  1.00  0.00     0.010 C 
ENDBRANCH  33  35
ENDBRANCH   3  26
BRANCH   4  37
HETATM   37  O   UNL     1      46.309  -8.552   8.493  1.00  0.00    -0.360 OA
HETATM   38  H   UNL     1      46.500  -8.056   7.670  1.00  0.00     0.217 HD
ENDBRANCH   4  37
TORSDOF 11
ENDMDL
MODEL 10
REMARK VINA RESULT:      -7.4      2.877      4.361
REMARK  11 active torsions:
REMARK  status: ('A' for Active; 'I' for Inactive)
REMARK    1  A    between atoms: C_2  and  C_3 
REMARK    2  A    between atoms: C_3  and  C_4 
REMARK    3  A    between atoms: C_4  and  O_5 
REMARK    4  A    between atoms: O_5  and  C_6 
REMARK    5  A    between atoms: C_8  and  C_9 
REMARK       I    between atoms: C_9  and  N_10 
REMARK    6  A    between atoms: N_10  and  C_11 
REMARK    7  A    between atoms: C_11  and  N_12 
REMARK    8  A    between atoms: N_12  and  C_13 
REMARK    9  A    between atoms: C_15  and  C_16 
REMARK   10  A    between atoms: C_23  and  C_24 
REMARK   11  A    between atoms: C_27  and  O_28 
ROOT
HETATM    1  C   UNL     1      38.359 -11.443   1.497  1.00  0.00     0.035 A 
HETATM    2  C   UNL     1      39.267 -12.401   1.957  1.00  0.00     0.048 A 
HETATM    3  C   UNL     1      39.870 -13.322   1.088  1.00  0.00     0.052 A 
HETATM    4  C   UNL     1      39.548 -13.262  -0.270  1.00  0.00     0.080 A 
HETATM    5  C   UNL     1      38.710 -12.256  -0.756  1.00  0.00     0.040 A 
HETATM    6  C   UNL     1      38.131 -11.334   0.125  1.00  0.00     0.032 A 
ENDROOT
BRANCH   1   7
HETATM    7  N   UNL     1      37.706 -10.555   2.378  1.00  0.00    -0.333 N 
HETATM    8  H   UNL     1      36.738 -10.772   2.615  1.00  0.00     0.168 HD
BRANCH   7   9
HETATM    9  C   UNL     1      38.269  -9.558   3.141  1.00  0.00     0.179 C 
HETATM   10  S   UNL     1      37.670  -8.027   3.469  1.00  0.00    -0.040 SA
BRANCH   9  11
HETATM   11  N   UNL     1      39.488  -9.851   3.710  1.00  0.00    -0.299 N 
HETATM   12  C   UNL     1      40.729  -9.279   3.480  1.00  0.00     0.257 C 
HETATM   13  O   UNL     1      40.903  -8.136   3.077  1.00  0.00    -0.267 OA
HETATM   14  H   UNL     1      39.457 -10.690   4.275  1.00  0.00     0.171 HD
BRANCH  12  15
HETATM   15  C   UNL     1      41.866 -10.142   3.896  1.00  0.00     0.035 A 
HETATM   16  C   UNL     1      42.311 -10.105   5.223  1.00  0.00     0.053 A 
HETATM   17  C   UNL     1      43.322 -10.975   5.630  1.00  0.00     0.069 A 
HETATM   18  C   UNL     1      43.899 -11.850   4.703  1.00  0.00     0.037 A 
HETATM   19  C   UNL     1      43.483 -11.862   3.372  1.00  0.00     0.004 A 
HETATM   20  C   UNL     1      42.463 -11.007   2.966  1.00  0.00     0.017 A 
BRANCH  17  21
HETATM   21  O   UNL     1      43.825 -11.099   6.893  1.00  0.00    -0.351 OA
BRANCH  21  22
HETATM   22  C   UNL     1      45.151 -11.605   7.036  1.00  0.00     0.175 C 
BRANCH  22  23
HETATM   23  C   UNL     1      45.952 -10.617   7.885  1.00  0.00     0.026 C 
BRANCH  23  24
HETATM   24  C   UNL     1      45.054  -9.662   8.676  1.00  0.00    -0.002 C 
HETATM   25  C   UNL     1      45.368  -9.711  10.164  1.00  0.00     0.005 C 
ENDBRANCH  23  24
ENDBRANCH  22  23
ENDBRANCH  21  22
ENDBRANCH  17  21
ENDBRANCH  12  15
ENDBRANCH   9  11
ENDBRANCH   7   9
ENDBRANCH   1   7
BRANCH   3  26
HETATM   26  C   UNL     1      40.782 -14.320   1.628  1.00  0.00     0.183 A 
HETATM   27  O   UNL     1      41.011 -14.252   2.977  1.00  0.00    -0.289 OA
HETATM   28  C   UNL     1      41.805 -15.326   3.230  1.00  0.00     0.106 A 
HETATM   29  C   UNL     1      42.025 -15.982   2.032  1.00  0.00     0.094 A 
HETATM   30  C   UNL     1      42.297 -15.728   4.460  1.00  0.00     0.040 A 
HETATM   31  N   UNL     1      41.420 -15.294   1.002  1.00  0.00    -0.221 NA
HETATM   32  C   UNL     1      42.760 -17.177   2.050  1.00  0.00     0.041 A 
HETATM   33  C   UNL     1      43.238 -17.671   3.286  1.00  0.00    -0.056 A 
HETATM   34  C   UNL     1      43.027 -16.924   4.461  1.00  0.00     0.010 A 
BRANCH  33  35
HETATM   35  C   UNL     1      43.983 -18.990   3.282  1.00  0.00     0.034 C 
HETATM   36  C   UNL     1      43.594 -19.982   2.190  1.00  0.00     0.010 C 
ENDBRANCH  33  35
ENDBRANCH   3  26
BRANCH   4  37
HETATM   37  O   UNL     1      40.031 -14.158  -1.187  1.00  0.00    -0.360 OA
HETATM   38  H   UNL     1      40.823 -14.591  -0.807  1.00  0.00     0.217 HD
ENDBRANCH   4  37
TORSDOF 11
ENDMDL
