MODEL 1
REMARK VINA RESULT:      -8.5      0.000      0.000
REMARK  6 active torsions:
REMARK  status: ('A' for Active; 'I' for Inactive)
REMARK    1  A    between atoms: C_2  and  C_4 
REMARK    2  A    between atoms: C_2  and  C_11 
REMARK    3  A    between atoms: C_2  and  O_3 
REMARK    4  A    between atoms: C_11  and  N_12 
REMARK       I    between atoms: N_12  and  C_13 
REMARK    5  A    between atoms: C_13  and  C_14 
REMARK    6  A    between atoms: C_18  and  C_19 
ROOT
HETATM    1  N   UNL     1      43.115 -12.087   4.225  1.00  0.00    -0.352 N 
HETATM    2  C   UNL     1      42.213 -12.708   3.392  1.00  0.00     0.272 C 
HETATM    3  O   UNL     1      41.137 -12.214   3.065  1.00  0.00    -0.266 OA
HETATM    4  H   UNL     1      43.911 -12.652   4.509  1.00  0.00     0.162 HD
ENDROOT
BRANCH   2   5
HETATM    5  C   UNL     1      42.654 -14.033   2.934  1.00  0.00     0.146 A 
HETATM    6  N   UNL     1      43.095 -14.254   1.680  1.00  0.00    -0.169 NA
HETATM    7  N   UNL     1      43.384 -15.566   1.665  1.00  0.00    -0.277 N 
HETATM    8  H   UNL     1      43.712 -15.969   0.795  1.00  0.00     0.189 HD
HETATM    9  C   UNL     1      43.175 -16.213   2.857  1.00  0.00     0.063 A 
HETATM   10  C   UNL     1      42.689 -15.228   3.697  1.00  0.00     0.071 A 
BRANCH   9  11
HETATM   11  C   UNL     1      43.419 -17.640   3.076  1.00  0.00    -0.008 A 
HETATM   12  C   UNL     1      43.983 -18.113   4.272  1.00  0.00     0.017 A 
HETATM   13  C   UNL     1      44.208 -19.480   4.462  1.00  0.00     0.043 A 
HETATM   14  C   UNL     1      43.868 -20.379   3.460  1.00  0.00     0.116 A 
HETATM   15  F   UNL     1      44.085 -21.688   3.645  1.00  0.00    -0.206 F 
HETATM   16  C   UNL     1      43.304 -19.938   2.271  1.00  0.00     0.043 A 
HETATM   17  C   UNL     1      43.080 -18.571   2.080  1.00  0.00     0.017 A 
ENDBRANCH   9  11
ENDBRANCH   2   5
BRANCH   1  18
HETATM   18  C   UNL     1      42.850 -10.821   4.882  1.00  0.00     0.165 C 
BRANCH  18  19
HETATM   19  C   UNL     1      42.455 -10.954   6.384  1.00  0.00     0.099 C 
HETATM   20  C   UNL     1      40.975 -10.580   6.592  1.00  0.00     0.053 C 
BRANCH  19  21
HETATM   21  C   UNL     1      43.432 -10.114   7.233  1.00  0.00    -0.001 A 
HETATM   22  C   UNL     1      44.800 -10.426   7.389  1.00  0.00     0.043 A 
HETATM   23 CL   UNL     1      45.544 -11.806   6.651  1.00  0.00    -0.084 Cl
HETATM   24  C   UNL     1      45.652  -9.612   8.150  1.00  0.00     0.024 A 
HETATM   25  C   UNL     1      45.171  -8.461   8.763  1.00  0.00     0.002 A 
HETATM   26  C   UNL     1      43.836  -8.117   8.612  1.00  0.00     0.001 A 
HETATM   27  C   UNL     1      42.982  -8.927   7.856  1.00  0.00     0.012 A 
ENDBRANCH  19  21
BRANCH  19  28
HETATM   28  O   UNL     1      42.508 -12.340   6.769  1.00  0.00    -0.384 OA
HETATM   29  H   UNL     1      42.302 -12.397   7.718  1.00  0.00     0.211 HD
ENDBRANCH  19  28
ENDBRANCH  18  19
ENDBRANCH   1  18
TORSDOF 6
ENDMDL
MODEL 2
REMARK VINA RESULT:      -8.4      3.699      8.823
REMARK  6 active torsions:
REMARK  status: ('A' for Active; 'I' for Inactive)
REMARK    1  A    between atoms: C_2  and  C_4 
REMARK    2  A    between atoms: C_2  and  C_11 
REMARK    3  A    between atoms: C_2  and  O_3 
REMARK    4  A    between atoms: C_11  and  N_12 
REMARK       I    between atoms: N_12  and  C_13 
REMARK    5  A    between atoms: C_13  and  C_14 
REMARK    6  A    between atoms: C_18  and  C_19 
ROOT
HETATM    1  N   UNL     1      43.192 -13.385   4.211  1.00  0.00    -0.352 N 
HETATM    2  C   UNL     1      43.571 -12.072   4.049  1.00  0.00     0.272 C 
HETATM    3  O   UNL     1      43.465 -11.459   2.991  1.00  0.00    -0.266 OA
HETATM    4  H   UNL     1      43.441 -13.806   5.102  1.00  0.00     0.162 HD
ENDROOT
BRANCH   2   5
HETATM    5  C   UNL     1      44.130 -11.469   5.268  1.00  0.00     0.146 A 
HETATM    6  N   UNL     1      45.449 -11.238   5.420  1.00  0.00    -0.169 NA
HETATM    7  N   UNL     1      45.544 -10.701   6.648  1.00  0.00    -0.277 N 
HETATM    8  H   UNL     1      46.468 -10.469   6.994  1.00  0.00     0.189 HD
HETATM    9  C   UNL     1      44.347 -10.548   7.301  1.00  0.00     0.063 A 
HETATM   10  C   UNL     1      43.411 -11.054   6.418  1.00  0.00     0.071 A 
BRANCH   9  11
HETATM   11  C   UNL     1      44.206  -9.989   8.647  1.00  0.00    -0.008 A 
HETATM   12  C   UNL     1      43.015  -9.371   9.063  1.00  0.00     0.017 A 
HETATM   13  C   UNL     1      42.901  -8.842  10.352  1.00  0.00     0.043 A 
HETATM   14  C   UNL     1      43.973  -8.930  11.230  1.00  0.00     0.116 A 
HETATM   15  F   UNL     1      43.859  -8.423  12.465  1.00  0.00    -0.206 F 
HETATM   16  C   UNL     1      45.158  -9.540  10.846  1.00  0.00     0.043 A 
HETATM   17  C   UNL     1      45.274 -10.069   9.556  1.00  0.00     0.017 A 
ENDBRANCH   9  11
ENDBRANCH   2   5
BRANCH   1  18
HETATM   18  C   UNL     1      42.711 -14.214   3.122  1.00  0.00     0.165 C 
BRANCH  18  19
HETATM   19  C   UNL     1      41.823 -15.411   3.579  1.00  0.00     0.099 C 
HETATM   20  C   UNL     1      41.276 -15.171   4.999  1.00  0.00     0.053 C 
BRANCH  19  21
HETATM   21  C   UNL     1      42.634 -16.716   3.438  1.00  0.00    -0.001 A 
HETATM   22  C   UNL     1      43.607 -17.136   4.371  1.00  0.00     0.043 A 
HETATM   23 CL   UNL     1      44.016 -16.222   5.786  1.00  0.00    -0.084 Cl
HETATM   24  C   UNL     1      44.297 -18.347   4.212  1.00  0.00     0.024 A 
HETATM   25  C   UNL     1      44.028 -19.177   3.130  1.00  0.00     0.002 A 
HETATM   26  C   UNL     1      43.063 -18.802   2.207  1.00  0.00     0.001 A 
HETATM   27  C   UNL     1      42.375 -17.594   2.361  1.00  0.00     0.012 A 
ENDBRANCH  19  21
BRANCH  19  28
HETATM   28  O   UNL     1      40.635 -15.459   2.766  1.00  0.00    -0.384 OA
HETATM   29  H   UNL     1      40.612 -16.322   2.317  1.00  0.00     0.211 HD
ENDBRANCH  19  28
ENDBRANCH  18  19
ENDBRANCH   1  18
TORSDOF 6
ENDMDL
MODEL 3
REMARK VINA RESULT:      -8.4      4.040      9.025
REMARK  6 active torsions:
REMARK  status: ('A' for Active; 'I' for Inactive)
REMARK    1  A    between atoms: C_2  and  C_4 
REMARK    2  A    between atoms: C_2  and  C_11 
REMARK    3  A    between atoms: C_2  and  O_3 
REMARK    4  A    between atoms: C_11  and  N_12 
REMARK       I    between atoms: N_12  and  C_13 
REMARK    5  A    between atoms: C_13  and  C_14 
REMARK    6  A    between atoms: C_18  and  C_19 
ROOT
HETATM    1  N   UNL     1      43.216 -13.098   5.056  1.00  0.00    -0.352 N 
HETATM    2  C   UNL     1      43.968 -11.948   4.980  1.00  0.00     0.272 C 
HETATM    3  O   UNL     1      44.314 -11.430   3.922  1.00  0.00    -0.266 OA
HETATM    4  H   UNL     1      43.099 -13.484   5.990  1.00  0.00     0.162 HD
ENDROOT
BRANCH   2   5
HETATM    5  C   UNL     1      44.330 -11.396   6.294  1.00  0.00     0.146 A 
HETATM    6  N   UNL     1      45.610 -11.270   6.696  1.00  0.00    -0.169 NA
HETATM    7  N   UNL     1      45.511 -10.748   7.930  1.00  0.00    -0.277 N 
HETATM    8  H   UNL     1      46.368 -10.590   8.448  1.00  0.00     0.189 HD
HETATM    9  C   UNL     1      44.227 -10.504   8.349  1.00  0.00     0.063 A 
HETATM   10  C   UNL     1      43.440 -10.931   7.295  1.00  0.00     0.071 A 
BRANCH   9  11
HETATM   11  C   UNL     1      43.877  -9.941   9.654  1.00  0.00    -0.008 A 
HETATM   12  C   UNL     1      43.714  -8.558   9.836  1.00  0.00     0.017 A 
HETATM   13  C   UNL     1      43.380  -8.039  11.091  1.00  0.00     0.043 A 
HETATM   14  C   UNL     1      43.205  -8.900  12.166  1.00  0.00     0.116 A 
HETATM   15  F   UNL     1      42.885  -8.399  13.367  1.00  0.00    -0.206 F 
HETATM   16  C   UNL     1      43.354 -10.270  12.012  1.00  0.00     0.043 A 
HETATM   17  C   UNL     1      43.689 -10.790  10.758  1.00  0.00     0.017 A 
ENDBRANCH   9  11
ENDBRANCH   2   5
BRANCH   1  18
HETATM   18  C   UNL     1      42.831 -13.876   3.894  1.00  0.00     0.165 C 
BRANCH  18  19
HETATM   19  C   UNL     1      41.928 -15.104   4.221  1.00  0.00     0.099 C 
HETATM   20  C   UNL     1      41.470 -15.065   5.691  1.00  0.00     0.053 C 
BRANCH  19  21
HETATM   21  C   UNL     1      42.684 -16.394   3.841  1.00  0.00    -0.001 A 
HETATM   22  C   UNL     1      43.720 -16.952   4.621  1.00  0.00     0.043 A 
HETATM   23 CL   UNL     1      44.276 -16.241   6.101  1.00  0.00    -0.084 Cl
HETATM   24  C   UNL     1      44.357 -18.144   4.244  1.00  0.00     0.024 A 
HETATM   25  C   UNL     1      43.971 -18.819   3.091  1.00  0.00     0.002 A 
HETATM   26  C   UNL     1      42.943 -18.306   2.315  1.00  0.00     0.001 A 
HETATM   27  C   UNL     1      42.307 -17.117   2.686  1.00  0.00     0.012 A 
ENDBRANCH  19  21
BRANCH  19  28
HETATM   28  O   UNL     1      40.696 -14.998   3.483  1.00  0.00    -0.384 OA
HETATM   29  H   UNL     1      40.915 -14.763   2.565  1.00  0.00     0.211 HD
ENDBRANCH  19  28
ENDBRANCH  18  19
ENDBRANCH   1  18
TORSDOF 6
ENDMDL
MODEL 4
REMARK VINA RESULT:      -8.3      2.752      3.687
REMARK  6 active torsions:
REMARK  status: ('A' for Active; 'I' for Inactive)
REMARK    1  A    between atoms: C_2  and  C_4 
REMARK    2  A    between atoms: C_2  and  C_11 
REMARK    3  A    between atoms: C_2  and  O_3 
REMARK    4  A    between atoms: C_11  and  N_12 
REMARK       I    between atoms: N_12  and  C_13 
REMARK    5  A    between atoms: C_13  and  C_14 
REMARK    6  A    between atoms: C_18  and  C_19 
ROOT
HETATM    1  N   UNL     1      43.605 -11.263   7.213  1.00  0.00    -0.352 N 
HETATM    2  C   UNL     1      43.023 -11.741   6.061  1.00  0.00     0.272 C 
HETATM    3  O   UNL     1      42.469 -11.026   5.232  1.00  0.00    -0.266 OA
HETATM    4  H   UNL     1      43.926 -11.970   7.869  1.00  0.00     0.162 HD
ENDROOT
BRANCH   2   5
HETATM    5  C   UNL     1      43.119 -13.202   5.920  1.00  0.00     0.146 A 
HETATM    6  N   UNL     1      43.181 -14.027   6.983  1.00  0.00    -0.169 NA
HETATM    7  N   UNL     1      43.269 -15.252   6.437  1.00  0.00    -0.277 N 
HETATM    8  H   UNL     1      43.357 -16.044   7.062  1.00  0.00     0.189 HD
HETATM    9  C   UNL     1      43.244 -15.271   5.065  1.00  0.00     0.063 A 
HETATM   10  C   UNL     1      43.155 -13.937   4.709  1.00  0.00     0.071 A 
BRANCH   9  11
HETATM   11  C   UNL     1      43.327 -16.487   4.255  1.00  0.00    -0.008 A 
HETATM   12  C   UNL     1      42.668 -16.592   3.019  1.00  0.00     0.017 A 
HETATM   13  C   UNL     1      42.759 -17.762   2.259  1.00  0.00     0.043 A 
HETATM   14  C   UNL     1      43.512 -18.830   2.730  1.00  0.00     0.116 A 
HETATM   15  F   UNL     1      43.598 -19.950   2.000  1.00  0.00    -0.206 F 
HETATM   16  C   UNL     1      44.178 -18.751   3.944  1.00  0.00     0.043 A 
HETATM   17  C   UNL     1      44.085 -17.581   4.705  1.00  0.00     0.017 A 
ENDBRANCH   9  11
ENDBRANCH   2   5
BRANCH   1  18
HETATM   18  C   UNL     1      43.544  -9.870   7.616  1.00  0.00     0.165 C 
BRANCH  18  19
HETATM   19  C   UNL     1      44.633  -9.460   8.654  1.00  0.00     0.099 C 
HETATM   20  C   UNL     1      45.815 -10.447   8.620  1.00  0.00     0.053 C 
BRANCH  19  21
HETATM   21  C   UNL     1      43.974  -9.330  10.043  1.00  0.00    -0.001 A 
HETATM   22  C   UNL     1      43.354  -8.149  10.507  1.00  0.00     0.043 A 
HETATM   23 CL   UNL     1      43.272  -6.695   9.569  1.00  0.00    -0.084 Cl
HETATM   24  C   UNL     1      42.743  -8.092  11.769  1.00  0.00     0.024 A 
HETATM   25  C   UNL     1      42.721  -9.210  12.595  1.00  0.00     0.002 A 
HETATM   26  C   UNL     1      43.304 -10.391  12.159  1.00  0.00     0.001 A 
HETATM   27  C   UNL     1      43.916 -10.451  10.903  1.00  0.00     0.012 A 
ENDBRANCH  19  21
BRANCH  19  28
HETATM   28  O   UNL     1      45.226  -8.212   8.252  1.00  0.00    -0.384 OA
HETATM   29  H   UNL     1      45.022  -8.070   7.312  1.00  0.00     0.211 HD
ENDBRANCH  19  28
ENDBRANCH  18  19
ENDBRANCH   1  18
TORSDOF 6
ENDMDL
MODEL 5
REMARK VINA RESULT:      -8.3      5.109     10.007
REMARK  6 active torsions:
REMARK  status: ('A' for Active; 'I' for Inactive)
REMARK    1  A    between atoms: C_2  and  C_4 
REMARK    2  A    between atoms: C_2  and  C_11 
REMARK    3  A    between atoms: C_2  and  O_3 
REMARK    4  A    between atoms: C_11  and  N_12 
REMARK       I    between atoms: N_12  and  C_13 
REMARK    5  A    between atoms: C_13  and  C_14 
REMARK    6  A    between atoms: C_18  and  C_19 
ROOT
HETATM    1  N   UNL     1      43.741 -12.227   7.554  1.00  0.00    -0.352 N 
HETATM    2  C   UNL     1      44.619 -11.194   7.790  1.00  0.00     0.272 C 
HETATM    3  O   UNL     1      45.706 -11.085   7.230  1.00  0.00    -0.266 OA
HETATM    4  H   UNL     1      42.930 -12.261   8.168  1.00  0.00     0.162 HD
ENDROOT
BRANCH   2   5
HETATM    5  C   UNL     1      44.136 -10.231   8.791  1.00  0.00     0.146 A 
HETATM    6  N   UNL     1      44.008  -8.916   8.524  1.00  0.00    -0.169 NA
HETATM    7  N   UNL     1      43.559  -8.395   9.678  1.00  0.00    -0.277 N 
HETATM    8  H   UNL     1      43.415  -7.393   9.721  1.00  0.00     0.189 HD
HETATM    9  C   UNL     1      43.366  -9.309  10.684  1.00  0.00     0.063 A 
HETATM   10  C   UNL     1      43.747 -10.515  10.124  1.00  0.00     0.071 A 
BRANCH   9  11
HETATM   11  C   UNL     1      42.885  -8.972  12.025  1.00  0.00    -0.008 A 
HETATM   12  C   UNL     1      41.845  -9.693  12.634  1.00  0.00     0.017 A 
HETATM   13  C   UNL     1      41.400  -9.355  13.916  1.00  0.00     0.043 A 
HETATM   14  C   UNL     1      41.993  -8.299  14.594  1.00  0.00     0.116 A 
HETATM   15  F   UNL     1      41.564  -7.978  15.822  1.00  0.00    -0.206 F 
HETATM   16  C   UNL     1      43.026  -7.574  14.017  1.00  0.00     0.043 A 
HETATM   17  C   UNL     1      43.471  -7.910  12.735  1.00  0.00     0.017 A 
ENDBRANCH   9  11
ENDBRANCH   2   5
BRANCH   1  18
HETATM   18  C   UNL     1      44.045 -13.348   6.686  1.00  0.00     0.165 C 
BRANCH  18  19
HETATM   19  C   UNL     1      42.910 -14.414   6.601  1.00  0.00     0.099 C 
HETATM   20  C   UNL     1      42.973 -15.372   7.806  1.00  0.00     0.053 C 
BRANCH  19  21
HETATM   21  C   UNL     1      42.996 -15.126   5.236  1.00  0.00    -0.001 A 
HETATM   22  C   UNL     1      42.822 -14.470   3.998  1.00  0.00     0.043 A 
HETATM   23 CL   UNL     1      42.475 -12.776   3.869  1.00  0.00    -0.084 Cl
HETATM   24  C   UNL     1      42.939 -15.159   2.782  1.00  0.00     0.024 A 
HETATM   25  C   UNL     1      43.246 -16.515   2.765  1.00  0.00     0.002 A 
HETATM   26  C   UNL     1      43.443 -17.184   3.964  1.00  0.00     0.001 A 
HETATM   27  C   UNL     1      43.325 -16.500   5.178  1.00  0.00     0.012 A 
ENDBRANCH  19  21
BRANCH  19  28
HETATM   28  O   UNL     1      41.635 -13.763   6.757  1.00  0.00    -0.384 OA
HETATM   29  H   UNL     1      41.116 -14.269   7.406  1.00  0.00     0.211 HD
ENDBRANCH  19  28
ENDBRANCH  18  19
ENDBRANCH   1  18
TORSDOF 6
ENDMDL
MODEL 6
REMARK VINA RESULT:      -8.0      4.849      9.903
REMARK  6 active torsions:
REMARK  status: ('A' for Active; 'I' for Inactive)
REMARK    1  A    between atoms: C_2  and  C_4 
REMARK    2  A    between atoms: C_2  and  C_11 
REMARK    3  A    between atoms: C_2  and  O_3 
REMARK    4  A    between atoms: C_11  and  N_12 
REMARK       I    between atoms: N_12  and  C_13 
REMARK    5  A    between atoms: C_13  and  C_14 
REMARK    6  A    between atoms: C_18  and  C_19 
ROOT
HETATM    1  N   UNL     1      43.564 -12.753   7.341  1.00  0.00    -0.352 N 
HETATM    2  C   UNL     1      44.565 -11.814   7.246  1.00  0.00     0.272 C 
HETATM    3  O   UNL     1      45.352 -11.750   6.306  1.00  0.00    -0.266 OA
HETATM    4  H   UNL     1      43.059 -12.768   8.224  1.00  0.00     0.162 HD
ENDROOT
BRANCH   2   5
HETATM    5  C   UNL     1      44.614 -10.891   8.391  1.00  0.00     0.146 A 
HETATM    6  N   UNL     1      45.718 -10.737   9.147  1.00  0.00    -0.169 NA
HETATM    7  N   UNL     1      45.352  -9.834  10.073  1.00  0.00    -0.277 N 
HETATM    8  H   UNL     1      46.030  -9.581  10.782  1.00  0.00     0.189 HD
HETATM    9  C   UNL     1      44.066  -9.371   9.945  1.00  0.00     0.063 A 
HETATM   10  C   UNL     1      43.564 -10.059   8.855  1.00  0.00     0.071 A 
BRANCH   9  11
HETATM   11  C   UNL     1      43.451  -8.387  10.838  1.00  0.00    -0.008 A 
HETATM   12  C   UNL     1      43.439  -8.568  12.231  1.00  0.00     0.017 A 
HETATM   13  C   UNL     1      42.846  -7.617  13.067  1.00  0.00     0.043 A 
HETATM   14  C   UNL     1      42.266  -6.482  12.515  1.00  0.00     0.116 A 
HETATM   15  F   UNL     1      41.700  -5.572  13.319  1.00  0.00    -0.206 F 
HETATM   16  C   UNL     1      42.270  -6.276  11.143  1.00  0.00     0.043 A 
HETATM   17  C   UNL     1      42.862  -7.228  10.307  1.00  0.00     0.017 A 
ENDBRANCH   9  11
ENDBRANCH   2   5
BRANCH   1  18
HETATM   18  C   UNL     1      43.389 -13.828   6.383  1.00  0.00     0.165 C 
BRANCH  18  19
HETATM   19  C   UNL     1      42.438 -13.477   5.199  1.00  0.00     0.099 C 
HETATM   20  C   UNL     1      40.981 -13.360   5.687  1.00  0.00     0.053 C 
BRANCH  19  21
HETATM   21  C   UNL     1      42.634 -14.516   4.076  1.00  0.00    -0.001 A 
HETATM   22  C   UNL     1      42.274 -15.876   4.198  1.00  0.00     0.043 A 
HETATM   23 CL   UNL     1      41.576 -16.543   5.637  1.00  0.00    -0.084 Cl
HETATM   24  C   UNL     1      42.448 -16.775   3.135  1.00  0.00     0.024 A 
HETATM   25  C   UNL     1      42.971 -16.344   1.921  1.00  0.00     0.002 A 
HETATM   26  C   UNL     1      43.316 -15.010   1.765  1.00  0.00     0.001 A 
HETATM   27  C   UNL     1      43.146 -14.111   2.822  1.00  0.00     0.012 A 
ENDBRANCH  19  21
BRANCH  19  28
HETATM   28  O   UNL     1      42.739 -12.151   4.725  1.00  0.00    -0.384 OA
HETATM   29  H   UNL     1      42.962 -12.213   3.780  1.00  0.00     0.211 HD
ENDBRANCH  19  28
ENDBRANCH  18  19
ENDBRANCH   1  18
TORSDOF 6
ENDMDL
MODEL 7
REMARK VINA RESULT:      -8.0      2.791      4.234
REMARK  6 active torsions:
REMARK  status: ('A' for Active; 'I' for Inactive)
REMARK    1  A    between atoms: C_2  and  C_4 
REMARK    2  A    between atoms: C_2  and  C_11 
REMARK    3  A    between atoms: C_2  and  O_3 
REMARK    4  A    between atoms: C_11  and  N_12 
REMARK       I    between atoms: N_12  and  C_13 
REMARK    5  A    between atoms: C_13  and  C_14 
REMARK    6  A    between atoms: C_18  and  C_19 
ROOT
HETATM    1  N   UNL     1      42.996 -10.489   7.400  1.00  0.00    -0.352 N 
HETATM    2  C   UNL     1      42.386 -10.301   6.181  1.00  0.00     0.272 C 
HETATM    3  O   UNL     1      41.573  -9.409   5.957  1.00  0.00    -0.266 OA
HETATM    4  H   UNL     1      43.559 -11.332   7.484  1.00  0.00     0.162 HD
ENDROOT
BRANCH   2   5
HETATM    5  C   UNL     1      42.794 -11.283   5.165  1.00  0.00     0.146 A 
HETATM    6  N   UNL     1      43.571 -10.953   4.114  1.00  0.00    -0.169 NA
HETATM    7  N   UNL     1      43.700 -12.105   3.434  1.00  0.00    -0.277 N 
HETATM    8  H   UNL     1      44.232 -12.089   2.572  1.00  0.00     0.189 HD
HETATM    9  C   UNL     1      43.064 -13.180   4.001  1.00  0.00     0.063 A 
HETATM   10  C   UNL     1      42.458 -12.660   5.130  1.00  0.00     0.071 A 
BRANCH   9  11
HETATM   11  C   UNL     1      43.065 -14.531   3.438  1.00  0.00    -0.008 A 
HETATM   12  C   UNL     1      43.261 -14.753   2.065  1.00  0.00     0.017 A 
HETATM   13  C   UNL     1      43.259 -16.052   1.546  1.00  0.00     0.043 A 
HETATM   14  C   UNL     1      43.064 -17.132   2.396  1.00  0.00     0.116 A 
HETATM   15  F   UNL     1      43.063 -18.375   1.895  1.00  0.00    -0.206 F 
HETATM   16  C   UNL     1      42.874 -16.941   3.757  1.00  0.00     0.043 A 
HETATM   17  C   UNL     1      42.875 -15.643   4.276  1.00  0.00     0.017 A 
ENDBRANCH   9  11
ENDBRANCH   2   5
BRANCH   1  18
HETATM   18  C   UNL     1      42.673  -9.709   8.580  1.00  0.00     0.165 C 
BRANCH  18  19
HETATM   19  C   UNL     1      43.899  -8.997   9.228  1.00  0.00     0.099 C 
HETATM   20  C   UNL     1      45.028 -10.007   9.508  1.00  0.00     0.053 C 
BRANCH  19  21
HETATM   21  C   UNL     1      43.427  -8.231  10.481  1.00  0.00    -0.001 A 
HETATM   22  C   UNL     1      42.675  -7.037  10.431  1.00  0.00     0.043 A 
HETATM   23 CL   UNL     1      42.202  -6.281   8.945  1.00  0.00    -0.084 Cl
HETATM   24  C   UNL     1      42.245  -6.395  11.602  1.00  0.00     0.024 A 
HETATM   25  C   UNL     1      42.540  -6.929  12.851  1.00  0.00     0.002 A 
HETATM   26  C   UNL     1      43.260  -8.112  12.933  1.00  0.00     0.001 A 
HETATM   27  C   UNL     1      43.692  -8.754  11.768  1.00  0.00     0.012 A 
ENDBRANCH  19  21
BRANCH  19  28
HETATM   28  O   UNL     1      44.486  -8.096   8.271  1.00  0.00    -0.384 OA
HETATM   29  H   UNL     1      45.003  -7.432   8.759  1.00  0.00     0.211 HD
ENDBRANCH  19  28
ENDBRANCH  18  19
ENDBRANCH   1  18
TORSDOF 6
ENDMDL
MODEL 8
REMARK VINA RESULT:      -7.9      5.558     10.356
REMARK  6 active torsions:
REMARK  status: ('A' for Active; 'I' for Inactive)
REMARK    1  A    between atoms: C_2  and  C_4 
REMARK    2  A    between atoms: C_2  and  C_11 
REMARK    3  A    between atoms: C_2  and  O_3 
REMARK    4  A    between atoms: C_11  and  N_12 
REMARK       I    between atoms: N_12  and  C_13 
REMARK    5  A    between atoms: C_13  and  C_14 
REMARK    6  A    between atoms: C_18  and  C_19 
ROOT
HETATM    1  N   UNL     1      43.886 -11.568   7.879  1.00  0.00    -0.352 N 
HETATM    2  C   UNL     1      44.473 -10.533   8.571  1.00  0.00     0.272 C 
HETATM    3  O   UNL     1      45.317  -9.784   8.087  1.00  0.00    -0.266 OA
HETATM    4  H   UNL     1      43.292 -12.182   8.431  1.00  0.00     0.162 HD
ENDROOT
BRANCH   2   5
HETATM    5  C   UNL     1      44.001 -10.413   9.958  1.00  0.00     0.146 A 
HETATM    6  N   UNL     1      43.918 -11.473  10.787  1.00  0.00    -0.169 NA
HETATM    7  N   UNL     1      43.443 -10.953  11.931  1.00  0.00    -0.277 N 
HETATM    8  H   UNL     1      43.269 -11.585  12.703  1.00  0.00     0.189 HD
HETATM    9  C   UNL     1      43.231  -9.597  11.900  1.00  0.00     0.063 A 
HETATM   10  C   UNL     1      43.582  -9.228  10.614  1.00  0.00     0.071 A 
BRANCH   9  11
HETATM   11  C   UNL     1      42.717  -8.816  13.026  1.00  0.00    -0.008 A 
HETATM   12  C   UNL     1      41.570  -9.214  13.732  1.00  0.00     0.017 A 
HETATM   13  C   UNL     1      41.094  -8.454  14.805  1.00  0.00     0.043 A 
HETATM   14  C   UNL     1      41.764  -7.296  15.178  1.00  0.00     0.116 A 
HETATM   15  F   UNL     1      41.305  -6.571  16.207  1.00  0.00    -0.206 F 
HETATM   16  C   UNL     1      42.902  -6.883  14.501  1.00  0.00     0.043 A 
HETATM   17  C   UNL     1      43.378  -7.642  13.427  1.00  0.00     0.017 A 
ENDBRANCH   9  11
ENDBRANCH   2   5
BRANCH   1  18
HETATM   18  C   UNL     1      44.270 -11.943   6.531  1.00  0.00     0.165 C 
BRANCH  18  19
HETATM   19  C   UNL     1      43.132 -11.779   5.478  1.00  0.00     0.099 C 
HETATM   20  C   UNL     1      41.787 -11.490   6.171  1.00  0.00     0.053 C 
BRANCH  19  21
HETATM   21  C   UNL     1      43.108 -13.027   4.572  1.00  0.00    -0.001 A 
HETATM   22  C   UNL     1      42.882 -14.336   5.051  1.00  0.00     0.043 A 
HETATM   23 CL   UNL     1      42.616 -14.697   6.725  1.00  0.00    -0.084 Cl
HETATM   24  C   UNL     1      42.841 -15.436   4.180  1.00  0.00     0.024 A 
HETATM   25  C   UNL     1      43.010 -15.261   2.811  1.00  0.00     0.002 A 
HETATM   26  C   UNL     1      43.214 -13.984   2.308  1.00  0.00     0.001 A 
HETATM   27  C   UNL     1      43.257 -12.886   3.173  1.00  0.00     0.012 A 
ENDBRANCH  19  21
BRANCH  19  28
HETATM   28  O   UNL     1      43.371 -10.590   4.701  1.00  0.00    -0.384 OA
HETATM   29  H   UNL     1      42.509 -10.226   4.435  1.00  0.00     0.211 HD
ENDBRANCH  19  28
ENDBRANCH  18  19
ENDBRANCH   1  18
TORSDOF 6
ENDMDL
MODEL 9
REMARK VINA RESULT:      -7.6      2.790      3.572
REMARK  6 active torsions:
REMARK  status: ('A' for Active; 'I' for Inactive)
REMARK    1  A    between atoms: C_2  and  C_4 
REMARK    2  A    between atoms: C_2  and  C_11 
REMARK    3  A    between atoms: C_2  and  O_3 
REMARK    4  A    between atoms: C_11  and  N_12 
REMARK       I    between atoms: N_12  and  C_13 
REMARK    5  A    between atoms: C_13  and  C_14 
REMARK    6  A    between atoms: C_18  and  C_19 
ROOT
HETATM    1  N   UNL     1      42.632 -11.044   7.025  1.00  0.00    -0.352 N 
HETATM    2  C   UNL     1      42.452 -11.325   5.691  1.00  0.00     0.272 C 
HETATM    3  O   UNL     1      42.456 -10.471   4.809  1.00  0.00    -0.266 OA
HETATM    4  H   UNL     1      42.490 -11.825   7.661  1.00  0.00     0.162 HD
ENDROOT
BRANCH   2   5
HETATM    5  C   UNL     1      42.240 -12.754   5.416  1.00  0.00     0.146 A 
HETATM    6  N   UNL     1      41.156 -13.421   5.858  1.00  0.00    -0.169 NA
HETATM    7  N   UNL     1      41.345 -14.676   5.414  1.00  0.00    -0.277 N 
HETATM    8  H   UNL     1      40.653 -15.374   5.657  1.00  0.00     0.189 HD
HETATM    9  C   UNL     1      42.492 -14.858   4.682  1.00  0.00     0.063 A 
HETATM   10  C   UNL     1      43.095 -13.614   4.681  1.00  0.00     0.071 A 
BRANCH   9  11
HETATM   11  C   UNL     1      42.905 -16.136   4.100  1.00  0.00    -0.008 A 
HETATM   12  C   UNL     1      42.476 -16.533   2.822  1.00  0.00     0.017 A 
HETATM   13  C   UNL     1      42.881 -17.758   2.284  1.00  0.00     0.043 A 
HETATM   14  C   UNL     1      43.718 -18.589   3.017  1.00  0.00     0.116 A 
HETATM   15  F   UNL     1      44.105 -19.762   2.498  1.00  0.00    -0.206 F 
HETATM   16  C   UNL     1      44.161 -18.218   4.279  1.00  0.00     0.043 A 
HETATM   17  C   UNL     1      43.756 -16.993   4.818  1.00  0.00     0.017 A 
ENDBRANCH   9  11
ENDBRANCH   2   5
BRANCH   1  18
HETATM   18  C   UNL     1      42.755  -9.695   7.545  1.00  0.00     0.165 C 
BRANCH  18  19
HETATM   19  C   UNL     1      41.551  -9.242   8.427  1.00  0.00     0.099 C 
HETATM   20  C   UNL     1      40.898  -7.974   7.843  1.00  0.00     0.053 C 
BRANCH  19  21
HETATM   21  C   UNL     1      42.034  -9.076   9.882  1.00  0.00    -0.001 A 
HETATM   22  C   UNL     1      41.165  -9.038  10.995  1.00  0.00     0.043 A 
HETATM   23 CL   UNL     1      39.442  -9.159  10.852  1.00  0.00    -0.084 Cl
HETATM   24  C   UNL     1      41.658  -8.914  12.303  1.00  0.00     0.024 A 
HETATM   25  C   UNL     1      43.026  -8.840  12.539  1.00  0.00     0.002 A 
HETATM   26  C   UNL     1      43.906  -8.896  11.468  1.00  0.00     0.001 A 
HETATM   27  C   UNL     1      43.418  -9.016  10.163  1.00  0.00     0.012 A 
ENDBRANCH  19  21
BRANCH  19  28
HETATM   28  O   UNL     1      40.505 -10.227   8.345  1.00  0.00    -0.384 OA
HETATM   29  H   UNL     1      40.302 -10.374   7.405  1.00  0.00     0.211 HD
ENDBRANCH  19  28
ENDBRANCH  18  19
ENDBRANCH   1  18
TORSDOF 6
ENDMDL
MODEL 10
REMARK VINA RESULT:      -7.6      4.774      6.912
REMARK  6 active torsions:
REMARK  status: ('A' for Active; 'I' for Inactive)
REMARK    1  A    between atoms: C_2  and  C_4 
REMARK    2  A    between atoms: C_2  and  C_11 
REMARK    3  A    between atoms: C_2  and  O_3 
REMARK    4  A    between atoms: C_11  and  N_12 
REMARK       I    between atoms: N_12  and  C_13 
REMARK    5  A    between atoms: C_13  and  C_14 
REMARK    6  A    between atoms: C_18  and  C_19 
ROOT
HETATM    1  N   UNL     1      43.440 -10.831  10.588  1.00  0.00    -0.352 N 
HETATM    2  C   UNL     1      44.553 -10.334   9.950  1.00  0.00     0.272 C 
HETATM    3  O   UNL     1      45.356  -9.570  10.478  1.00  0.00    -0.266 OA
HETATM    4  H   UNL     1      42.797 -11.358  10.002  1.00  0.00     0.162 HD
ENDROOT
BRANCH   2   5
HETATM    5  C   UNL     1      44.688 -10.798   8.561  1.00  0.00     0.146 A 
HETATM    6  N   UNL     1      45.855 -10.737   7.890  1.00  0.00    -0.169 NA
HETATM    7  N   UNL     1      45.557 -11.236   6.678  1.00  0.00    -0.277 N 
HETATM    8  H   UNL     1      46.293 -11.262   5.982  1.00  0.00     0.189 HD
HETATM    9  C   UNL     1      44.255 -11.645   6.530  1.00  0.00     0.063 A 
HETATM   10  C   UNL     1      43.668 -11.357   7.749  1.00  0.00     0.071 A 
BRANCH   9  11
HETATM   11  C   UNL     1      43.705 -12.218   5.301  1.00  0.00    -0.008 A 
HETATM   12  C   UNL     1      43.193 -13.526   5.267  1.00  0.00     0.017 A 
HETATM   13  C   UNL     1      42.672 -14.057   4.083  1.00  0.00     0.043 A 
HETATM   14  C   UNL     1      42.657 -13.282   2.931  1.00  0.00     0.116 A 
HETATM   15  F   UNL     1      42.156 -13.793   1.798  1.00  0.00    -0.206 F 
HETATM   16  C   UNL     1      43.150 -11.985   2.939  1.00  0.00     0.043 A 
HETATM   17  C   UNL     1      43.672 -11.455   4.122  1.00  0.00     0.017 A 
ENDBRANCH   9  11
ENDBRANCH   2   5
BRANCH   1  18
HETATM   18  C   UNL     1      43.044 -10.431  11.926  1.00  0.00     0.165 C 
BRANCH  18  19
HETATM   19  C   UNL     1      41.648  -9.742  11.997  1.00  0.00     0.099 C 
HETATM   20  C   UNL     1      41.122  -9.432  10.582  1.00  0.00     0.053 C 
BRANCH  19  21
HETATM   21  C   UNL     1      41.750  -8.500  12.906  1.00  0.00    -0.001 A 
HETATM   22  C   UNL     1      40.634  -7.746  13.329  1.00  0.00     0.043 A 
HETATM   23 CL   UNL     1      39.008  -8.123  12.862  1.00  0.00    -0.084 Cl
HETATM   24  C   UNL     1      40.779  -6.640  14.180  1.00  0.00     0.024 A 
HETATM   25  C   UNL     1      42.035  -6.264  14.643  1.00  0.00     0.002 A 
HETATM   26  C   UNL     1      43.149  -6.997  14.261  1.00  0.00     0.001 A 
HETATM   27  C   UNL     1      43.008  -8.098  13.411  1.00  0.00     0.012 A 
ENDBRANCH  19  21
BRANCH  19  28
HETATM   28  O   UNL     1      40.683 -10.676  12.516  1.00  0.00    -0.384 OA
HETATM   29  H   UNL     1      40.529 -10.460  13.452  1.00  0.00     0.211 HD
ENDBRANCH  19  28
ENDBRANCH  18  19
ENDBRANCH   1  18
TORSDOF 6
ENDMDL
