MODEL 1
REMARK VINA RESULT:      -8.3      0.000      0.000
REMARK  3 active torsions:
REMARK  status: ('A' for Active; 'I' for Inactive)
REMARK    1  A    between atoms: C_6  and  N_7 
REMARK       I    between atoms: N_7  and  C_8 
REMARK    2  A    between atoms: C_8  and  C_9 
REMARK    3  A    between atoms: C_9  and  C_10 
ROOT
HETATM    1  C   UNL     1      41.009 -15.555   3.808  1.00  0.00     0.286 C 
HETATM    2  N   UNL     1      41.936 -15.603   2.598  1.00  0.00    -0.056 N 
HETATM    3  H   UNL     1      42.861 -15.275   2.952  1.00  0.00     0.278 HD
HETATM    4  H   UNL     1      42.085 -16.567   2.280  1.00  0.00     0.278 HD
HETATM    5  C   UNL     1      41.540 -14.705   1.461  1.00  0.00     0.209 C 
HETATM    6  C   UNL     1      41.328 -13.262   1.987  1.00  0.00     0.115 C 
HETATM    7  N   UNL     1      40.492 -13.206   3.185  1.00  0.00    -0.353 N 
HETATM    8  C   UNL     1      40.592 -14.125   4.203  1.00  0.00     0.249 C 
HETATM    9  O   UNL     1      40.254 -13.820   5.342  1.00  0.00    -0.271 OA
HETATM   10  C   UNL     1      40.315 -15.279   0.744  1.00  0.00     0.035 C 
HETATM   11  C   UNL     1      39.832 -14.338  -0.355  1.00  0.00     0.002 C 
HETATM   12  C   UNL     1      39.545 -12.945   0.195  1.00  0.00     0.002 C 
HETATM   13  C   UNL     1      40.771 -12.350   0.889  1.00  0.00     0.027 C 
HETATM   14  H   UNL     1      40.238 -12.283   3.535  1.00  0.00     0.163 HD
ENDROOT
BRANCH   1  15
HETATM   15  C   UNL     1      41.599 -16.321   5.004  1.00  0.00     0.146 C 
BRANCH  15  16
HETATM   16  C   UNL     1      43.082 -16.093   5.134  1.00  0.00     0.224 C 
HETATM   17  N   UNL     1      44.003 -17.042   4.831  1.00  0.00    -0.327 N 
HETATM   18  H   UNL     1      44.947 -16.703   5.000  1.00  0.00     0.169 HD
HETATM   19  O   UNL     1      43.478 -14.964   5.460  1.00  0.00    -0.273 OA
BRANCH  17  20
HETATM   20  C   UNL     1      43.936 -18.361   4.335  1.00  0.00     0.037 A 
HETATM   21  C   UNL     1      43.789 -18.730   3.000  1.00  0.00     0.071 A 
HETATM   22  C   UNL     1      43.739 -20.081   2.647  1.00  0.00     0.118 A 
HETATM   23  C   UNL     1      43.843 -21.085   3.597  1.00  0.00     0.042 A 
HETATM   24  F   UNL     1      43.590 -20.407   1.356  1.00  0.00    -0.206 F 
HETATM   25  C   UNL     1      44.002 -20.735   4.931  1.00  0.00     0.005 A 
HETATM   26  C   UNL     1      44.047 -19.384   5.294  1.00  0.00     0.029 A 
ENDBRANCH  17  20
ENDBRANCH  15  16
ENDBRANCH   1  15
TORSDOF 3
ENDMDL
MODEL 2
REMARK VINA RESULT:      -8.3      1.734      2.393
REMARK  3 active torsions:
REMARK  status: ('A' for Active; 'I' for Inactive)
REMARK    1  A    between atoms: C_6  and  N_7 
REMARK       I    between atoms: N_7  and  C_8 
REMARK    2  A    between atoms: C_8  and  C_9 
REMARK    3  A    between atoms: C_9  and  C_10 
ROOT
HETATM    1  C   UNL     1      41.635 -15.844   5.512  1.00  0.00     0.286 C 
HETATM    2  N   UNL     1      42.448 -14.725   4.869  1.00  0.00    -0.056 N 
HETATM    3  H   UNL     1      42.907 -14.232   5.665  1.00  0.00     0.278 HD
HETATM    4  H   UNL     1      43.210 -15.101   4.295  1.00  0.00     0.278 HD
HETATM    5  C   UNL     1      41.639 -13.710   4.111  1.00  0.00     0.209 C 
HETATM    6  C   UNL     1      40.502 -13.171   5.015  1.00  0.00     0.115 C 
HETATM    7  N   UNL     1      39.753 -14.231   5.689  1.00  0.00    -0.353 N 
HETATM    8  C   UNL     1      40.359 -15.345   6.219  1.00  0.00     0.249 C 
HETATM    9  O   UNL     1      39.828 -15.954   7.142  1.00  0.00    -0.271 OA
HETATM   10  C   UNL     1      41.138 -14.317   2.798  1.00  0.00     0.035 C 
HETATM   11  C   UNL     1      40.234 -13.341   2.052  1.00  0.00     0.002 C 
HETATM   12  C   UNL     1      39.071 -12.885   2.927  1.00  0.00     0.002 C 
HETATM   13  C   UNL     1      39.560 -12.252   4.230  1.00  0.00     0.027 C 
HETATM   14  H   UNL     1      38.935 -13.954   6.230  1.00  0.00     0.163 HD
ENDROOT
BRANCH   1  15
HETATM   15  C   UNL     1      42.498 -16.705   6.448  1.00  0.00     0.146 C 
BRANCH  15  16
HETATM   16  C   UNL     1      43.965 -16.569   6.134  1.00  0.00     0.224 C 
HETATM   17  N   UNL     1      44.589 -17.313   5.186  1.00  0.00    -0.327 N 
HETATM   18  H   UNL     1      45.579 -17.087   5.136  1.00  0.00     0.169 HD
HETATM   19  O   UNL     1      44.611 -15.684   6.715  1.00  0.00    -0.273 OA
BRANCH  17  20
HETATM   20  C   UNL     1      44.169 -18.302   4.273  1.00  0.00     0.037 A 
HETATM   21  C   UNL     1      44.300 -19.679   4.436  1.00  0.00     0.071 A 
HETATM   22  C   UNL     1      43.837 -20.550   3.446  1.00  0.00     0.118 A 
HETATM   23  C   UNL     1      43.230 -20.082   2.292  1.00  0.00     0.042 A 
HETATM   24  F   UNL     1      43.981 -21.870   3.627  1.00  0.00    -0.206 F 
HETATM   25  C   UNL     1      43.081 -18.712   2.118  1.00  0.00     0.005 A 
HETATM   26  C   UNL     1      43.547 -17.833   3.101  1.00  0.00     0.029 A 
ENDBRANCH  17  20
ENDBRANCH  15  16
ENDBRANCH   1  15
TORSDOF 3
ENDMDL
MODEL 3
REMARK VINA RESULT:      -8.2      1.539      1.955
REMARK  3 active torsions:
REMARK  status: ('A' for Active; 'I' for Inactive)
REMARK    1  A    between atoms: C_6  and  N_7 
REMARK       I    between atoms: N_7  and  C_8 
REMARK    2  A    between atoms: C_8  and  C_9 
REMARK    3  A    between atoms: C_9  and  C_10 
ROOT
HETATM    1  C   UNL     1      40.254 -15.076   1.907  1.00  0.00     0.286 C 
HETATM    2  N   UNL     1      41.128 -14.953   0.662  1.00  0.00    -0.056 N 
HETATM    3  H   UNL     1      41.983 -14.447   0.981  1.00  0.00     0.278 HD
HETATM    4  H   UNL     1      41.450 -15.872   0.340  1.00  0.00     0.278 HD
HETATM    5  C   UNL     1      40.522 -14.160  -0.461  1.00  0.00     0.209 C 
HETATM    6  C   UNL     1      40.052 -12.782   0.070  1.00  0.00     0.115 C 
HETATM    7  N   UNL     1      39.265 -12.878   1.299  1.00  0.00    -0.353 N 
HETATM    8  C   UNL     1      39.579 -13.751   2.314  1.00  0.00     0.249 C 
HETATM    9  O   UNL     1      39.229 -13.508   3.464  1.00  0.00    -0.271 OA
HETATM   10  C   UNL     1      39.408 -14.969  -1.130  1.00  0.00     0.035 C 
HETATM   11  C   UNL     1      38.710 -14.151  -2.212  1.00  0.00     0.002 C 
HETATM   12  C   UNL     1      38.177 -12.835  -1.655  1.00  0.00     0.002 C 
HETATM   13  C   UNL     1      39.287 -12.006  -1.008  1.00  0.00     0.027 C 
HETATM   14  H   UNL     1      38.848 -12.020   1.656  1.00  0.00     0.163 HD
ENDROOT
BRANCH   1  15
HETATM   15  C   UNL     1      41.025 -15.700   3.080  1.00  0.00     0.146 C 
BRANCH  15  16
HETATM   16  C   UNL     1      42.473 -15.289   3.076  1.00  0.00     0.224 C 
HETATM   17  N   UNL     1      43.493 -16.181   3.150  1.00  0.00    -0.327 N 
HETATM   18  H   UNL     1      44.394 -15.708   3.151  1.00  0.00     0.169 HD
HETATM   19  O   UNL     1      42.745 -14.089   2.922  1.00  0.00    -0.273 OA
BRANCH  17  20
HETATM   20  C   UNL     1      43.573 -17.588   3.216  1.00  0.00     0.037 A 
HETATM   21  C   UNL     1      43.248 -18.477   2.194  1.00  0.00     0.071 A 
HETATM   22  C   UNL     1      43.376 -19.854   2.396  1.00  0.00     0.118 A 
HETATM   23  C   UNL     1      43.832 -20.374   3.597  1.00  0.00     0.042 A 
HETATM   24  F   UNL     1      43.051 -20.686   1.398  1.00  0.00    -0.206 F 
HETATM   25  C   UNL     1      44.172 -19.501   4.622  1.00  0.00     0.005 A 
HETATM   26  C   UNL     1      44.042 -18.121   4.431  1.00  0.00     0.029 A 
ENDBRANCH  17  20
ENDBRANCH  15  16
ENDBRANCH   1  15
TORSDOF 3
ENDMDL
MODEL 4
REMARK VINA RESULT:      -8.0      1.314      2.030
REMARK  3 active torsions:
REMARK  status: ('A' for Active; 'I' for Inactive)
REMARK    1  A    between atoms: C_6  and  N_7 
REMARK       I    between atoms: N_7  and  C_8 
REMARK    2  A    between atoms: C_8  and  C_9 
REMARK    3  A    between atoms: C_9  and  C_10 
ROOT
HETATM    1  C   UNL     1      41.397 -15.075   3.027  1.00  0.00     0.286 C 
HETATM    2  N   UNL     1      39.906 -14.789   2.875  1.00  0.00    -0.056 N 
HETATM    3  H   UNL     1      39.471 -15.718   2.686  1.00  0.00     0.278 HD
HETATM    4  H   UNL     1      39.497 -14.462   3.758  1.00  0.00     0.278 HD
HETATM    5  C   UNL     1      39.549 -13.878   1.735  1.00  0.00     0.209 C 
HETATM    6  C   UNL     1      40.186 -14.410   0.425  1.00  0.00     0.115 C 
HETATM    7  N   UNL     1      41.601 -14.748   0.572  1.00  0.00    -0.353 N 
HETATM    8  C   UNL     1      42.102 -15.373   1.689  1.00  0.00     0.249 C 
HETATM    9  O   UNL     1      43.127 -16.042   1.611  1.00  0.00    -0.271 OA
HETATM   10  C   UNL     1      39.952 -12.440   2.069  1.00  0.00     0.035 C 
HETATM   11  C   UNL     1      39.689 -11.508   0.890  1.00  0.00     0.002 C 
HETATM   12  C   UNL     1      40.393 -11.998  -0.371  1.00  0.00     0.002 C 
HETATM   13  C   UNL     1      39.977 -13.425  -0.730  1.00  0.00     0.027 C 
HETATM   14  H   UNL     1      42.106 -15.020  -0.270  1.00  0.00     0.163 HD
ENDROOT
BRANCH   1  15
HETATM   15  C   UNL     1      41.659 -16.180   4.062  1.00  0.00     0.146 C 
BRANCH  15  16
HETATM   16  C   UNL     1      43.027 -16.053   4.678  1.00  0.00     0.224 C 
HETATM   17  N   UNL     1      43.907 -17.084   4.740  1.00  0.00    -0.327 N 
HETATM   18  H   UNL     1      44.766 -16.804   5.207  1.00  0.00     0.169 HD
HETATM   19  O   UNL     1      43.392 -14.937   5.077  1.00  0.00    -0.273 OA
BRANCH  17  20
HETATM   20  C   UNL     1      43.891 -18.424   4.301  1.00  0.00     0.037 A 
HETATM   21  C   UNL     1      43.797 -18.854   2.979  1.00  0.00     0.071 A 
HETATM   22  C   UNL     1      43.793 -20.220   2.684  1.00  0.00     0.118 A 
HETATM   23  C   UNL     1      43.893 -21.179   3.680  1.00  0.00     0.042 A 
HETATM   24  F   UNL     1      43.696 -20.604   1.405  1.00  0.00    -0.206 F 
HETATM   25  C   UNL     1      44.000 -20.767   5.002  1.00  0.00     0.005 A 
HETATM   26  C   UNL     1      43.998 -19.402   5.307  1.00  0.00     0.029 A 
ENDBRANCH  17  20
ENDBRANCH  15  16
ENDBRANCH   1  15
TORSDOF 3
ENDMDL
MODEL 5
REMARK VINA RESULT:      -7.8      3.152      4.689
REMARK  3 active torsions:
REMARK  status: ('A' for Active; 'I' for Inactive)
REMARK    1  A    between atoms: C_6  and  N_7 
REMARK       I    between atoms: N_7  and  C_8 
REMARK    2  A    between atoms: C_8  and  C_9 
REMARK    3  A    between atoms: C_9  and  C_10 
ROOT
HETATM    1  C   UNL     1      43.177 -12.938   3.746  1.00  0.00     0.286 C 
HETATM    2  N   UNL     1      42.641 -13.455   5.078  1.00  0.00    -0.056 N 
HETATM    3  H   UNL     1      41.617 -13.586   4.925  1.00  0.00     0.278 HD
HETATM    4  H   UNL     1      43.013 -14.386   5.294  1.00  0.00     0.278 HD
HETATM    5  C   UNL     1      42.811 -12.513   6.237  1.00  0.00     0.209 C 
HETATM    6  C   UNL     1      42.235 -11.123   5.866  1.00  0.00     0.115 C 
HETATM    7  N   UNL     1      42.690 -10.642   4.563  1.00  0.00    -0.353 N 
HETATM    8  C   UNL     1      42.812 -11.467   3.469  1.00  0.00     0.249 C 
HETATM    9  O   UNL     1      42.735 -11.001   2.337  1.00  0.00    -0.271 OA
HETATM   10  C   UNL     1      44.280 -12.471   6.664  1.00  0.00     0.035 C 
HETATM   11  C   UNL     1      44.499 -11.451   7.776  1.00  0.00     0.002 C 
HETATM   12  C   UNL     1      44.005 -10.068   7.364  1.00  0.00     0.002 C 
HETATM   13  C   UNL     1      42.530 -10.093   6.962  1.00  0.00     0.027 C 
HETATM   14  H   UNL     1      42.422  -9.697   4.293  1.00  0.00     0.163 HD
ENDROOT
BRANCH   1  15
HETATM   15  C   UNL     1      42.767 -13.851   2.579  1.00  0.00     0.146 C 
BRANCH  15  16
HETATM   16  C   UNL     1      41.477 -14.572   2.863  1.00  0.00     0.224 C 
HETATM   17  N   UNL     1      41.421 -15.895   3.161  1.00  0.00    -0.327 N 
HETATM   18  H   UNL     1      40.461 -16.198   3.302  1.00  0.00     0.169 HD
HETATM   19  O   UNL     1      40.428 -13.911   2.900  1.00  0.00    -0.273 OA
BRANCH  17  20
HETATM   20  C   UNL     1      42.385 -16.913   3.321  1.00  0.00     0.037 A 
HETATM   21  C   UNL     1      42.668 -17.926   2.408  1.00  0.00     0.071 A 
HETATM   22  C   UNL     1      43.655 -18.873   2.695  1.00  0.00     0.118 A 
HETATM   23  C   UNL     1      44.380 -18.832   3.875  1.00  0.00     0.042 A 
HETATM   24  F   UNL     1      43.903 -19.839   1.801  1.00  0.00    -0.206 F 
HETATM   25  C   UNL     1      44.118 -17.822   4.792  1.00  0.00     0.005 A 
HETATM   26  C   UNL     1      43.128 -16.872   4.515  1.00  0.00     0.029 A 
ENDBRANCH  17  20
ENDBRANCH  15  16
ENDBRANCH   1  15
TORSDOF 3
ENDMDL
MODEL 6
REMARK VINA RESULT:      -7.6      2.942      4.203
REMARK  3 active torsions:
REMARK  status: ('A' for Active; 'I' for Inactive)
REMARK    1  A    between atoms: C_6  and  N_7 
REMARK       I    between atoms: N_7  and  C_8 
REMARK    2  A    between atoms: C_8  and  C_9 
REMARK    3  A    between atoms: C_9  and  C_10 
ROOT
HETATM    1  C   UNL     1      39.928 -12.903   1.436  1.00  0.00     0.286 C 
HETATM    2  N   UNL     1      40.855 -12.910   0.224  1.00  0.00    -0.056 N 
HETATM    3  H   UNL     1      41.315 -11.974   0.231  1.00  0.00     0.278 HD
HETATM    4  H   UNL     1      41.611 -13.594   0.337  1.00  0.00     0.278 HD
HETATM    5  C   UNL     1      40.164 -13.068  -1.101  1.00  0.00     0.209 C 
HETATM    6  C   UNL     1      39.033 -12.016  -1.227  1.00  0.00     0.115 C 
HETATM    7  N   UNL     1      38.173 -11.954  -0.046  1.00  0.00    -0.353 N 
HETATM    8  C   UNL     1      38.665 -12.043   1.235  1.00  0.00     0.249 C 
HETATM    9  O   UNL     1      38.046 -11.542   2.168  1.00  0.00    -0.271 OA
HETATM   10  C   UNL     1      39.678 -14.510  -1.267  1.00  0.00     0.035 C 
HETATM   11  C   UNL     1      38.888 -14.676  -2.561  1.00  0.00     0.002 C 
HETATM   12  C   UNL     1      37.726 -13.691  -2.632  1.00  0.00     0.002 C 
HETATM   13  C   UNL     1      38.204 -12.246  -2.495  1.00  0.00     0.027 C 
HETATM   14  H   UNL     1      37.356 -11.347  -0.094  1.00  0.00     0.163 HD
ENDROOT
BRANCH   1  15
HETATM   15  C   UNL     1      40.678 -12.515   2.720  1.00  0.00     0.146 C 
BRANCH  15  16
HETATM   16  C   UNL     1      42.134 -12.239   2.453  1.00  0.00     0.224 C 
HETATM   17  N   UNL     1      43.095 -13.192   2.548  1.00  0.00    -0.327 N 
HETATM   18  H   UNL     1      44.014 -12.806   2.347  1.00  0.00     0.169 HD
HETATM   19  O   UNL     1      42.456 -11.109   2.055  1.00  0.00    -0.273 OA
BRANCH  17  20
HETATM   20  C   UNL     1      43.093 -14.570   2.850  1.00  0.00     0.037 A 
HETATM   21  C   UNL     1      42.933 -15.133   4.114  1.00  0.00     0.071 A 
HETATM   22  C   UNL     1      42.950 -16.521   4.270  1.00  0.00     0.118 A 
HETATM   23  C   UNL     1      43.113 -17.373   3.189  1.00  0.00     0.042 A 
HETATM   24  F   UNL     1      42.800 -17.036   5.498  1.00  0.00    -0.206 F 
HETATM   25  C   UNL     1      43.262 -16.828   1.920  1.00  0.00     0.005 A 
HETATM   26  C   UNL     1      43.252 -15.439   1.755  1.00  0.00     0.029 A 
ENDBRANCH  17  20
ENDBRANCH  15  16
ENDBRANCH   1  15
TORSDOF 3
ENDMDL
MODEL 7
REMARK VINA RESULT:      -7.5      2.829      6.836
REMARK  3 active torsions:
REMARK  status: ('A' for Active; 'I' for Inactive)
REMARK    1  A    between atoms: C_6  and  N_7 
REMARK       I    between atoms: N_7  and  C_8 
REMARK    2  A    between atoms: C_8  and  C_9 
REMARK    3  A    between atoms: C_9  and  C_10 
ROOT
HETATM    1  C   UNL     1      42.321 -14.283   2.824  1.00  0.00     0.286 C 
HETATM    2  N   UNL     1      41.476 -15.537   2.624  1.00  0.00    -0.056 N 
HETATM    3  H   UNL     1      40.575 -15.336   3.108  1.00  0.00     0.278 HD
HETATM    4  H   UNL     1      41.238 -15.672   1.635  1.00  0.00     0.278 HD
HETATM    5  C   UNL     1      42.049 -16.789   3.227  1.00  0.00     0.209 C 
HETATM    6  C   UNL     1      42.391 -16.538   4.718  1.00  0.00     0.115 C 
HETATM    7  N   UNL     1      43.148 -15.305   4.933  1.00  0.00    -0.353 N 
HETATM    8  C   UNL     1      42.875 -14.140   4.256  1.00  0.00     0.249 C 
HETATM    9  O   UNL     1      43.171 -13.058   4.751  1.00  0.00    -0.271 OA
HETATM   10  C   UNL     1      43.242 -17.269   2.399  1.00  0.00     0.035 C 
HETATM   11  C   UNL     1      43.903 -18.484   3.042  1.00  0.00     0.002 C 
HETATM   12  C   UNL     1      44.313 -18.194   4.482  1.00  0.00     0.002 C 
HETATM   13  C   UNL     1      43.122 -17.740   5.326  1.00  0.00     0.027 C 
HETATM   14  H   UNL     1      43.483 -15.122   5.878  1.00  0.00     0.163 HD
ENDROOT
BRANCH   1  15
HETATM   15  C   UNL     1      41.570 -13.017   2.382  1.00  0.00     0.146 C 
BRANCH  15  16
HETATM   16  C   UNL     1      40.091 -13.267   2.244  1.00  0.00     0.224 C 
HETATM   17  N   UNL     1      39.452 -13.273   1.047  1.00  0.00    -0.327 N 
HETATM   18  H   UNL     1      38.456 -13.442   1.165  1.00  0.00     0.169 HD
HETATM   19  O   UNL     1      39.446 -13.555   3.263  1.00  0.00    -0.273 OA
BRANCH  17  20
HETATM   20  C   UNL     1      39.862 -13.107  -0.292  1.00  0.00     0.037 A 
HETATM   21  C   UNL     1      40.447 -11.967  -0.836  1.00  0.00     0.071 A 
HETATM   22  C   UNL     1      40.807 -11.939  -2.186  1.00  0.00     0.118 A 
HETATM   23  C   UNL     1      40.608 -13.033  -3.014  1.00  0.00     0.042 A 
HETATM   24  F   UNL     1      41.363 -10.827  -2.684  1.00  0.00    -0.206 F 
HETATM   25  C   UNL     1      40.037 -14.182  -2.485  1.00  0.00     0.005 A 
HETATM   26  C   UNL     1      39.667 -14.216  -1.136  1.00  0.00     0.029 A 
ENDBRANCH  17  20
ENDBRANCH  15  16
ENDBRANCH   1  15
TORSDOF 3
ENDMDL
MODEL 8
REMARK VINA RESULT:      -7.5      2.566      3.911
REMARK  3 active torsions:
REMARK  status: ('A' for Active; 'I' for Inactive)
REMARK    1  A    between atoms: C_6  and  N_7 
REMARK       I    between atoms: N_7  and  C_8 
REMARK    2  A    between atoms: C_8  and  C_9 
REMARK    3  A    between atoms: C_9  and  C_10 
ROOT
HETATM    1  C   UNL     1      40.957 -14.432   4.473  1.00  0.00     0.286 C 
HETATM    2  N   UNL     1      42.129 -13.734   3.790  1.00  0.00    -0.056 N 
HETATM    3  H   UNL     1      42.847 -14.479   3.658  1.00  0.00     0.278 HD
HETATM    4  H   UNL     1      41.877 -13.418   2.847  1.00  0.00     0.278 HD
HETATM    5  C   UNL     1      42.761 -12.629   4.589  1.00  0.00     0.209 C 
HETATM    6  C   UNL     1      43.125 -13.152   6.002  1.00  0.00     0.115 C 
HETATM    7  N   UNL     1      42.031 -13.878   6.645  1.00  0.00    -0.353 N 
HETATM    8  C   UNL     1      41.214 -14.747   5.960  1.00  0.00     0.249 C 
HETATM    9  O   UNL     1      40.646 -15.656   6.556  1.00  0.00    -0.271 OA
HETATM   10  C   UNL     1      41.840 -11.407   4.609  1.00  0.00     0.035 C 
HETATM   11  C   UNL     1      42.412 -10.303   5.492  1.00  0.00     0.002 C 
HETATM   12  C   UNL     1      42.686 -10.810   6.905  1.00  0.00     0.002 C 
HETATM   13  C   UNL     1      43.627 -12.015   6.899  1.00  0.00     0.027 C 
HETATM   14  H   UNL     1      42.169 -14.173   7.610  1.00  0.00     0.163 HD
ENDROOT
BRANCH   1  15
HETATM   15  C   UNL     1      40.514 -15.684   3.700  1.00  0.00     0.146 C 
BRANCH  15  16
HETATM   16  C   UNL     1      41.131 -15.737   2.327  1.00  0.00     0.224 C 
HETATM   17  N   UNL     1      42.156 -16.568   2.011  1.00  0.00    -0.327 N 
HETATM   18  H   UNL     1      42.443 -16.443   1.043  1.00  0.00     0.169 HD
HETATM   19  O   UNL     1      40.629 -15.045   1.429  1.00  0.00    -0.273 OA
BRANCH  17  20
HETATM   20  C   UNL     1      42.886 -17.548   2.715  1.00  0.00     0.037 A 
HETATM   21  C   UNL     1      43.061 -18.875   2.330  1.00  0.00     0.071 A 
HETATM   22  C   UNL     1      43.814 -19.743   3.125  1.00  0.00     0.118 A 
HETATM   23  C   UNL     1      44.412 -19.317   4.301  1.00  0.00     0.042 A 
HETATM   24  F   UNL     1      43.961 -21.016   2.734  1.00  0.00    -0.206 F 
HETATM   25  C   UNL     1      44.258 -17.994   4.693  1.00  0.00     0.005 A 
HETATM   26  C   UNL     1      43.501 -17.119   3.905  1.00  0.00     0.029 A 
ENDBRANCH  17  20
ENDBRANCH  15  16
ENDBRANCH   1  15
TORSDOF 3
ENDMDL
MODEL 9
REMARK VINA RESULT:      -7.4      4.179      5.908
REMARK  3 active torsions:
REMARK  status: ('A' for Active; 'I' for Inactive)
REMARK    1  A    between atoms: C_6  and  N_7 
REMARK       I    between atoms: N_7  and  C_8 
REMARK    2  A    between atoms: C_8  and  C_9 
REMARK    3  A    between atoms: C_9  and  C_10 
ROOT
HETATM    1  C   UNL     1      42.427 -11.805   5.441  1.00  0.00     0.286 C 
HETATM    2  N   UNL     1      42.956 -12.570   6.650  1.00  0.00    -0.056 N 
HETATM    3  H   UNL     1      42.109 -12.809   7.211  1.00  0.00     0.278 HD
HETATM    4  H   UNL     1      43.370 -13.467   6.373  1.00  0.00     0.278 HD
HETATM    5  C   UNL     1      43.884 -11.788   7.537  1.00  0.00     0.209 C 
HETATM    6  C   UNL     1      43.218 -10.446   7.932  1.00  0.00     0.115 C 
HETATM    7  N   UNL     1      42.650  -9.730   6.790  1.00  0.00    -0.353 N 
HETATM    8  C   UNL     1      41.978 -10.368   5.774  1.00  0.00     0.249 C 
HETATM    9  O   UNL     1      41.144  -9.761   5.112  1.00  0.00    -0.271 OA
HETATM   10  C   UNL     1      45.241 -11.619   6.852  1.00  0.00     0.035 C 
HETATM   11  C   UNL     1      46.173 -10.747   7.688  1.00  0.00     0.002 C 
HETATM   12  C   UNL     1      45.538  -9.394   7.996  1.00  0.00     0.002 C 
HETATM   13  C   UNL     1      44.193  -9.552   8.706  1.00  0.00     0.027 C 
HETATM   14  H   UNL     1      42.274  -8.798   6.962  1.00  0.00     0.163 HD
ENDROOT
BRANCH   1  15
HETATM   15  C   UNL     1      41.320 -12.588   4.716  1.00  0.00     0.146 C 
BRANCH  15  16
HETATM   16  C   UNL     1      40.627 -13.555   5.639  1.00  0.00     0.224 C 
HETATM   17  N   UNL     1      40.825 -14.896   5.586  1.00  0.00    -0.327 N 
HETATM   18  H   UNL     1      40.255 -15.378   6.277  1.00  0.00     0.169 HD
HETATM   19  O   UNL     1      39.901 -13.097   6.534  1.00  0.00    -0.273 OA
BRANCH  17  20
HETATM   20  C   UNL     1      41.638 -15.744   4.806  1.00  0.00     0.037 A 
HETATM   21  C   UNL     1      42.859 -16.294   5.190  1.00  0.00     0.071 A 
HETATM   22  C   UNL     1      43.562 -17.123   4.313  1.00  0.00     0.118 A 
HETATM   23  C   UNL     1      43.072 -17.432   3.054  1.00  0.00     0.042 A 
HETATM   24  F   UNL     1      44.736 -17.634   4.707  1.00  0.00    -0.206 F 
HETATM   25  C   UNL     1      41.850 -16.902   2.659  1.00  0.00     0.005 A 
HETATM   26  C   UNL     1      41.142 -16.066   3.529  1.00  0.00     0.029 A 
ENDBRANCH  17  20
ENDBRANCH  15  16
ENDBRANCH   1  15
TORSDOF 3
ENDMDL
MODEL 10
REMARK VINA RESULT:      -7.3      2.722      6.847
REMARK  3 active torsions:
REMARK  status: ('A' for Active; 'I' for Inactive)
REMARK    1  A    between atoms: C_6  and  N_7 
REMARK       I    between atoms: N_7  and  C_8 
REMARK    2  A    between atoms: C_8  and  C_9 
REMARK    3  A    between atoms: C_9  and  C_10 
ROOT
HETATM    1  C   UNL     1      41.056 -14.376   2.973  1.00  0.00     0.286 C 
HETATM    2  N   UNL     1      42.567 -14.173   2.949  1.00  0.00    -0.056 N 
HETATM    3  H   UNL     1      42.783 -13.860   1.977  1.00  0.00     0.278 HD
HETATM    4  H   UNL     1      42.850 -13.399   3.561  1.00  0.00     0.278 HD
HETATM    5  C   UNL     1      43.376 -15.410   3.219  1.00  0.00     0.209 C 
HETATM    6  C   UNL     1      42.917 -16.549   2.273  1.00  0.00     0.115 C 
HETATM    7  N   UNL     1      41.465 -16.714   2.237  1.00  0.00    -0.353 N 
HETATM    8  C   UNL     1      40.597 -15.647   2.232  1.00  0.00     0.249 C 
HETATM    9  O   UNL     1      39.477 -15.768   1.748  1.00  0.00    -0.271 OA
HETATM   10  C   UNL     1      43.290 -15.777   4.702  1.00  0.00     0.035 C 
HETATM   11  C   UNL     1      44.023 -17.084   4.988  1.00  0.00     0.002 C 
HETATM   12  C   UNL     1      43.501 -18.216   4.109  1.00  0.00     0.002 C 
HETATM   13  C   UNL     1      43.608 -17.871   2.624  1.00  0.00     0.027 C 
HETATM   14  H   UNL     1      41.097 -17.501   1.704  1.00  0.00     0.163 HD
ENDROOT
BRANCH   1  15
HETATM   15  C   UNL     1      40.309 -13.130   2.470  1.00  0.00     0.146 C 
BRANCH  15  16
HETATM   16  C   UNL     1      41.155 -12.318   1.525  1.00  0.00     0.224 C 
HETATM   17  N   UNL     1      40.917 -12.255   0.190  1.00  0.00    -0.327 N 
HETATM   18  H   UNL     1      41.606 -11.671  -0.278  1.00  0.00     0.169 HD
HETATM   19  O   UNL     1      42.062 -11.618   1.999  1.00  0.00    -0.273 OA
BRANCH  17  20
HETATM   20  C   UNL     1      39.938 -12.803  -0.665  1.00  0.00     0.037 A 
HETATM   21  C   UNL     1      39.991 -14.053  -1.277  1.00  0.00     0.071 A 
HETATM   22  C   UNL     1      38.946 -14.473  -2.104  1.00  0.00     0.118 A 
HETATM   23  C   UNL     1      37.834 -13.678  -2.332  1.00  0.00     0.042 A 
HETATM   24  F   UNL     1      39.025 -15.678  -2.684  1.00  0.00    -0.206 F 
HETATM   25  C   UNL     1      37.760 -12.433  -1.720  1.00  0.00     0.005 A 
HETATM   26  C   UNL     1      38.805 -12.002  -0.895  1.00  0.00     0.029 A 
ENDBRANCH  17  20
ENDBRANCH  15  16
ENDBRANCH   1  15
TORSDOF 3
ENDMDL
