MODEL 1
REMARK VINA RESULT:      -9.5      0.000      0.000
REMARK  8 active torsions:
REMARK  status: ('A' for Active; 'I' for Inactive)
REMARK    1  A    between atoms: C_4  and  C_5 
REMARK    2  A    between atoms: C_5  and  N_6 
REMARK    3  A    between atoms: C_11  and  C_12 
REMARK       I    between atoms: C_12  and  N_13 
REMARK    4  A    between atoms: C_15  and  N_16 
REMARK       I    between atoms: N_16  and  C_17 
REMARK    5  A    between atoms: C_17  and  C_18 
REMARK    6  A    between atoms: C_18  and  C_19 
REMARK    7  A    between atoms: C_19  and  S_20 
REMARK    8  A    between atoms: S_20  and  C_21 
ROOT
HETATM    1  N   UNL     1      41.871 -16.409   3.906  1.00  0.00    -0.063 N 
HETATM    2  H   UNL     1      41.228 -17.203   3.824  1.00  0.00     0.280 HD
HETATM    3  C   UNL     1      42.014 -16.150   5.403  1.00  0.00     0.282 C 
HETATM    4  C   UNL     1      42.529 -14.778   5.665  1.00  0.00     0.018 C 
HETATM    5  C   UNL     1      42.575 -13.748   4.748  1.00  0.00    -0.023 C 
HETATM    6  C   UNL     1      43.209 -12.569   5.300  1.00  0.00     0.073 C 
HETATM    7  C   UNL     1      43.398 -12.715   6.670  1.00  0.00     0.093 C 
HETATM    8  S   UNL     1      43.079 -14.305   7.192  1.00  0.00    -0.074 SA
HETATM    9  C   UNL     1      42.058 -13.932   3.347  1.00  0.00     0.068 C 
HETATM   10  C   UNL     1      41.216 -15.219   3.211  1.00  0.00     0.240 C 
ENDROOT
BRANCH   7  11
HETATM   11  N   UNL     1      43.742 -11.724   7.579  1.00  0.00    -0.320 N 
HETATM   12  C   UNL     1      44.990 -11.152   7.757  1.00  0.00     0.223 C 
HETATM   13  O   UNL     1      45.963 -11.260   7.018  1.00  0.00    -0.273 OA
HETATM   14  H   UNL     1      43.004 -11.416   8.209  1.00  0.00     0.169 HD
BRANCH  12  15
HETATM   15  C   UNL     1      45.074 -10.305   9.015  1.00  0.00     0.113 C 
BRANCH  15  16
HETATM   16  C   UNL     1      43.718 -10.101   9.678  1.00  0.00     0.088 C 
BRANCH  16  17
HETATM   17  S   UNL     1      43.696 -10.819  11.363  1.00  0.00    -0.130 SA
BRANCH  17  18
HETATM   18  C   UNL     1      42.919  -9.552  12.357  1.00  0.00     0.000 A 
HETATM   19  C   UNL     1      43.396  -8.246  12.508  1.00  0.00     0.020 A 
HETATM   20  C   UNL     1      42.715  -7.328  13.317  1.00  0.00     0.025 A 
HETATM   21  C   UNL     1      41.552  -7.710  13.978  1.00  0.00     0.034 A 
HETATM   22 CL   UNL     1      40.718  -6.580  14.969  1.00  0.00    -0.084 Cl
HETATM   23  C   UNL     1      41.063  -9.004  13.840  1.00  0.00     0.025 A 
HETATM   24  C   UNL     1      41.746  -9.920  13.034  1.00  0.00     0.020 A 
ENDBRANCH  17  18
ENDBRANCH  16  17
ENDBRANCH  15  16
ENDBRANCH  12  15
ENDBRANCH   7  11
BRANCH   6  25
HETATM   25  C   UNL     1      43.536 -11.378   4.517  1.00  0.00     0.252 C 
HETATM   26  N   UNL     1      42.609 -10.375   4.532  1.00  0.00    -0.366 N 
HETATM   27  H   UNL     1      41.868 -10.336   5.219  1.00  0.00     0.159 HD
HETATM   28  H   UNL     1      42.892  -9.495   4.119  1.00  0.00     0.159 HD
HETATM   29  O   UNL     1      44.610 -11.232   3.947  1.00  0.00    -0.268 OA
ENDBRANCH   6  25
BRANCH   1  30
HETATM   30  C   UNL     1      43.150 -16.836   3.219  1.00  0.00     0.273 C 
BRANCH  30  31
HETATM   31  C   UNL     1      43.462 -18.304   3.302  1.00  0.00    -0.033 A 
HETATM   32  C   UNL     1      43.985 -18.882   4.470  1.00  0.00     0.009 A 
HETATM   33  C   UNL     1      44.257 -20.251   4.517  1.00  0.00     0.001 A 
HETATM   34  C   UNL     1      43.995 -21.057   3.411  1.00  0.00     0.000 A 
HETATM   35  C   UNL     1      43.461 -20.498   2.254  1.00  0.00     0.001 A 
HETATM   36  C   UNL     1      43.197 -19.130   2.198  1.00  0.00     0.009 A 
ENDBRANCH  30  31
ENDBRANCH   1  30
TORSDOF 8
ENDMDL
MODEL 2
REMARK VINA RESULT:      -9.5      1.277      1.542
REMARK  8 active torsions:
REMARK  status: ('A' for Active; 'I' for Inactive)
REMARK    1  A    between atoms: C_4  and  C_5 
REMARK    2  A    between atoms: C_5  and  N_6 
REMARK    3  A    between atoms: C_11  and  C_12 
REMARK       I    between atoms: C_12  and  N_13 
REMARK    4  A    between atoms: C_15  and  N_16 
REMARK       I    between atoms: N_16  and  C_17 
REMARK    5  A    between atoms: C_17  and  C_18 
REMARK    6  A    between atoms: C_18  and  C_19 
REMARK    7  A    between atoms: C_19  and  S_20 
REMARK    8  A    between atoms: S_20  and  C_21 
ROOT
HETATM    1  N   UNL     1      41.803 -16.354   3.468  1.00  0.00    -0.063 N 
HETATM    2  H   UNL     1      41.134 -17.117   3.329  1.00  0.00     0.280 HD
HETATM    3  C   UNL     1      41.844 -16.113   4.974  1.00  0.00     0.282 C 
HETATM    4  C   UNL     1      42.398 -14.768   5.289  1.00  0.00     0.018 C 
HETATM    5  C   UNL     1      42.559 -13.733   4.390  1.00  0.00    -0.023 C 
HETATM    6  C   UNL     1      43.201 -12.588   5.001  1.00  0.00     0.073 C 
HETATM    7  C   UNL     1      43.279 -12.754   6.380  1.00  0.00     0.093 C 
HETATM    8  S   UNL     1      42.852 -14.332   6.858  1.00  0.00    -0.074 SA
HETATM    9  C   UNL     1      42.141 -13.884   2.952  1.00  0.00     0.068 C 
HETATM   10  C   UNL     1      41.255 -15.130   2.739  1.00  0.00     0.240 C 
ENDROOT
BRANCH   7  11
HETATM   11  N   UNL     1      43.597 -11.787   7.323  1.00  0.00    -0.320 N 
HETATM   12  C   UNL     1      44.855 -11.287   7.615  1.00  0.00     0.223 C 
HETATM   13  O   UNL     1      45.882 -11.449   6.964  1.00  0.00    -0.273 OA
HETATM   14  H   UNL     1      42.825 -11.437   7.887  1.00  0.00     0.169 HD
BRANCH  12  15
HETATM   15  C   UNL     1      44.875 -10.449   8.881  1.00  0.00     0.113 C 
BRANCH  15  16
HETATM   16  C   UNL     1      45.373  -9.030   8.640  1.00  0.00     0.088 C 
BRANCH  16  17
HETATM   17  S   UNL     1      44.015  -7.817   8.827  1.00  0.00    -0.130 SA
BRANCH  17  18
HETATM   18  C   UNL     1      43.046  -8.466  10.182  1.00  0.00     0.000 A 
HETATM   19  C   UNL     1      43.487  -8.570  11.505  1.00  0.00     0.020 A 
HETATM   20  C   UNL     1      42.650  -9.100  12.495  1.00  0.00     0.025 A 
HETATM   21  C   UNL     1      41.367  -9.528  12.169  1.00  0.00     0.034 A 
HETATM   22 CL   UNL     1      40.343 -10.176  13.387  1.00  0.00    -0.084 Cl
HETATM   23  C   UNL     1      40.912  -9.432  10.858  1.00  0.00     0.025 A 
HETATM   24  C   UNL     1      41.750  -8.905   9.871  1.00  0.00     0.020 A 
ENDBRANCH  17  18
ENDBRANCH  16  17
ENDBRANCH  15  16
ENDBRANCH  12  15
ENDBRANCH   7  11
BRANCH   6  25
HETATM   25  C   UNL     1      43.638 -11.407   4.258  1.00  0.00     0.252 C 
HETATM   26  N   UNL     1      42.701 -10.432   4.073  1.00  0.00    -0.366 N 
HETATM   27  H   UNL     1      41.845 -10.398   4.610  1.00  0.00     0.159 HD
HETATM   28  H   UNL     1      43.035  -9.554   3.694  1.00  0.00     0.159 HD
HETATM   29  O   UNL     1      44.796 -11.244   3.892  1.00  0.00    -0.268 OA
ENDBRANCH   6  25
BRANCH   1  30
HETATM   30  C   UNL     1      43.110 -16.833   2.874  1.00  0.00     0.273 C 
BRANCH  30  31
HETATM   31  C   UNL     1      43.441 -18.276   3.134  1.00  0.00    -0.033 A 
HETATM   32  C   UNL     1      43.969 -18.702   4.363  1.00  0.00     0.009 A 
HETATM   33  C   UNL     1      44.258 -20.052   4.575  1.00  0.00     0.001 A 
HETATM   34  C   UNL     1      44.008 -20.988   3.574  1.00  0.00     0.000 A 
HETATM   35  C   UNL     1      43.469 -20.580   2.358  1.00  0.00     0.001 A 
HETATM   36  C   UNL     1      43.187 -19.232   2.138  1.00  0.00     0.009 A 
ENDBRANCH  30  31
ENDBRANCH   1  30
TORSDOF 8
ENDMDL
MODEL 3
REMARK VINA RESULT:      -9.2      3.756     10.667
REMARK  8 active torsions:
REMARK  status: ('A' for Active; 'I' for Inactive)
REMARK    1  A    between atoms: C_4  and  C_5 
REMARK    2  A    between atoms: C_5  and  N_6 
REMARK    3  A    between atoms: C_11  and  C_12 
REMARK       I    between atoms: C_12  and  N_13 
REMARK    4  A    between atoms: C_15  and  N_16 
REMARK       I    between atoms: N_16  and  C_17 
REMARK    5  A    between atoms: C_17  and  C_18 
REMARK    6  A    between atoms: C_18  and  C_19 
REMARK    7  A    between atoms: C_19  and  S_20 
REMARK    8  A    between atoms: S_20  and  C_21 
ROOT
HETATM    1  N   UNL     1      43.912  -9.150   9.736  1.00  0.00    -0.063 N 
HETATM    2  H   UNL     1      44.467  -8.431  10.209  1.00  0.00     0.280 HD
HETATM    3  C   UNL     1      44.866  -9.829   8.758  1.00  0.00     0.282 C 
HETATM    4  C   UNL     1      44.120 -10.557   7.695  1.00  0.00     0.018 C 
HETATM    5  C   UNL     1      42.780 -10.403   7.404  1.00  0.00    -0.023 C 
HETATM    6  C   UNL     1      42.348 -11.320   6.370  1.00  0.00     0.073 C 
HETATM    7  C   UNL     1      43.445 -11.952   5.793  1.00  0.00     0.093 C 
HETATM    8  S   UNL     1      44.882 -11.651   6.656  1.00  0.00    -0.074 SA
HETATM    9  C   UNL     1      41.930  -9.416   8.159  1.00  0.00     0.068 C 
HETATM   10  C   UNL     1      42.789  -8.436   8.988  1.00  0.00     0.240 C 
ENDROOT
BRANCH   7  11
HETATM   11  N   UNL     1      43.461 -12.700   4.624  1.00  0.00    -0.320 N 
HETATM   12  C   UNL     1      43.230 -12.243   3.337  1.00  0.00     0.223 C 
HETATM   13  O   UNL     1      43.175 -11.075   2.969  1.00  0.00    -0.273 OA
HETATM   14  H   UNL     1      43.620 -13.700   4.731  1.00  0.00     0.169 HD
BRANCH  12  15
HETATM   15  C   UNL     1      43.053 -13.371   2.336  1.00  0.00     0.113 C 
BRANCH  15  16
HETATM   16  C   UNL     1      42.933 -14.736   3.002  1.00  0.00     0.088 C 
BRANCH  16  17
HETATM   17  S   UNL     1      42.975 -16.080   1.760  1.00  0.00    -0.130 SA
BRANCH  17  18
HETATM   18  C   UNL     1      43.377 -17.535   2.718  1.00  0.00     0.000 A 
HETATM   19  C   UNL     1      43.333 -18.848   2.239  1.00  0.00     0.020 A 
HETATM   20  C   UNL     1      43.661 -19.923   3.075  1.00  0.00     0.025 A 
HETATM   21  C   UNL     1      44.037 -19.691   4.394  1.00  0.00     0.034 A 
HETATM   22 CL   UNL     1      44.441 -21.012   5.416  1.00  0.00    -0.084 Cl
HETATM   23  C   UNL     1      44.085 -18.392   4.888  1.00  0.00     0.025 A 
HETATM   24  C   UNL     1      43.755 -17.321   4.053  1.00  0.00     0.020 A 
ENDBRANCH  17  18
ENDBRANCH  16  17
ENDBRANCH  15  16
ENDBRANCH  12  15
ENDBRANCH   7  11
BRANCH   6  25
HETATM   25  C   UNL     1      40.954 -11.491   5.963  1.00  0.00     0.252 C 
HETATM   26  N   UNL     1      40.302 -12.569   6.489  1.00  0.00    -0.366 N 
HETATM   27  H   UNL     1      40.658 -13.076   7.290  1.00  0.00     0.159 HD
HETATM   28  H   UNL     1      39.302 -12.610   6.333  1.00  0.00     0.159 HD
HETATM   29  O   UNL     1      40.362 -10.679   5.262  1.00  0.00    -0.268 OA
ENDBRANCH   6  25
BRANCH   1  30
HETATM   30  C   UNL     1      43.384 -10.054  10.827  1.00  0.00     0.273 C 
BRANCH  30  31
HETATM   31  C   UNL     1      42.945  -9.353  12.083  1.00  0.00    -0.033 A 
HETATM   32  C   UNL     1      43.547  -8.160  12.510  1.00  0.00     0.009 A 
HETATM   33  C   UNL     1      43.111  -7.529  13.678  1.00  0.00     0.001 A 
HETATM   34  C   UNL     1      42.063  -8.072  14.418  1.00  0.00     0.000 A 
HETATM   35  C   UNL     1      41.447  -9.247  13.995  1.00  0.00     0.001 A 
HETATM   36  C   UNL     1      41.885  -9.884  12.835  1.00  0.00     0.009 A 
ENDBRANCH  30  31
ENDBRANCH   1  30
TORSDOF 8
ENDMDL
MODEL 4
REMARK VINA RESULT:      -8.9      2.029      2.352
REMARK  8 active torsions:
REMARK  status: ('A' for Active; 'I' for Inactive)
REMARK    1  A    between atoms: C_4  and  C_5 
REMARK    2  A    between atoms: C_5  and  N_6 
REMARK    3  A    between atoms: C_11  and  C_12 
REMARK       I    between atoms: C_12  and  N_13 
REMARK    4  A    between atoms: C_15  and  N_16 
REMARK       I    between atoms: N_16  and  C_17 
REMARK    5  A    between atoms: C_17  and  C_18 
REMARK    6  A    between atoms: C_18  and  C_19 
REMARK    7  A    between atoms: C_19  and  S_20 
REMARK    8  A    between atoms: S_20  and  C_21 
ROOT
HETATM    1  N   UNL     1      42.009 -16.253   3.083  1.00  0.00    -0.063 N 
HETATM    2  H   UNL     1      41.588 -17.061   2.614  1.00  0.00     0.280 HD
HETATM    3  C   UNL     1      41.011 -15.839   4.161  1.00  0.00     0.282 C 
HETATM    4  C   UNL     1      41.251 -14.440   4.608  1.00  0.00     0.018 C 
HETATM    5  C   UNL     1      42.029 -13.508   3.951  1.00  0.00    -0.023 C 
HETATM    6  C   UNL     1      42.121 -12.269   4.694  1.00  0.00     0.073 C 
HETATM    7  C   UNL     1      41.221 -12.271   5.755  1.00  0.00     0.093 C 
HETATM    8  S   UNL     1      40.517 -13.804   5.991  1.00  0.00    -0.074 SA
HETATM    9  C   UNL     1      42.711 -13.844   2.652  1.00  0.00     0.068 C 
HETATM   10  C   UNL     1      42.164 -15.151   2.039  1.00  0.00     0.240 C 
ENDROOT
BRANCH   7  11
HETATM   11  N   UNL     1      40.842 -11.186   6.534  1.00  0.00    -0.320 N 
HETATM   12  C   UNL     1      40.253 -10.012   6.098  1.00  0.00     0.223 C 
HETATM   13  O   UNL     1      39.772  -9.795   4.991  1.00  0.00    -0.273 OA
HETATM   14  H   UNL     1      41.059 -11.248   7.527  1.00  0.00     0.169 HD
BRANCH  12  15
HETATM   15  C   UNL     1      40.226  -8.936   7.169  1.00  0.00     0.113 C 
BRANCH  15  16
HETATM   16  C   UNL     1      40.569  -9.473   8.553  1.00  0.00     0.088 C 
BRANCH  16  17
HETATM   17  S   UNL     1      42.305  -9.095   8.993  1.00  0.00    -0.130 SA
BRANCH  17  18
HETATM   18  C   UNL     1      42.258  -8.879  10.767  1.00  0.00     0.000 A 
HETATM   19  C   UNL     1      43.247  -8.244  11.525  1.00  0.00     0.020 A 
HETATM   20  C   UNL     1      43.118  -8.131  12.915  1.00  0.00     0.025 A 
HETATM   21  C   UNL     1      41.999  -8.652  13.556  1.00  0.00     0.034 A 
HETATM   22 CL   UNL     1      41.843  -8.511  15.262  1.00  0.00    -0.084 Cl
HETATM   23  C   UNL     1      41.006  -9.289  12.819  1.00  0.00     0.025 A 
HETATM   24  C   UNL     1      41.137  -9.401  11.432  1.00  0.00     0.020 A 
ENDBRANCH  17  18
ENDBRANCH  16  17
ENDBRANCH  15  16
ENDBRANCH  12  15
ENDBRANCH   7  11
BRANCH   6  25
HETATM   25  C   UNL     1      42.997 -11.159   4.322  1.00  0.00     0.252 C 
HETATM   26  N   UNL     1      42.471 -10.237   3.464  1.00  0.00    -0.366 N 
HETATM   27  H   UNL     1      41.477 -10.173   3.286  1.00  0.00     0.159 HD
HETATM   28  H   UNL     1      43.013  -9.394   3.321  1.00  0.00     0.159 HD
HETATM   29  O   UNL     1      44.110 -11.001   4.809  1.00  0.00    -0.268 OA
ENDBRANCH   6  25
BRANCH   1  30
HETATM   30  C   UNL     1      43.344 -16.728   3.614  1.00  0.00     0.273 C 
BRANCH  30  31
HETATM   31  C   UNL     1      43.563 -18.214   3.559  1.00  0.00    -0.033 A 
HETATM   32  C   UNL     1      44.004 -18.936   4.679  1.00  0.00     0.009 A 
HETATM   33  C   UNL     1      44.191 -20.318   4.598  1.00  0.00     0.001 A 
HETATM   34  C   UNL     1      43.922 -20.992   3.409  1.00  0.00     0.000 A 
HETATM   35  C   UNL     1      43.468 -20.289   2.297  1.00  0.00     0.001 A 
HETATM   36  C   UNL     1      43.289 -18.909   2.370  1.00  0.00     0.009 A 
ENDBRANCH  30  31
ENDBRANCH   1  30
TORSDOF 8
ENDMDL
MODEL 5
REMARK VINA RESULT:      -8.6      4.321     11.055
REMARK  8 active torsions:
REMARK  status: ('A' for Active; 'I' for Inactive)
REMARK    1  A    between atoms: C_4  and  C_5 
REMARK    2  A    between atoms: C_5  and  N_6 
REMARK    3  A    between atoms: C_11  and  C_12 
REMARK       I    between atoms: C_12  and  N_13 
REMARK    4  A    between atoms: C_15  and  N_16 
REMARK       I    between atoms: N_16  and  C_17 
REMARK    5  A    between atoms: C_17  and  C_18 
REMARK    6  A    between atoms: C_18  and  C_19 
REMARK    7  A    between atoms: C_19  and  S_20 
REMARK    8  A    between atoms: S_20  and  C_21 
ROOT
HETATM    1  N   UNL     1      43.472  -8.701  10.351  1.00  0.00    -0.063 N 
HETATM    2  H   UNL     1      44.252  -8.159  10.734  1.00  0.00     0.280 HD
HETATM    3  C   UNL     1      44.053  -9.487   9.180  1.00  0.00     0.282 C 
HETATM    4  C   UNL     1      42.981  -9.949   8.256  1.00  0.00     0.018 C 
HETATM    5  C   UNL     1      41.680  -9.488   8.239  1.00  0.00    -0.023 C 
HETATM    6  C   UNL     1      40.871 -10.204   7.275  1.00  0.00     0.073 C 
HETATM    7  C   UNL     1      41.672 -11.007   6.470  1.00  0.00     0.093 C 
HETATM    8  S   UNL     1      43.273 -11.092   7.046  1.00  0.00    -0.074 SA
HETATM    9  C   UNL     1      41.228  -8.407   9.184  1.00  0.00     0.068 C 
HETATM   10  C   UNL     1      42.422  -7.705   9.866  1.00  0.00     0.240 C 
ENDROOT
BRANCH   7  11
HETATM   11  N   UNL     1      41.306 -11.643   5.292  1.00  0.00    -0.320 N 
HETATM   12  C   UNL     1      40.561 -12.804   5.168  1.00  0.00     0.223 C 
HETATM   13  O   UNL     1      39.919 -13.366   6.048  1.00  0.00    -0.273 OA
HETATM   14  H   UNL     1      41.657 -11.232   4.430  1.00  0.00     0.169 HD
BRANCH  12  15
HETATM   15  C   UNL     1      40.583 -13.367   3.757  1.00  0.00     0.113 C 
BRANCH  15  16
HETATM   16  C   UNL     1      41.966 -13.846   3.335  1.00  0.00     0.088 C 
BRANCH  16  17
HETATM   17  S   UNL     1      42.736 -14.866   4.646  1.00  0.00    -0.130 SA
BRANCH  17  18
HETATM   18  C   UNL     1      43.026 -16.439   3.848  1.00  0.00     0.000 A 
HETATM   19  C   UNL     1      42.429 -16.855   2.654  1.00  0.00     0.020 A 
HETATM   20  C   UNL     1      42.719 -18.114   2.113  1.00  0.00     0.025 A 
HETATM   21  C   UNL     1      43.610 -18.963   2.761  1.00  0.00     0.034 A 
HETATM   22 CL   UNL     1      43.965 -20.506   2.093  1.00  0.00    -0.084 Cl
HETATM   23  C   UNL     1      44.213 -18.567   3.950  1.00  0.00     0.025 A 
HETATM   24  C   UNL     1      43.920 -17.311   4.490  1.00  0.00     0.020 A 
ENDBRANCH  17  18
ENDBRANCH  16  17
ENDBRANCH  15  16
ENDBRANCH  12  15
ENDBRANCH   7  11
BRANCH   6  25
HETATM   25  C   UNL     1      39.424 -10.039   7.143  1.00  0.00     0.252 C 
HETATM   26  N   UNL     1      39.006  -9.062   6.286  1.00  0.00    -0.366 N 
HETATM   27  H   UNL     1      39.623  -8.645   5.601  1.00  0.00     0.159 HD
HETATM   28  H   UNL     1      38.015  -9.042   6.076  1.00  0.00     0.159 HD
HETATM   29  O   UNL     1      38.619 -10.781   7.692  1.00  0.00    -0.268 OA
ENDBRANCH   6  25
BRANCH   1  30
HETATM   30  C   UNL     1      42.961  -9.558  11.489  1.00  0.00     0.273 C 
BRANCH  30  31
HETATM   31  C   UNL     1      42.699  -8.824  12.775  1.00  0.00    -0.033 A 
HETATM   32  C   UNL     1      41.698  -9.236  13.668  1.00  0.00     0.009 A 
HETATM   33  C   UNL     1      41.484  -8.536  14.858  1.00  0.00     0.001 A 
HETATM   34  C   UNL     1      42.276  -7.435  15.175  1.00  0.00     0.000 A 
HETATM   35  C   UNL     1      43.283  -7.028  14.305  1.00  0.00     0.001 A 
HETATM   36  C   UNL     1      43.494  -7.717  13.112  1.00  0.00     0.009 A 
ENDBRANCH  30  31
ENDBRANCH   1  30
TORSDOF 8
ENDMDL
MODEL 6
REMARK VINA RESULT:      -8.5      3.149      3.979
REMARK  8 active torsions:
REMARK  status: ('A' for Active; 'I' for Inactive)
REMARK    1  A    between atoms: C_4  and  C_5 
REMARK    2  A    between atoms: C_5  and  N_6 
REMARK    3  A    between atoms: C_11  and  C_12 
REMARK       I    between atoms: C_12  and  N_13 
REMARK    4  A    between atoms: C_15  and  N_16 
REMARK       I    between atoms: N_16  and  C_17 
REMARK    5  A    between atoms: C_17  and  C_18 
REMARK    6  A    between atoms: C_18  and  C_19 
REMARK    7  A    between atoms: C_19  and  S_20 
REMARK    8  A    between atoms: S_20  and  C_21 
ROOT
HETATM    1  N   UNL     1      41.305 -14.443   3.304  1.00  0.00    -0.063 N 
HETATM    2  H   UNL     1      41.090 -14.821   2.377  1.00  0.00     0.280 HD
HETATM    3  C   UNL     1      40.194 -13.441   3.605  1.00  0.00     0.282 C 
HETATM    4  C   UNL     1      40.601 -12.492   4.678  1.00  0.00     0.018 C 
HETATM    5  C   UNL     1      41.889 -12.298   5.133  1.00  0.00    -0.023 C 
HETATM    6  C   UNL     1      41.931 -11.365   6.240  1.00  0.00     0.073 C 
HETATM    7  C   UNL     1      40.695 -10.747   6.401  1.00  0.00     0.093 C 
HETATM    8  S   UNL     1      39.489 -11.472   5.440  1.00  0.00    -0.074 SA
HETATM    9  C   UNL     1      43.047 -13.049   4.531  1.00  0.00     0.068 C 
HETATM   10  C   UNL     1      42.655 -13.740   3.207  1.00  0.00     0.240 C 
ENDROOT
BRANCH   7  11
HETATM   11  N   UNL     1      40.410  -9.634   7.179  1.00  0.00    -0.320 N 
HETATM   12  C   UNL     1      39.434  -9.526   8.156  1.00  0.00     0.223 C 
HETATM   13  O   UNL     1      38.788 -10.440   8.656  1.00  0.00    -0.273 OA
HETATM   14  H   UNL     1      40.951  -8.795   6.980  1.00  0.00     0.169 HD
BRANCH  12  15
HETATM   15  C   UNL     1      39.215  -8.094   8.611  1.00  0.00     0.113 C 
BRANCH  15  16
HETATM   16  C   UNL     1      38.686  -8.005  10.037  1.00  0.00     0.088 C 
BRANCH  16  17
HETATM   17  S   UNL     1      39.885  -7.156  11.130  1.00  0.00    -0.130 SA
BRANCH  17  18
HETATM   18  C   UNL     1      41.403  -8.069  10.890  1.00  0.00     0.000 A 
HETATM   19  C   UNL     1      41.620  -9.387  11.303  1.00  0.00     0.020 A 
HETATM   20  C   UNL     1      42.852 -10.012  11.071  1.00  0.00     0.025 A 
HETATM   21  C   UNL     1      43.873  -9.324  10.423  1.00  0.00     0.034 A 
HETATM   22 CL   UNL     1      45.382 -10.096  10.140  1.00  0.00    -0.084 Cl
HETATM   23  C   UNL     1      43.675  -8.012  10.006  1.00  0.00     0.025 A 
HETATM   24  C   UNL     1      42.446  -7.389  10.240  1.00  0.00     0.020 A 
ENDBRANCH  17  18
ENDBRANCH  16  17
ENDBRANCH  15  16
ENDBRANCH  12  15
ENDBRANCH   7  11
BRANCH   6  25
HETATM   25  C   UNL     1      43.133 -11.082   7.022  1.00  0.00     0.252 C 
HETATM   26  N   UNL     1      43.609 -12.108   7.787  1.00  0.00    -0.366 N 
HETATM   27  H   UNL     1      43.315 -13.066   7.646  1.00  0.00     0.159 HD
HETATM   28  H   UNL     1      44.518 -11.969   8.211  1.00  0.00     0.159 HD
HETATM   29  O   UNL     1      43.743 -10.023   6.943  1.00  0.00    -0.268 OA
ENDBRANCH   6  25
BRANCH   1  30
HETATM   30  C   UNL     1      41.347 -15.632   4.240  1.00  0.00     0.273 C 
BRANCH  30  31
HETATM   31  C   UNL     1      42.280 -16.737   3.828  1.00  0.00    -0.033 A 
HETATM   32  C   UNL     1      42.191 -17.346   2.567  1.00  0.00     0.009 A 
HETATM   33  C   UNL     1      43.078 -18.365   2.213  1.00  0.00     0.001 A 
HETATM   34  C   UNL     1      44.070 -18.772   3.102  1.00  0.00     0.000 A 
HETATM   35  C   UNL     1      44.178 -18.163   4.349  1.00  0.00     0.001 A 
HETATM   36  C   UNL     1      43.290 -17.152   4.711  1.00  0.00     0.009 A 
ENDBRANCH  30  31
ENDBRANCH   1  30
TORSDOF 8
ENDMDL
MODEL 7
REMARK VINA RESULT:      -8.5      7.482     10.271
REMARK  8 active torsions:
REMARK  status: ('A' for Active; 'I' for Inactive)
REMARK    1  A    between atoms: C_4  and  C_5 
REMARK    2  A    between atoms: C_5  and  N_6 
REMARK    3  A    between atoms: C_11  and  C_12 
REMARK       I    between atoms: C_12  and  N_13 
REMARK    4  A    between atoms: C_15  and  N_16 
REMARK       I    between atoms: N_16  and  C_17 
REMARK    5  A    between atoms: C_17  and  C_18 
REMARK    6  A    between atoms: C_18  and  C_19 
REMARK    7  A    between atoms: C_19  and  S_20 
REMARK    8  A    between atoms: S_20  and  C_21 
ROOT
HETATM    1  N   UNL     1      41.172 -15.071   3.055  1.00  0.00    -0.063 N 
HETATM    2  H   UNL     1      41.072 -15.286   4.052  1.00  0.00     0.280 HD
HETATM    3  C   UNL     1      40.785 -13.602   2.912  1.00  0.00     0.282 C 
HETATM    4  C   UNL     1      40.437 -13.271   1.503  1.00  0.00     0.018 C 
HETATM    5  C   UNL     1      40.172 -14.186   0.505  1.00  0.00    -0.023 C 
HETATM    6  C   UNL     1      39.949 -13.537  -0.771  1.00  0.00     0.073 C 
HETATM    7  C   UNL     1      39.841 -12.160  -0.602  1.00  0.00     0.093 C 
HETATM    8  S   UNL     1      40.268 -11.675   0.974  1.00  0.00    -0.074 SA
HETATM    9  C   UNL     1      40.188 -15.665   0.783  1.00  0.00     0.068 C 
HETATM   10  C   UNL     1      40.193 -15.963   2.298  1.00  0.00     0.240 C 
ENDROOT
BRANCH   7  11
HETATM   11  N   UNL     1      39.389 -11.236  -1.533  1.00  0.00    -0.320 N 
HETATM   12  C   UNL     1      38.192 -11.268  -2.228  1.00  0.00     0.223 C 
HETATM   13  O   UNL     1      37.229 -11.994  -2.004  1.00  0.00    -0.273 OA
HETATM   14  H   UNL     1      40.026 -10.474  -1.757  1.00  0.00     0.169 HD
BRANCH  12  15
HETATM   15  C   UNL     1      38.142 -10.257  -3.360  1.00  0.00     0.113 C 
BRANCH  15  16
HETATM   16  C   UNL     1      38.977  -9.015  -3.077  1.00  0.00     0.088 C 
BRANCH  16  17
HETATM   17  S   UNL     1      40.425  -8.930  -4.195  1.00  0.00    -0.130 SA
BRANCH  17  18
HETATM   18  C   UNL     1      41.618  -7.966  -3.275  1.00  0.00     0.000 A 
HETATM   19  C   UNL     1      42.263  -8.389  -2.110  1.00  0.00     0.020 A 
HETATM   20  C   UNL     1      43.180  -7.554  -1.459  1.00  0.00     0.025 A 
HETATM   21  C   UNL     1      43.458  -6.291  -1.971  1.00  0.00     0.034 A 
HETATM   22 CL   UNL     1      44.584  -5.269  -1.171  1.00  0.00    -0.084 Cl
HETATM   23  C   UNL     1      42.824  -5.852  -3.129  1.00  0.00     0.025 A 
HETATM   24  C   UNL     1      41.908  -6.687  -3.776  1.00  0.00     0.020 A 
ENDBRANCH  17  18
ENDBRANCH  16  17
ENDBRANCH  15  16
ENDBRANCH  12  15
ENDBRANCH   7  11
BRANCH   6  25
HETATM   25  C   UNL     1      39.798 -14.255  -2.035  1.00  0.00     0.252 C 
HETATM   26  N   UNL     1      38.674 -15.020  -2.162  1.00  0.00    -0.366 N 
HETATM   27  H   UNL     1      37.878 -14.914  -1.546  1.00  0.00     0.159 HD
HETATM   28  H   UNL     1      38.488 -15.397  -3.083  1.00  0.00     0.159 HD
HETATM   29  O   UNL     1      40.577 -14.123  -2.971  1.00  0.00    -0.268 OA
ENDBRANCH   6  25
BRANCH   1  30
HETATM   30  C   UNL     1      42.611 -15.378   2.704  1.00  0.00     0.273 C 
BRANCH  30  31
HETATM   31  C   UNL     1      43.105 -16.726   3.149  1.00  0.00    -0.033 A 
HETATM   32  C   UNL     1      43.130 -17.827   2.279  1.00  0.00     0.009 A 
HETATM   33  C   UNL     1      43.602 -19.064   2.722  1.00  0.00     0.001 A 
HETATM   34  C   UNL     1      44.069 -19.210   4.027  1.00  0.00     0.000 A 
HETATM   35  C   UNL     1      44.065 -18.121   4.894  1.00  0.00     0.001 A 
HETATM   36  C   UNL     1      43.586 -16.886   4.459  1.00  0.00     0.009 A 
ENDBRANCH  30  31
ENDBRANCH   1  30
TORSDOF 8
ENDMDL
MODEL 8
REMARK VINA RESULT:      -8.1      2.401      3.027
REMARK  8 active torsions:
REMARK  status: ('A' for Active; 'I' for Inactive)
REMARK    1  A    between atoms: C_4  and  C_5 
REMARK    2  A    between atoms: C_5  and  N_6 
REMARK    3  A    between atoms: C_11  and  C_12 
REMARK       I    between atoms: C_12  and  N_13 
REMARK    4  A    between atoms: C_15  and  N_16 
REMARK       I    between atoms: N_16  and  C_17 
REMARK    5  A    between atoms: C_17  and  C_18 
REMARK    6  A    between atoms: C_18  and  C_19 
REMARK    7  A    between atoms: C_19  and  S_20 
REMARK    8  A    between atoms: S_20  and  C_21 
ROOT
HETATM    1  N   UNL     1      41.300 -14.745   3.239  1.00  0.00    -0.063 N 
HETATM    2  H   UNL     1      41.029 -15.144   2.336  1.00  0.00     0.280 HD
HETATM    3  C   UNL     1      40.211 -13.734   3.585  1.00  0.00     0.282 C 
HETATM    4  C   UNL     1      40.683 -12.761   4.608  1.00  0.00     0.018 C 
HETATM    5  C   UNL     1      41.997 -12.558   4.977  1.00  0.00    -0.023 C 
HETATM    6  C   UNL     1      42.108 -11.600   6.058  1.00  0.00     0.073 C 
HETATM    7  C   UNL     1      40.884 -10.976   6.280  1.00  0.00     0.093 C 
HETATM    8  S   UNL     1      39.621 -11.721   5.412  1.00  0.00    -0.074 SA
HETATM    9  C   UNL     1      43.115 -13.325   4.324  1.00  0.00     0.068 C 
HETATM   10  C   UNL     1      42.643 -14.046   3.043  1.00  0.00     0.240 C 
ENDROOT
BRANCH   7  11
HETATM   11  N   UNL     1      40.648  -9.844   7.047  1.00  0.00    -0.320 N 
HETATM   12  C   UNL     1      40.910  -8.530   6.699  1.00  0.00     0.223 C 
HETATM   13  O   UNL     1      41.200  -8.107   5.585  1.00  0.00    -0.273 OA
HETATM   14  H   UNL     1      40.280 -10.004   7.983  1.00  0.00     0.169 HD
BRANCH  12  15
HETATM   15  C   UNL     1      40.787  -7.575   7.873  1.00  0.00     0.113 C 
BRANCH  15  16
HETATM   16  C   UNL     1      42.030  -6.714   8.064  1.00  0.00     0.088 C 
BRANCH  16  17
HETATM   17  S   UNL     1      43.398  -7.689   8.791  1.00  0.00    -0.130 SA
BRANCH  17  18
HETATM   18  C   UNL     1      43.134  -7.547  10.554  1.00  0.00     0.000 A 
HETATM   19  C   UNL     1      43.572  -8.471  11.508  1.00  0.00     0.020 A 
HETATM   20  C   UNL     1      43.308  -8.270  12.869  1.00  0.00     0.025 A 
HETATM   21  C   UNL     1      42.605  -7.144  13.284  1.00  0.00     0.034 A 
HETATM   22 CL   UNL     1      42.284  -6.900  14.954  1.00  0.00    -0.084 Cl
HETATM   23  C   UNL     1      42.161  -6.215  12.349  1.00  0.00     0.025 A 
HETATM   24  C   UNL     1      42.424  -6.418  10.991  1.00  0.00     0.020 A 
ENDBRANCH  17  18
ENDBRANCH  16  17
ENDBRANCH  15  16
ENDBRANCH  12  15
ENDBRANCH   7  11
BRANCH   6  25
HETATM   25  C   UNL     1      43.356 -11.301   6.757  1.00  0.00     0.252 C 
HETATM   26  N   UNL     1      43.468 -11.795   8.025  1.00  0.00    -0.366 N 
HETATM   27  H   UNL     1      42.857 -12.521   8.377  1.00  0.00     0.159 HD
HETATM   28  H   UNL     1      44.381 -11.721   8.457  1.00  0.00     0.159 HD
HETATM   29  O   UNL     1      44.292 -10.718   6.225  1.00  0.00    -0.268 OA
ENDBRANCH   6  25
BRANCH   1  30
HETATM   30  C   UNL     1      41.400 -15.911   4.198  1.00  0.00     0.273 C 
BRANCH  30  31
HETATM   31  C   UNL     1      42.391 -16.974   3.812  1.00  0.00    -0.033 A 
HETATM   32  C   UNL     1      43.398 -17.398   4.692  1.00  0.00     0.009 A 
HETATM   33  C   UNL     1      44.299 -18.393   4.305  1.00  0.00     0.001 A 
HETATM   34  C   UNL     1      44.193 -18.985   3.048  1.00  0.00     0.000 A 
HETATM   35  C   UNL     1      43.187 -18.583   2.173  1.00  0.00     0.001 A 
HETATM   36  C   UNL     1      42.292 -17.584   2.551  1.00  0.00     0.009 A 
ENDBRANCH  30  31
ENDBRANCH   1  30
TORSDOF 8
ENDMDL
MODEL 9
REMARK VINA RESULT:      -8.1      3.973     11.625
REMARK  8 active torsions:
REMARK  status: ('A' for Active; 'I' for Inactive)
REMARK    1  A    between atoms: C_4  and  C_5 
REMARK    2  A    between atoms: C_5  and  N_6 
REMARK    3  A    between atoms: C_11  and  C_12 
REMARK       I    between atoms: C_12  and  N_13 
REMARK    4  A    between atoms: C_15  and  N_16 
REMARK       I    between atoms: N_16  and  C_17 
REMARK    5  A    between atoms: C_17  and  C_18 
REMARK    6  A    between atoms: C_18  and  C_19 
REMARK    7  A    between atoms: C_19  and  S_20 
REMARK    8  A    between atoms: S_20  and  C_21 
ROOT
HETATM    1  N   UNL     1      42.252  -7.124  13.016  1.00  0.00    -0.063 N 
HETATM    2  H   UNL     1      42.607  -6.502  13.747  1.00  0.00     0.280 HD
HETATM    3  C   UNL     1      43.334  -8.181  12.814  1.00  0.00     0.282 C 
HETATM    4  C   UNL     1      43.181  -8.865  11.501  1.00  0.00     0.018 C 
HETATM    5  C   UNL     1      42.400  -8.426  10.452  1.00  0.00    -0.023 C 
HETATM    6  C   UNL     1      42.407  -9.364   9.349  1.00  0.00     0.073 C 
HETATM    7  C   UNL     1      43.373 -10.344   9.552  1.00  0.00     0.093 C 
HETATM    8  S   UNL     1      44.029 -10.278  11.123  1.00  0.00    -0.074 SA
HETATM    9  C   UNL     1      41.621  -7.141  10.549  1.00  0.00     0.068 C 
HETATM   10  C   UNL     1      42.073  -6.286  11.753  1.00  0.00     0.240 C 
ENDROOT
BRANCH   7  11
HETATM   11  N   UNL     1      43.846 -11.260   8.623  1.00  0.00    -0.320 N 
HETATM   12  C   UNL     1      44.814 -11.043   7.656  1.00  0.00     0.223 C 
HETATM   13  O   UNL     1      45.571 -10.082   7.574  1.00  0.00    -0.273 OA
HETATM   14  H   UNL     1      43.404 -12.176   8.628  1.00  0.00     0.169 HD
BRANCH  12  15
HETATM   15  C   UNL     1      44.889 -12.167   6.638  1.00  0.00     0.113 C 
BRANCH  15  16
HETATM   16  C   UNL     1      43.731 -13.150   6.759  1.00  0.00     0.088 C 
BRANCH  16  17
HETATM   17  S   UNL     1      42.661 -13.091   5.275  1.00  0.00    -0.130 SA
BRANCH  17  18
HETATM   18  C   UNL     1      42.955 -14.662   4.474  1.00  0.00     0.000 A 
HETATM   19  C   UNL     1      42.818 -14.901   3.104  1.00  0.00     0.020 A 
HETATM   20  C   UNL     1      43.067 -16.174   2.574  1.00  0.00     0.025 A 
HETATM   21  C   UNL     1      43.455 -17.214   3.412  1.00  0.00     0.034 A 
HETATM   22 CL   UNL     1      43.761 -18.774   2.758  1.00  0.00    -0.084 Cl
HETATM   23  C   UNL     1      43.595 -16.995   4.778  1.00  0.00     0.025 A 
HETATM   24  C   UNL     1      43.345 -15.724   5.305  1.00  0.00     0.020 A 
ENDBRANCH  17  18
ENDBRANCH  16  17
ENDBRANCH  15  16
ENDBRANCH  12  15
ENDBRANCH   7  11
BRANCH   6  25
HETATM   25  C   UNL     1      41.554  -9.241   8.168  1.00  0.00     0.252 C 
HETATM   26  N   UNL     1      40.241  -9.576   8.337  1.00  0.00    -0.366 N 
HETATM   27  H   UNL     1      39.821  -9.665   9.253  1.00  0.00     0.159 HD
HETATM   28  H   UNL     1      39.617  -9.353   7.571  1.00  0.00     0.159 HD
HETATM   29  O   UNL     1      41.954  -8.782   7.105  1.00  0.00    -0.268 OA
ENDBRANCH   6  25
BRANCH   1  30
HETATM   30  C   UNL     1      40.936  -7.665  13.532  1.00  0.00     0.273 C 
BRANCH  30  31
HETATM   31  C   UNL     1      40.615  -7.314  14.958  1.00  0.00    -0.033 A 
HETATM   32  C   UNL     1      39.602  -6.398  15.282  1.00  0.00     0.009 A 
HETATM   33  C   UNL     1      39.324  -6.098  16.617  1.00  0.00     0.001 A 
HETATM   34  C   UNL     1      40.038  -6.721  17.639  1.00  0.00     0.000 A 
HETATM   35  C   UNL     1      41.033  -7.644  17.330  1.00  0.00     0.001 A 
HETATM   36  C   UNL     1      41.321  -7.939  15.998  1.00  0.00     0.009 A 
ENDBRANCH  30  31
ENDBRANCH   1  30
TORSDOF 8
ENDMDL
MODEL 10
REMARK VINA RESULT:      -8.0      3.833     10.510
REMARK  8 active torsions:
REMARK  status: ('A' for Active; 'I' for Inactive)
REMARK    1  A    between atoms: C_4  and  C_5 
REMARK    2  A    between atoms: C_5  and  N_6 
REMARK    3  A    between atoms: C_11  and  C_12 
REMARK       I    between atoms: C_12  and  N_13 
REMARK    4  A    between atoms: C_15  and  N_16 
REMARK       I    between atoms: N_16  and  C_17 
REMARK    5  A    between atoms: C_17  and  C_18 
REMARK    6  A    between atoms: C_18  and  C_19 
REMARK    7  A    between atoms: C_19  and  S_20 
REMARK    8  A    between atoms: S_20  and  C_21 
ROOT
HETATM    1  N   UNL     1      42.751  -7.716   8.769  1.00  0.00    -0.063 N 
HETATM    2  H   UNL     1      43.167  -6.810   9.004  1.00  0.00     0.280 HD
HETATM    3  C   UNL     1      43.919  -8.692   8.670  1.00  0.00     0.282 C 
HETATM    4  C   UNL     1      43.541  -9.909   7.902  1.00  0.00     0.018 C 
HETATM    5  C   UNL     1      42.424 -10.040   7.102  1.00  0.00    -0.023 C 
HETATM    6  C   UNL     1      42.305 -11.378   6.562  1.00  0.00     0.073 C 
HETATM    7  C   UNL     1      43.464 -12.106   6.812  1.00  0.00     0.093 C 
HETATM    8  S   UNL     1      44.510 -11.293   7.883  1.00  0.00    -0.074 SA
HETATM    9  C   UNL     1      41.465  -8.894   6.914  1.00  0.00     0.068 C 
HETATM   10  C   UNL     1      42.059  -7.561   7.417  1.00  0.00     0.240 C 
ENDROOT
BRANCH   7  11
HETATM   11  N   UNL     1      43.827 -13.322   6.249  1.00  0.00    -0.320 N 
HETATM   12  C   UNL     1      43.596 -14.584   6.768  1.00  0.00     0.223 C 
HETATM   13  O   UNL     1      42.856 -14.873   7.703  1.00  0.00    -0.273 OA
HETATM   14  H   UNL     1      44.356 -13.275   5.380  1.00  0.00     0.169 HD
BRANCH  12  15
HETATM   15  C   UNL     1      44.365 -15.670   6.036  1.00  0.00     0.113 C 
BRANCH  15  16
HETATM   16  C   UNL     1      43.833 -17.068   6.330  1.00  0.00     0.088 C 
BRANCH  16  17
HETATM   17  S   UNL     1      43.845 -18.105   4.821  1.00  0.00    -0.130 SA
BRANCH  17  18
HETATM   18  C   UNL     1      42.992 -17.104   3.609  1.00  0.00     0.000 A 
HETATM   19  C   UNL     1      43.528 -16.700   2.383  1.00  0.00     0.020 A 
HETATM   20  C   UNL     1      42.778 -15.909   1.503  1.00  0.00     0.025 A 
HETATM   21  C   UNL     1      41.487 -15.520   1.843  1.00  0.00     0.034 A 
HETATM   22 CL   UNL     1      40.569 -14.551   0.760  1.00  0.00    -0.084 Cl
HETATM   23  C   UNL     1      40.938 -15.912   3.059  1.00  0.00     0.025 A 
HETATM   24  C   UNL     1      41.689 -16.699   3.937  1.00  0.00     0.020 A 
ENDBRANCH  17  18
ENDBRANCH  16  17
ENDBRANCH  15  16
ENDBRANCH  12  15
ENDBRANCH   7  11
BRANCH   6  25
HETATM   25  C   UNL     1      41.146 -11.854   5.809  1.00  0.00     0.252 C 
HETATM   26  N   UNL     1      40.272 -12.650   6.489  1.00  0.00    -0.366 N 
HETATM   27  H   UNL     1      40.274 -12.714   7.499  1.00  0.00     0.159 HD
HETATM   28  H   UNL     1      39.397 -12.859   6.023  1.00  0.00     0.159 HD
HETATM   29  O   UNL     1      40.910 -11.498   4.660  1.00  0.00    -0.268 OA
ENDBRANCH   6  25
BRANCH   1  30
HETATM   30  C   UNL     1      41.769  -8.023   9.879  1.00  0.00     0.273 C 
BRANCH  30  31
HETATM   31  C   UNL     1      42.154  -7.503  11.236  1.00  0.00    -0.033 A 
HETATM   32  C   UNL     1      42.762  -8.327  12.196  1.00  0.00     0.009 A 
HETATM   33  C   UNL     1      43.114  -7.812  13.446  1.00  0.00     0.001 A 
HETATM   34  C   UNL     1      42.880  -6.470  13.741  1.00  0.00     0.000 A 
HETATM   35  C   UNL     1      42.294  -5.640  12.791  1.00  0.00     0.001 A 
HETATM   36  C   UNL     1      41.932  -6.152  11.546  1.00  0.00     0.009 A 
ENDBRANCH  30  31
ENDBRANCH   1  30
TORSDOF 8
ENDMDL
