MODEL 1
REMARK VINA RESULT:      -9.8      0.000      0.000
REMARK  5 active torsions:
REMARK  status: ('A' for Active; 'I' for Inactive)
REMARK    1  A    between atoms: C_5  and  N_6 
REMARK       I    between atoms: N_6  and  C_7 
REMARK       I    between atoms: C_7  and  N_8 
REMARK    2  A    between atoms: N_8  and  C_9 
REMARK    3  A    between atoms: C_12  and  C_13 
REMARK    4  A    between atoms: C_13  and  C_14 
REMARK       I    between atoms: C_14  and  N_15 
REMARK    5  A    between atoms: N_15  and  C_16 
ROOT
HETATM    1  C   UNL     1      43.079 -13.179   6.487  1.00  0.00     0.174 A 
HETATM    2  S   UNL     1      42.667 -12.378   5.045  1.00  0.00    -0.062 SA
HETATM    3  C   UNL     1      44.032 -11.355   5.251  1.00  0.00     0.081 A 
HETATM    4  C   UNL     1      44.710 -11.694   6.408  1.00  0.00     0.052 A 
HETATM    5  N   UNL     1      44.141 -12.747   7.124  1.00  0.00    -0.228 NA
ENDROOT
BRANCH   1   6
HETATM    6  N   UNL     1      42.267 -14.218   6.830  1.00  0.00    -0.287 N 
HETATM    7  C   UNL     1      42.265 -15.465   6.265  1.00  0.00     0.326 C 
HETATM    8  N   UNL     1      43.262 -15.731   5.363  1.00  0.00    -0.309 N 
HETATM    9  O   UNL     1      41.374 -16.240   6.605  1.00  0.00    -0.247 OA
HETATM   10  H   UNL     1      43.997 -15.032   5.323  1.00  0.00     0.170 HD
HETATM   11  H   UNL     1      41.539 -14.050   7.509  1.00  0.00     0.172 HD
BRANCH   8  12
HETATM   12  C   UNL     1      43.437 -16.873   4.559  1.00  0.00     0.036 A 
HETATM   13  C   UNL     1      44.162 -17.997   4.950  1.00  0.00     0.030 A 
HETATM   14  C   UNL     1      44.267 -19.104   4.099  1.00  0.00     0.009 A 
HETATM   15  C   UNL     1      43.639 -19.106   2.848  1.00  0.00    -0.062 A 
HETATM   16  C   UNL     1      43.788 -20.285   1.933  1.00  0.00     0.048 C 
HETATM   17  C   UNL     1      42.918 -17.976   2.454  1.00  0.00     0.009 A 
HETATM   18  C   UNL     1      42.814 -16.871   3.305  1.00  0.00     0.030 A 
ENDBRANCH   8  12
ENDBRANCH   1   6
BRANCH   4  19
HETATM   19  C   UNL     1      45.950 -11.050   6.946  1.00  0.00     0.163 C 
BRANCH  19  20
HETATM   20  C   UNL     1      45.696  -9.866   7.873  1.00  0.00     0.227 C 
HETATM   21  N   UNL     1      44.484  -9.899   8.540  1.00  0.00    -0.327 N 
HETATM   22  H   UNL     1      43.957 -10.766   8.454  1.00  0.00     0.169 HD
HETATM   23  O   UNL     1      46.511  -8.946   7.923  1.00  0.00    -0.273 OA
BRANCH  21  24
HETATM   24  C   UNL     1      43.912  -8.910   9.363  1.00  0.00     0.036 A 
HETATM   25  C   UNL     1      43.814  -9.009  10.754  1.00  0.00     0.056 A 
HETATM   26  C   UNL     1      43.257  -7.960  11.492  1.00  0.00     0.074 A 
HETATM   27 CL   UNL     1      43.157  -8.091  13.207  1.00  0.00    -0.081 Cl
HETATM   28  C   UNL     1      42.794  -6.817  10.846  1.00  0.00     0.138 A 
HETATM   29  F   UNL     1      42.260  -5.802  11.540  1.00  0.00    -0.204 F 
HETATM   30  C   UNL     1      42.880  -6.708   9.464  1.00  0.00     0.046 A 
HETATM   31  C   UNL     1      43.438  -7.754   8.725  1.00  0.00     0.032 A 
ENDBRANCH  21  24
ENDBRANCH  19  20
ENDBRANCH   4  19
TORSDOF 5
ENDMDL
MODEL 2
REMARK VINA RESULT:      -9.7      5.577      7.698
REMARK  5 active torsions:
REMARK  status: ('A' for Active; 'I' for Inactive)
REMARK    1  A    between atoms: C_5  and  N_6 
REMARK       I    between atoms: N_6  and  C_7 
REMARK       I    between atoms: C_7  and  N_8 
REMARK    2  A    between atoms: N_8  and  C_9 
REMARK    3  A    between atoms: C_12  and  C_13 
REMARK    4  A    between atoms: C_13  and  C_14 
REMARK       I    between atoms: C_14  and  N_15 
REMARK    5  A    between atoms: N_15  and  C_16 
ROOT
HETATM    1  C   UNL     1      42.794 -13.140   6.235  1.00  0.00     0.174 A 
HETATM    2  S   UNL     1      44.147 -12.359   6.906  1.00  0.00    -0.062 SA
HETATM    3  C   UNL     1      43.986 -11.118   5.731  1.00  0.00     0.081 A 
HETATM    4  C   UNL     1      42.909 -11.383   4.903  1.00  0.00     0.052 A 
HETATM    5  N   UNL     1      42.231 -12.566   5.198  1.00  0.00    -0.228 NA
ENDROOT
BRANCH   1   6
HETATM    6  N   UNL     1      42.411 -14.286   6.863  1.00  0.00    -0.287 N 
HETATM    7  C   UNL     1      42.521 -15.557   6.366  1.00  0.00     0.326 C 
HETATM    8  N   UNL     1      43.202 -15.696   5.185  1.00  0.00    -0.309 N 
HETATM    9  O   UNL     1      42.002 -16.466   7.011  1.00  0.00    -0.247 OA
HETATM   10  H   UNL     1      43.694 -14.864   4.877  1.00  0.00     0.170 HD
HETATM   11  H   UNL     1      41.927 -14.208   7.745  1.00  0.00     0.172 HD
BRANCH   8  12
HETATM   12  C   UNL     1      43.371 -16.852   4.400  1.00  0.00     0.036 A 
HETATM   13  C   UNL     1      44.181 -17.927   4.761  1.00  0.00     0.030 A 
HETATM   14  C   UNL     1      44.275 -19.053   3.934  1.00  0.00     0.009 A 
HETATM   15  C   UNL     1      43.552 -19.125   2.739  1.00  0.00    -0.062 A 
HETATM   16  C   UNL     1      43.688 -20.322   1.846  1.00  0.00     0.048 C 
HETATM   17  C   UNL     1      42.745 -18.045   2.374  1.00  0.00     0.009 A 
HETATM   18  C   UNL     1      42.652 -16.920   3.200  1.00  0.00     0.030 A 
ENDBRANCH   8  12
ENDBRANCH   1   6
BRANCH   4  19
HETATM   19  C   UNL     1      42.427 -10.550   3.756  1.00  0.00     0.163 C 
BRANCH  19  20
HETATM   20  C   UNL     1      41.363 -11.220   2.892  1.00  0.00     0.227 C 
HETATM   21  N   UNL     1      41.815 -12.285   2.134  1.00  0.00    -0.327 N 
HETATM   22  H   UNL     1      42.764 -12.598   2.335  1.00  0.00     0.169 HD
HETATM   23  O   UNL     1      40.226 -10.754   2.858  1.00  0.00    -0.273 OA
BRANCH  21  24
HETATM   24  C   UNL     1      41.117 -13.025   1.161  1.00  0.00     0.036 A 
HETATM   25  C   UNL     1      40.874 -12.576  -0.139  1.00  0.00     0.056 A 
HETATM   26  C   UNL     1      40.197 -13.395  -1.048  1.00  0.00     0.074 A 
HETATM   27 CL   UNL     1      39.919 -12.832  -2.652  1.00  0.00    -0.081 Cl
HETATM   28  C   UNL     1      39.758 -14.659  -0.660  1.00  0.00     0.138 A 
HETATM   29  F   UNL     1      39.111 -15.457  -1.520  1.00  0.00    -0.204 F 
HETATM   30  C   UNL     1      39.988 -15.115   0.632  1.00  0.00     0.046 A 
HETATM   31  C   UNL     1      40.666 -14.299   1.540  1.00  0.00     0.032 A 
ENDBRANCH  21  24
ENDBRANCH  19  20
ENDBRANCH   4  19
TORSDOF 5
ENDMDL
MODEL 3
REMARK VINA RESULT:      -9.5      4.491     10.166
REMARK  5 active torsions:
REMARK  status: ('A' for Active; 'I' for Inactive)
REMARK    1  A    between atoms: C_5  and  N_6 
REMARK       I    between atoms: N_6  and  C_7 
REMARK       I    between atoms: C_7  and  N_8 
REMARK    2  A    between atoms: N_8  and  C_9 
REMARK    3  A    between atoms: C_12  and  C_13 
REMARK    4  A    between atoms: C_13  and  C_14 
REMARK       I    between atoms: C_14  and  N_15 
REMARK    5  A    between atoms: N_15  and  C_16 
ROOT
HETATM    1  C   UNL     1      43.713 -12.181   6.056  1.00  0.00     0.174 A 
HETATM    2  S   UNL     1      43.276 -11.356   4.635  1.00  0.00    -0.062 SA
HETATM    3  C   UNL     1      41.849 -12.308   4.548  1.00  0.00     0.081 A 
HETATM    4  C   UNL     1      41.802 -13.193   5.611  1.00  0.00     0.052 A 
HETATM    5  N   UNL     1      42.896 -13.118   6.473  1.00  0.00    -0.228 NA
ENDROOT
BRANCH   1   6
HETATM    6  N   UNL     1      44.872 -11.765   6.639  1.00  0.00    -0.287 N 
HETATM    7  C   UNL     1      44.986 -11.094   7.827  1.00  0.00     0.326 C 
HETATM    8  N   UNL     1      43.838 -10.946   8.559  1.00  0.00    -0.309 N 
HETATM    9  O   UNL     1      46.100 -10.678   8.138  1.00  0.00    -0.247 OA
HETATM   10  H   UNL     1      43.046 -11.487   8.224  1.00  0.00     0.170 HD
HETATM   11  H   UNL     1      45.733 -11.885   6.126  1.00  0.00     0.172 HD
BRANCH   8  12
HETATM   12  C   UNL     1      43.642 -10.215   9.746  1.00  0.00     0.036 A 
HETATM   13  C   UNL     1      43.592 -10.789  11.015  1.00  0.00     0.030 A 
HETATM   14  C   UNL     1      43.419  -9.987  12.149  1.00  0.00     0.009 A 
HETATM   15  C   UNL     1      43.303  -8.598  12.032  1.00  0.00    -0.062 A 
HETATM   16  C   UNL     1      43.084  -7.753  13.252  1.00  0.00     0.048 C 
HETATM   17  C   UNL     1      43.347  -8.023  10.759  1.00  0.00     0.009 A 
HETATM   18  C   UNL     1      43.519  -8.825   9.626  1.00  0.00     0.030 A 
ENDBRANCH   8  12
ENDBRANCH   1   6
BRANCH   4  19
HETATM   19  C   UNL     1      40.727 -14.193   5.904  1.00  0.00     0.163 C 
BRANCH  19  20
HETATM   20  C   UNL     1      41.053 -15.617   5.463  1.00  0.00     0.227 C 
HETATM   21  N   UNL     1      42.282 -15.769   4.846  1.00  0.00    -0.327 N 
HETATM   22  H   UNL     1      42.894 -14.955   4.877  1.00  0.00     0.169 HD
HETATM   23  O   UNL     1      40.213 -16.505   5.605  1.00  0.00    -0.273 OA
BRANCH  21  24
HETATM   24  C   UNL     1      42.815 -16.917   4.230  1.00  0.00     0.036 A 
HETATM   25  C   UNL     1      43.397 -17.980   4.925  1.00  0.00     0.056 A 
HETATM   26  C   UNL     1      43.872 -19.096   4.228  1.00  0.00     0.074 A 
HETATM   27 CL   UNL     1      44.573 -20.405   5.101  1.00  0.00    -0.081 Cl
HETATM   28  C   UNL     1      43.773 -19.148   2.840  1.00  0.00     0.138 A 
HETATM   29  F   UNL     1      44.221 -20.212   2.158  1.00  0.00    -0.204 F 
HETATM   30  C   UNL     1      43.202 -18.096   2.136  1.00  0.00     0.046 A 
HETATM   31  C   UNL     1      42.725 -16.982   2.831  1.00  0.00     0.032 A 
ENDBRANCH  21  24
ENDBRANCH  19  20
ENDBRANCH   4  19
TORSDOF 5
ENDMDL
MODEL 4
REMARK VINA RESULT:      -9.0      4.794      9.227
REMARK  5 active torsions:
REMARK  status: ('A' for Active; 'I' for Inactive)
REMARK    1  A    between atoms: C_5  and  N_6 
REMARK       I    between atoms: N_6  and  C_7 
REMARK       I    between atoms: C_7  and  N_8 
REMARK    2  A    between atoms: N_8  and  C_9 
REMARK    3  A    between atoms: C_12  and  C_13 
REMARK    4  A    between atoms: C_13  and  C_14 
REMARK       I    between atoms: C_14  and  N_15 
REMARK    5  A    between atoms: N_15  and  C_16 
ROOT
HETATM    1  C   UNL     1      39.455 -12.911   3.320  1.00  0.00     0.174 A 
HETATM    2  S   UNL     1      38.689 -11.856   2.228  1.00  0.00    -0.062 SA
HETATM    3  C   UNL     1      39.488 -12.652   0.933  1.00  0.00     0.081 A 
HETATM    4  C   UNL     1      40.288 -13.671   1.421  1.00  0.00     0.052 A 
HETATM    5  N   UNL     1      40.270 -13.804   2.809  1.00  0.00    -0.228 NA
ENDROOT
BRANCH   1   6
HETATM    6  N   UNL     1      39.126 -12.736   4.630  1.00  0.00    -0.287 N 
HETATM    7  C   UNL     1      39.963 -12.307   5.625  1.00  0.00     0.326 C 
HETATM    8  N   UNL     1      41.209 -11.888   5.239  1.00  0.00    -0.309 N 
HETATM    9  O   UNL     1      39.535 -12.333   6.777  1.00  0.00    -0.247 OA
HETATM   10  H   UNL     1      41.333 -11.787   4.236  1.00  0.00     0.170 HD
HETATM   11  H   UNL     1      38.205 -13.018   4.931  1.00  0.00     0.172 HD
BRANCH   8  12
HETATM   12  C   UNL     1      42.295 -11.505   6.047  1.00  0.00     0.036 A 
HETATM   13  C   UNL     1      42.369 -10.292   6.730  1.00  0.00     0.030 A 
HETATM   14  C   UNL     1      43.476  -9.998   7.535  1.00  0.00     0.009 A 
HETATM   15  C   UNL     1      44.521 -10.918   7.678  1.00  0.00    -0.062 A 
HETATM   16  C   UNL     1      45.717 -10.576   8.517  1.00  0.00     0.048 C 
HETATM   17  C   UNL     1      44.450 -12.131   6.989  1.00  0.00     0.009 A 
HETATM   18  C   UNL     1      43.344 -12.423   6.184  1.00  0.00     0.030 A 
ENDBRANCH   8  12
ENDBRANCH   1   6
BRANCH   4  19
HETATM   19  C   UNL     1      41.146 -14.603   0.624  1.00  0.00     0.163 C 
BRANCH  19  20
HETATM   20  C   UNL     1      42.242 -15.296   1.427  1.00  0.00     0.227 C 
HETATM   21  N   UNL     1      41.880 -16.512   1.979  1.00  0.00    -0.327 N 
HETATM   22  H   UNL     1      40.979 -16.881   1.679  1.00  0.00     0.169 HD
HETATM   23  O   UNL     1      43.320 -14.729   1.598  1.00  0.00    -0.273 OA
BRANCH  21  24
HETATM   24  C   UNL     1      42.617 -17.327   2.859  1.00  0.00     0.036 A 
HETATM   25  C   UNL     1      42.816 -17.040   4.212  1.00  0.00     0.056 A 
HETATM   26  C   UNL     1      43.538 -17.927   5.017  1.00  0.00     0.074 A 
HETATM   27 CL   UNL     1      43.761 -17.566   6.686  1.00  0.00    -0.081 Cl
HETATM   28  C   UNL     1      44.064 -19.096   4.473  1.00  0.00     0.138 A 
HETATM   29  F   UNL     1      44.755 -19.958   5.232  1.00  0.00    -0.204 F 
HETATM   30  C   UNL     1      43.877 -19.391   3.128  1.00  0.00     0.046 A 
HETATM   31  C   UNL     1      43.155 -18.507   2.324  1.00  0.00     0.032 A 
ENDBRANCH  21  24
ENDBRANCH  19  20
ENDBRANCH   4  19
TORSDOF 5
ENDMDL
MODEL 5
REMARK VINA RESULT:      -8.8      1.884      2.382
REMARK  5 active torsions:
REMARK  status: ('A' for Active; 'I' for Inactive)
REMARK    1  A    between atoms: C_5  and  N_6 
REMARK       I    between atoms: N_6  and  C_7 
REMARK       I    between atoms: C_7  and  N_8 
REMARK    2  A    between atoms: N_8  and  C_9 
REMARK    3  A    between atoms: C_12  and  C_13 
REMARK    4  A    between atoms: C_13  and  C_14 
REMARK       I    between atoms: C_14  and  N_15 
REMARK    5  A    between atoms: N_15  and  C_16 
ROOT
HETATM    1  C   UNL     1      43.190 -12.308   6.794  1.00  0.00     0.174 A 
HETATM    2  S   UNL     1      43.943 -12.023   5.297  1.00  0.00    -0.062 SA
HETATM    3  C   UNL     1      45.141 -11.092   6.102  1.00  0.00     0.081 A 
HETATM    4  C   UNL     1      44.885 -11.061   7.461  1.00  0.00     0.052 A 
HETATM    5  N   UNL     1      43.743 -11.760   7.850  1.00  0.00    -0.228 NA
ENDROOT
BRANCH   1   6
HETATM    6  N   UNL     1      42.085 -13.104   6.751  1.00  0.00    -0.287 N 
HETATM    7  C   UNL     1      41.981 -14.309   6.110  1.00  0.00     0.326 C 
HETATM    8  N   UNL     1      43.135 -14.821   5.577  1.00  0.00    -0.309 N 
HETATM    9  O   UNL     1      40.869 -14.831   6.060  1.00  0.00    -0.247 OA
HETATM   10  H   UNL     1      43.983 -14.333   5.848  1.00  0.00     0.170 HD
HETATM   11  H   UNL     1      41.230 -12.755   7.157  1.00  0.00     0.172 HD
BRANCH   8  12
HETATM   12  C   UNL     1      43.299 -15.970   4.781  1.00  0.00     0.036 A 
HETATM   13  C   UNL     1      42.869 -16.070   3.458  1.00  0.00     0.030 A 
HETATM   14  C   UNL     1      43.094 -17.242   2.726  1.00  0.00     0.009 A 
HETATM   15  C   UNL     1      43.760 -18.329   3.302  1.00  0.00    -0.062 A 
HETATM   16  C   UNL     1      43.964 -19.590   2.518  1.00  0.00     0.048 C 
HETATM   17  C   UNL     1      44.185 -18.231   4.630  1.00  0.00     0.009 A 
HETATM   18  C   UNL     1      43.960 -17.060   5.361  1.00  0.00     0.030 A 
ENDBRANCH   8  12
ENDBRANCH   1   6
BRANCH   4  19
HETATM   19  C   UNL     1      45.690 -10.362   8.513  1.00  0.00     0.163 C 
BRANCH  19  20
HETATM   20  C   UNL     1      45.064 -10.384   9.904  1.00  0.00     0.227 C 
HETATM   21  N   UNL     1      43.905  -9.639  10.033  1.00  0.00    -0.327 N 
HETATM   22  H   UNL     1      43.517  -9.275   9.164  1.00  0.00     0.169 HD
HETATM   23  O   UNL     1      45.636 -10.975  10.819  1.00  0.00    -0.273 OA
BRANCH  21  24
HETATM   24  C   UNL     1      43.166  -9.366  11.200  1.00  0.00     0.036 A 
HETATM   25  C   UNL     1      41.981 -10.020  11.547  1.00  0.00     0.056 A 
HETATM   26  C   UNL     1      41.332  -9.702  12.745  1.00  0.00     0.074 A 
HETATM   27 CL   UNL     1      39.880 -10.528  13.166  1.00  0.00    -0.081 Cl
HETATM   28  C   UNL     1      41.861  -8.732  13.592  1.00  0.00     0.138 A 
HETATM   29  F   UNL     1      41.252  -8.418  14.744  1.00  0.00    -0.204 F 
HETATM   30  C   UNL     1      43.035  -8.071  13.256  1.00  0.00     0.046 A 
HETATM   31  C   UNL     1      43.686  -8.388  12.061  1.00  0.00     0.032 A 
ENDBRANCH  21  24
ENDBRANCH  19  20
ENDBRANCH   4  19
TORSDOF 5
ENDMDL
MODEL 6
REMARK VINA RESULT:      -8.8      6.179      9.036
REMARK  5 active torsions:
REMARK  status: ('A' for Active; 'I' for Inactive)
REMARK    1  A    between atoms: C_5  and  N_6 
REMARK       I    between atoms: N_6  and  C_7 
REMARK       I    between atoms: C_7  and  N_8 
REMARK    2  A    between atoms: N_8  and  C_9 
REMARK    3  A    between atoms: C_12  and  C_13 
REMARK    4  A    between atoms: C_13  and  C_14 
REMARK       I    between atoms: C_14  and  N_15 
REMARK    5  A    between atoms: N_15  and  C_16 
ROOT
HETATM    1  C   UNL     1      39.159 -11.952   2.995  1.00  0.00     0.174 A 
HETATM    2  S   UNL     1      38.448 -10.840   1.923  1.00  0.00    -0.062 SA
HETATM    3  C   UNL     1      38.955 -11.819   0.606  1.00  0.00     0.081 A 
HETATM    4  C   UNL     1      39.634 -12.931   1.074  1.00  0.00     0.052 A 
HETATM    5  N   UNL     1      39.756 -12.991   2.462  1.00  0.00    -0.228 NA
ENDROOT
BRANCH   1   6
HETATM    6  N   UNL     1      39.015 -11.660   4.318  1.00  0.00    -0.287 N 
HETATM    7  C   UNL     1      39.658 -12.277   5.357  1.00  0.00     0.326 C 
HETATM    8  N   UNL     1      40.634 -13.180   5.024  1.00  0.00    -0.309 N 
HETATM    9  O   UNL     1      39.310 -11.978   6.497  1.00  0.00    -0.247 OA
HETATM   10  H   UNL     1      40.894 -13.184   4.043  1.00  0.00     0.170 HD
HETATM   11  H   UNL     1      38.317 -10.982   4.583  1.00  0.00     0.172 HD
BRANCH   8  12
HETATM   12  C   UNL     1      41.369 -14.029   5.872  1.00  0.00     0.036 A 
HETATM   13  C   UNL     1      40.931 -15.286   6.286  1.00  0.00     0.030 A 
HETATM   14  C   UNL     1      41.735 -16.081   7.112  1.00  0.00     0.009 A 
HETATM   15  C   UNL     1      42.994 -15.635   7.527  1.00  0.00    -0.062 A 
HETATM   16  C   UNL     1      43.831 -16.482   8.439  1.00  0.00     0.048 C 
HETATM   17  C   UNL     1      43.431 -14.372   7.118  1.00  0.00     0.009 A 
HETATM   18  C   UNL     1      42.627 -13.579   6.293  1.00  0.00     0.030 A 
ENDBRANCH   8  12
ENDBRANCH   1   6
BRANCH   4  19
HETATM   19  C   UNL     1      40.234 -14.030   0.254  1.00  0.00     0.163 C 
BRANCH  19  20
HETATM   20  C   UNL     1      40.583 -15.288   1.044  1.00  0.00     0.227 C 
HETATM   21  N   UNL     1      41.854 -15.297   1.593  1.00  0.00    -0.327 N 
HETATM   22  H   UNL     1      42.365 -14.418   1.534  1.00  0.00     0.169 HD
HETATM   23  O   UNL     1      39.782 -16.220   1.089  1.00  0.00    -0.273 OA
BRANCH  21  24
HETATM   24  C   UNL     1      42.508 -16.346   2.266  1.00  0.00     0.036 A 
HETATM   25  C   UNL     1      42.562 -17.662   1.801  1.00  0.00     0.056 A 
HETATM   26  C   UNL     1      43.264 -18.632   2.524  1.00  0.00     0.074 A 
HETATM   27 CL   UNL     1      43.334 -20.247   1.929  1.00  0.00    -0.081 Cl
HETATM   28  C   UNL     1      43.906 -18.291   3.712  1.00  0.00     0.138 A 
HETATM   29  F   UNL     1      44.585 -19.209   4.415  1.00  0.00    -0.204 F 
HETATM   30  C   UNL     1      43.856 -16.987   4.189  1.00  0.00     0.046 A 
HETATM   31  C   UNL     1      43.157 -16.017   3.467  1.00  0.00     0.032 A 
ENDBRANCH  21  24
ENDBRANCH  19  20
ENDBRANCH   4  19
TORSDOF 5
ENDMDL
MODEL 7
REMARK VINA RESULT:      -8.7      5.961      8.967
REMARK  5 active torsions:
REMARK  status: ('A' for Active; 'I' for Inactive)
REMARK    1  A    between atoms: C_5  and  N_6 
REMARK       I    between atoms: N_6  and  C_7 
REMARK       I    between atoms: C_7  and  N_8 
REMARK    2  A    between atoms: N_8  and  C_9 
REMARK    3  A    between atoms: C_12  and  C_13 
REMARK    4  A    between atoms: C_13  and  C_14 
REMARK       I    between atoms: C_14  and  N_15 
REMARK    5  A    between atoms: N_15  and  C_16 
ROOT
HETATM    1  C   UNL     1      42.248 -11.006   4.054  1.00  0.00     0.174 A 
HETATM    2  S   UNL     1      41.402 -10.196   5.286  1.00  0.00    -0.062 SA
HETATM    3  C   UNL     1      41.778 -11.482   6.360  1.00  0.00     0.081 A 
HETATM    4  C   UNL     1      42.524 -12.446   5.705  1.00  0.00     0.052 A 
HETATM    5  N   UNL     1      42.781 -12.165   4.363  1.00  0.00    -0.228 NA
ENDROOT
BRANCH   1   6
HETATM    6  N   UNL     1      42.308 -10.354   2.860  1.00  0.00    -0.287 N 
HETATM    7  C   UNL     1      41.774 -10.784   1.674  1.00  0.00     0.326 C 
HETATM    8  N   UNL     1      40.995 -11.909   1.726  1.00  0.00    -0.309 N 
HETATM    9  O   UNL     1      42.038 -10.133   0.665  1.00  0.00    -0.247 OA
HETATM   10  H   UNL     1      40.760 -12.222   2.663  1.00  0.00     0.170 HD
HETATM   11  H   UNL     1      42.859  -9.510   2.805  1.00  0.00     0.172 HD
BRANCH   8  12
HETATM   12  C   UNL     1      40.419 -12.627   0.661  1.00  0.00     0.036 A 
HETATM   13  C   UNL     1      39.783 -12.031  -0.427  1.00  0.00     0.030 A 
HETATM   14  C   UNL     1      39.258 -12.817  -1.459  1.00  0.00     0.009 A 
HETATM   15  C   UNL     1      39.368 -14.211  -1.423  1.00  0.00    -0.062 A 
HETATM   16  C   UNL     1      38.771 -15.043  -2.518  1.00  0.00     0.048 C 
HETATM   17  C   UNL     1      40.000 -14.809  -0.329  1.00  0.00     0.009 A 
HETATM   18  C   UNL     1      40.524 -14.023   0.702  1.00  0.00     0.030 A 
ENDBRANCH   8  12
ENDBRANCH   1   6
BRANCH   4  19
HETATM   19  C   UNL     1      43.054 -13.722   6.282  1.00  0.00     0.163 C 
BRANCH  19  20
HETATM   20  C   UNL     1      42.634 -14.979   5.528  1.00  0.00     0.227 C 
HETATM   21  N   UNL     1      43.676 -15.806   5.148  1.00  0.00    -0.327 N 
HETATM   22  H   UNL     1      44.591 -15.565   5.528  1.00  0.00     0.169 HD
HETATM   23  O   UNL     1      41.449 -15.151   5.244  1.00  0.00    -0.273 OA
BRANCH  21  24
HETATM   24  C   UNL     1      43.628 -16.963   4.348  1.00  0.00     0.036 A 
HETATM   25  C   UNL     1      43.961 -18.242   4.800  1.00  0.00     0.056 A 
HETATM   26  C   UNL     1      43.852 -19.340   3.940  1.00  0.00     0.074 A 
HETATM   27 CL   UNL     1      44.253 -20.912   4.518  1.00  0.00    -0.081 Cl
HETATM   28  C   UNL     1      43.415 -19.162   2.630  1.00  0.00     0.138 A 
HETATM   29  F   UNL     1      43.302 -20.204   1.794  1.00  0.00    -0.204 F 
HETATM   30  C   UNL     1      43.085 -17.895   2.166  1.00  0.00     0.046 A 
HETATM   31  C   UNL     1      43.192 -16.798   3.024  1.00  0.00     0.032 A 
ENDBRANCH  21  24
ENDBRANCH  19  20
ENDBRANCH   4  19
TORSDOF 5
ENDMDL
MODEL 8
REMARK VINA RESULT:      -8.7      3.712      7.615
REMARK  5 active torsions:
REMARK  status: ('A' for Active; 'I' for Inactive)
REMARK    1  A    between atoms: C_5  and  N_6 
REMARK       I    between atoms: N_6  and  C_7 
REMARK       I    between atoms: C_7  and  N_8 
REMARK    2  A    between atoms: N_8  and  C_9 
REMARK    3  A    between atoms: C_12  and  C_13 
REMARK    4  A    between atoms: C_13  and  C_14 
REMARK       I    between atoms: C_14  and  N_15 
REMARK    5  A    between atoms: N_15  and  C_16 
ROOT
HETATM    1  C   UNL     1      43.178 -12.111   6.516  1.00  0.00     0.174 A 
HETATM    2  S   UNL     1      43.061 -13.625   5.749  1.00  0.00    -0.062 SA
HETATM    3  C   UNL     1      41.473 -13.218   5.238  1.00  0.00     0.081 A 
HETATM    4  C   UNL     1      41.137 -11.953   5.687  1.00  0.00     0.052 A 
HETATM    5  N   UNL     1      42.130 -11.325   6.439  1.00  0.00    -0.228 NA
ENDROOT
BRANCH   1   6
HETATM    6  N   UNL     1      44.370 -11.855   7.123  1.00  0.00    -0.287 N 
HETATM    7  C   UNL     1      44.557 -11.119   8.262  1.00  0.00     0.326 C 
HETATM    8  N   UNL     1      43.426 -10.718   8.924  1.00  0.00    -0.309 N 
HETATM    9  O   UNL     1      45.714 -10.876   8.597  1.00  0.00    -0.247 OA
HETATM   10  H   UNL     1      42.566 -11.141   8.592  1.00  0.00     0.170 HD
HETATM   11  H   UNL     1      45.215 -12.161   6.663  1.00  0.00     0.172 HD
BRANCH   8  12
HETATM   12  C   UNL     1      43.319  -9.872  10.044  1.00  0.00     0.036 A 
HETATM   13  C   UNL     1      43.217  -8.484   9.963  1.00  0.00     0.030 A 
HETATM   14  C   UNL     1      43.089  -7.714  11.126  1.00  0.00     0.009 A 
HETATM   15  C   UNL     1      43.051  -8.322  12.385  1.00  0.00    -0.062 A 
HETATM   16  C   UNL     1      42.947  -7.483  13.624  1.00  0.00     0.048 C 
HETATM   17  C   UNL     1      43.160  -9.712  12.466  1.00  0.00     0.009 A 
HETATM   18  C   UNL     1      43.288 -10.480  11.304  1.00  0.00     0.030 A 
ENDBRANCH   8  12
ENDBRANCH   1   6
BRANCH   4  19
HETATM   19  C   UNL     1      39.848 -11.228   5.457  1.00  0.00     0.163 C 
BRANCH  19  20
HETATM   20  C   UNL     1      39.213 -10.652   6.719  1.00  0.00     0.227 C 
HETATM   21  N   UNL     1      39.947  -9.655   7.337  1.00  0.00    -0.327 N 
HETATM   22  H   UNL     1      40.755  -9.315   6.816  1.00  0.00     0.169 HD
HETATM   23  O   UNL     1      38.164 -11.131   7.145  1.00  0.00    -0.273 OA
BRANCH  21  24
HETATM   24  C   UNL     1      39.693  -9.015   8.565  1.00  0.00     0.036 A 
HETATM   25  C   UNL     1      39.732  -9.658   9.806  1.00  0.00     0.056 A 
HETATM   26  C   UNL     1      39.496  -8.932  10.977  1.00  0.00     0.074 A 
HETATM   27 CL   UNL     1      39.563  -9.735  12.499  1.00  0.00    -0.081 Cl
HETATM   28  C   UNL     1      39.216  -7.569  10.912  1.00  0.00     0.138 A 
HETATM   29  F   UNL     1      38.991  -6.859  12.027  1.00  0.00    -0.204 F 
HETATM   30  C   UNL     1      39.169  -6.920   9.685  1.00  0.00     0.046 A 
HETATM   31  C   UNL     1      39.406  -7.643   8.515  1.00  0.00     0.032 A 
ENDBRANCH  21  24
ENDBRANCH  19  20
ENDBRANCH   4  19
TORSDOF 5
ENDMDL
MODEL 9
REMARK VINA RESULT:      -8.5      6.109      8.177
REMARK  5 active torsions:
REMARK  status: ('A' for Active; 'I' for Inactive)
REMARK    1  A    between atoms: C_5  and  N_6 
REMARK       I    between atoms: N_6  and  C_7 
REMARK       I    between atoms: C_7  and  N_8 
REMARK    2  A    between atoms: N_8  and  C_9 
REMARK    3  A    between atoms: C_12  and  C_13 
REMARK    4  A    between atoms: C_13  and  C_14 
REMARK       I    between atoms: C_14  and  N_15 
REMARK    5  A    between atoms: N_15  and  C_16 
ROOT
HETATM    1  C   UNL     1      40.792 -12.770   5.583  1.00  0.00     0.174 A 
HETATM    2  S   UNL     1      40.111 -11.376   6.281  1.00  0.00    -0.062 SA
HETATM    3  C   UNL     1      40.858 -10.427   5.060  1.00  0.00     0.081 A 
HETATM    4  C   UNL     1      41.578 -11.238   4.200  1.00  0.00     0.052 A 
HETATM    5  N   UNL     1      41.542 -12.595   4.521  1.00  0.00    -0.228 NA
ENDROOT
BRANCH   1   6
HETATM    6  N   UNL     1      40.468 -13.945   6.191  1.00  0.00    -0.287 N 
HETATM    7  C   UNL     1      40.859 -15.196   5.795  1.00  0.00     0.326 C 
HETATM    8  N   UNL     1      41.769 -15.258   4.773  1.00  0.00    -0.309 N 
HETATM    9  O   UNL     1      40.365 -16.156   6.382  1.00  0.00    -0.247 OA
HETATM   10  H   UNL     1      42.183 -14.368   4.517  1.00  0.00     0.170 HD
HETATM   11  H   UNL     1      39.816 -13.919   6.961  1.00  0.00     0.172 HD
BRANCH   8  12
HETATM   12  C   UNL     1      42.256 -16.395   4.100  1.00  0.00     0.036 A 
HETATM   13  C   UNL     1      41.847 -16.779   2.824  1.00  0.00     0.030 A 
HETATM   14  C   UNL     1      42.400 -17.911   2.214  1.00  0.00     0.009 A 
HETATM   15  C   UNL     1      43.376 -18.671   2.867  1.00  0.00    -0.062 A 
HETATM   16  C   UNL     1      43.935 -19.901   2.216  1.00  0.00     0.048 C 
HETATM   17  C   UNL     1      43.781 -18.289   4.149  1.00  0.00     0.009 A 
HETATM   18  C   UNL     1      43.228 -17.158   4.758  1.00  0.00     0.030 A 
ENDBRANCH   8  12
ENDBRANCH   1   6
BRANCH   4  19
HETATM   19  C   UNL     1      42.371 -10.806   3.006  1.00  0.00     0.163 C 
BRANCH  19  20
HETATM   20  C   UNL     1      41.673 -11.034   1.669  1.00  0.00     0.227 C 
HETATM   21  N   UNL     1      40.757 -12.071   1.659  1.00  0.00    -0.327 N 
HETATM   22  H   UNL     1      40.542 -12.478   2.568  1.00  0.00     0.169 HD
HETATM   23  O   UNL     1      41.998 -10.362   0.691  1.00  0.00    -0.273 OA
BRANCH  21  24
HETATM   24  C   UNL     1      40.046 -12.600   0.565  1.00  0.00     0.036 A 
HETATM   25  C   UNL     1      39.045 -11.911  -0.125  1.00  0.00     0.056 A 
HETATM   26  C   UNL     1      38.414 -12.507  -1.222  1.00  0.00     0.074 A 
HETATM   27 CL   UNL     1      37.194 -11.638  -2.072  1.00  0.00    -0.081 Cl
HETATM   28  C   UNL     1      38.777 -13.789  -1.627  1.00  0.00     0.138 A 
HETATM   29  F   UNL     1      38.184 -14.373  -2.678  1.00  0.00    -0.204 F 
HETATM   30  C   UNL     1      39.767 -14.487  -0.946  1.00  0.00     0.046 A 
HETATM   31  C   UNL     1      40.399 -13.893   0.148  1.00  0.00     0.032 A 
ENDBRANCH  21  24
ENDBRANCH  19  20
ENDBRANCH   4  19
TORSDOF 5
ENDMDL
MODEL 10
REMARK VINA RESULT:      -8.4      5.463      9.214
REMARK  5 active torsions:
REMARK  status: ('A' for Active; 'I' for Inactive)
REMARK    1  A    between atoms: C_5  and  N_6 
REMARK       I    between atoms: N_6  and  C_7 
REMARK       I    between atoms: C_7  and  N_8 
REMARK    2  A    between atoms: N_8  and  C_9 
REMARK    3  A    between atoms: C_12  and  C_13 
REMARK    4  A    between atoms: C_13  and  C_14 
REMARK       I    between atoms: C_14  and  N_15 
REMARK    5  A    between atoms: N_15  and  C_16 
ROOT
HETATM    1  C   UNL     1      40.505 -11.775  -0.070  1.00  0.00     0.174 A 
HETATM    2  S   UNL     1      40.621 -11.812  -1.766  1.00  0.00    -0.062 SA
HETATM    3  C   UNL     1      40.266 -13.492  -1.731  1.00  0.00     0.081 A 
HETATM    4  C   UNL     1      40.083 -13.913  -0.425  1.00  0.00     0.052 A 
HETATM    5  N   UNL     1      40.236 -12.910   0.532  1.00  0.00    -0.228 NA
ENDROOT
BRANCH   1   6
HETATM    6  N   UNL     1      40.683 -10.551   0.501  1.00  0.00    -0.287 N 
HETATM    7  C   UNL     1      41.249 -10.302   1.722  1.00  0.00     0.326 C 
HETATM    8  N   UNL     1      41.807 -11.373   2.369  1.00  0.00    -0.309 N 
HETATM    9  O   UNL     1      41.209  -9.146   2.140  1.00  0.00    -0.247 OA
HETATM   10  H   UNL     1      41.887 -12.215   1.807  1.00  0.00     0.170 HD
HETATM   11  H   UNL     1      40.299  -9.745   0.030  1.00  0.00     0.172 HD
BRANCH   8  12
HETATM   12  C   UNL     1      42.351 -11.429   3.666  1.00  0.00     0.036 A 
HETATM   13  C   UNL     1      41.586 -11.459   4.831  1.00  0.00     0.030 A 
HETATM   14  C   UNL     1      42.206 -11.539   6.083  1.00  0.00     0.009 A 
HETATM   15  C   UNL     1      43.600 -11.601   6.190  1.00  0.00    -0.062 A 
HETATM   16  C   UNL     1      44.252 -11.653   7.539  1.00  0.00     0.048 C 
HETATM   17  C   UNL     1      44.367 -11.564   5.022  1.00  0.00     0.009 A 
HETATM   18  C   UNL     1      43.747 -11.483   3.771  1.00  0.00     0.030 A 
ENDBRANCH   8  12
ENDBRANCH   1   6
BRANCH   4  19
HETATM   19  C   UNL     1      39.757 -15.299   0.038  1.00  0.00     0.163 C 
BRANCH  19  20
HETATM   20  C   UNL     1      40.236 -15.623   1.449  1.00  0.00     0.227 C 
HETATM   21  N   UNL     1      41.610 -15.662   1.603  1.00  0.00    -0.327 N 
HETATM   22  H   UNL     1      42.152 -15.336   0.804  1.00  0.00     0.169 HD
HETATM   23  O   UNL     1      39.414 -15.893   2.324  1.00  0.00    -0.273 OA
BRANCH  21  24
HETATM   24  C   UNL     1      42.353 -16.043   2.737  1.00  0.00     0.036 A 
HETATM   25  C   UNL     1      42.954 -17.294   2.895  1.00  0.00     0.056 A 
HETATM   26  C   UNL     1      43.701 -17.572   4.045  1.00  0.00     0.074 A 
HETATM   27 CL   UNL     1      44.448 -19.114   4.217  1.00  0.00    -0.081 Cl
HETATM   28  C   UNL     1      43.843 -16.605   5.037  1.00  0.00     0.138 A 
HETATM   29  F   UNL     1      44.558 -16.855   6.143  1.00  0.00    -0.204 F 
HETATM   30  C   UNL     1      43.246 -15.359   4.895  1.00  0.00     0.046 A 
HETATM   31  C   UNL     1      42.502 -15.079   3.747  1.00  0.00     0.032 A 
ENDBRANCH  21  24
ENDBRANCH  19  20
ENDBRANCH   4  19
TORSDOF 5
ENDMDL
