MODEL 1
REMARK VINA RESULT:     -10.1      0.000      0.000
REMARK  4 active torsions:
REMARK  status: ('A' for Active; 'I' for Inactive)
REMARK    1  A    between atoms: C_2  and  C_5 
REMARK    2  A    between atoms: C_8  and  C_11 
REMARK    3  A    between atoms: C_17  and  C_18 
REMARK    4  A    between atoms: C_24  and  C_30 
ROOT
HETATM    1  C   UNL     1      41.689 -14.038   4.157  1.00  0.00     0.091 A 
HETATM    2  N   UNL     1      41.064 -15.033   3.534  1.00  0.00    -0.345 N 
HETATM    3  H   UNL     1      40.883 -15.920   4.002  1.00  0.00     0.167 HD
HETATM    4  C   UNL     1      40.656 -14.887   2.232  1.00  0.00     0.049 A 
HETATM    5  C   UNL     1      39.978 -15.926   1.594  1.00  0.00     0.031 A 
HETATM    6  C   UNL     1      39.513 -15.771   0.277  1.00  0.00     0.014 A 
HETATM    7  C   UNL     1      39.716 -14.575  -0.428  1.00  0.00    -0.022 A 
HETATM    8  C   UNL     1      40.412 -13.538   0.199  1.00  0.00     0.031 A 
HETATM    9  C   UNL     1      40.871 -13.712   1.509  1.00  0.00     0.059 A 
HETATM   10  C   UNL     1      41.594 -12.650   2.194  1.00  0.00     0.259 A 
HETATM   11  O   UNL     1      41.896 -11.564   1.749  1.00  0.00    -0.267 OA
HETATM   12  N   UNL     1      41.965 -12.903   3.543  1.00  0.00    -0.312 N 
HETATM   13  H   UNL     1      42.470 -12.137   3.968  1.00  0.00     0.170 HD
ENDROOT
BRANCH   1  14
HETATM   14  C   UNL     1      42.074 -14.224   5.594  1.00  0.00     0.089 C 
HETATM   15  C   UNL     1      43.488 -14.793   5.777  1.00  0.00     0.057 C 
HETATM   16  C   UNL     1      43.858 -14.400   7.215  1.00  0.00     0.242 C 
HETATM   17  N   UNL     1      43.163 -13.085   7.431  1.00  0.00    -0.074 N 
HETATM   18  H   UNL     1      42.763 -13.052   8.386  1.00  0.00     0.277 HD
HETATM   19  H   UNL     1      43.849 -12.310   7.422  1.00  0.00     0.277 HD
HETATM   20  C   UNL     1      42.108 -12.906   6.378  1.00  0.00     0.245 C 
BRANCH  15  21
HETATM   21  C   UNL     1      43.579 -16.278   5.523  1.00  0.00    -0.051 A 
HETATM   22  C   UNL     1      43.357 -17.223   6.539  1.00  0.00     0.008 A 
HETATM   23  C   UNL     1      43.494 -18.592   6.287  1.00  0.00     0.017 A 
HETATM   24  C   UNL     1      43.852 -19.052   5.015  1.00  0.00     0.047 A 
HETATM   25  C   UNL     1      44.050 -18.113   3.993  1.00  0.00     0.017 A 
HETATM   26  C   UNL     1      43.917 -16.744   4.243  1.00  0.00     0.008 A 
BRANCH  24  27
HETATM   27  C   UNL     1      44.025 -20.531   4.733  1.00  0.00     0.417 C 
HETATM   28  F   UNL     1      43.996 -20.827   3.407  1.00  0.00    -0.166 F 
HETATM   29  F   UNL     1      43.056 -21.283   5.317  1.00  0.00    -0.166 F 
HETATM   30  F   UNL     1      45.212 -20.997   5.203  1.00  0.00    -0.166 F 
ENDBRANCH  24  27
ENDBRANCH  15  21
ENDBRANCH   1  14
BRANCH   7  31
HETATM   31  C   UNL     1      39.200 -14.391  -1.773  1.00  0.00     0.010 A 
HETATM   32  C   UNL     1      38.778 -15.339  -2.735  1.00  0.00     0.152 A 
HETATM   33  N   UNL     1      38.354 -14.772  -3.865  1.00  0.00    -0.187 NA
HETATM   34  N   UNL     1      38.497 -13.459  -3.640  1.00  0.00    -0.289 N 
HETATM   35  H   UNL     1      38.229 -12.811  -4.376  1.00  0.00     0.188 HD
HETATM   36  C   UNL     1      39.001 -13.178  -2.399  1.00  0.00     0.123 A 
ENDBRANCH   7  31
TORSDOF 4
ENDMDL
MODEL 2
REMARK VINA RESULT:     -10.0      1.532      2.220
REMARK  4 active torsions:
REMARK  status: ('A' for Active; 'I' for Inactive)
REMARK    1  A    between atoms: C_2  and  C_5 
REMARK    2  A    between atoms: C_8  and  C_11 
REMARK    3  A    between atoms: C_17  and  C_18 
REMARK    4  A    between atoms: C_24  and  C_30 
ROOT
HETATM    1  C   UNL     1      41.866 -13.897   3.919  1.00  0.00     0.091 A 
HETATM    2  N   UNL     1      41.092 -14.464   3.000  1.00  0.00    -0.345 N 
HETATM    3  H   UNL     1      40.694 -15.392   3.142  1.00  0.00     0.167 HD
HETATM    4  C   UNL     1      40.820 -13.811   1.824  1.00  0.00     0.049 A 
HETATM    5  C   UNL     1      39.986 -14.402   0.876  1.00  0.00     0.031 A 
HETATM    6  C   UNL     1      39.661 -13.722  -0.311  1.00  0.00     0.014 A 
HETATM    7  C   UNL     1      40.163 -12.438  -0.572  1.00  0.00    -0.022 A 
HETATM    8  C   UNL     1      41.015 -11.849   0.366  1.00  0.00     0.031 A 
HETATM    9  C   UNL     1      41.331 -12.543   1.539  1.00  0.00     0.059 A 
HETATM   10  C   UNL     1      42.211 -11.956   2.540  1.00  0.00     0.259 A 
HETATM   11  O   UNL     1      42.768 -10.881   2.486  1.00  0.00    -0.267 OA
HETATM   12  N   UNL     1      42.421 -12.716   3.723  1.00  0.00    -0.312 N 
HETATM   13  H   UNL     1      43.045 -12.265   4.381  1.00  0.00     0.170 HD
ENDROOT
BRANCH   1  14
HETATM   14  C   UNL     1      42.098 -14.626   5.208  1.00  0.00     0.089 C 
HETATM   15  C   UNL     1      43.474 -15.305   5.286  1.00  0.00     0.057 C 
HETATM   16  C   UNL     1      43.703 -15.498   6.792  1.00  0.00     0.242 C 
HETATM   17  N   UNL     1      43.018 -14.320   7.426  1.00  0.00    -0.074 N 
HETATM   18  H   UNL     1      42.523 -14.621   8.284  1.00  0.00     0.277 HD
HETATM   19  H   UNL     1      43.718 -13.639   7.769  1.00  0.00     0.277 HD
HETATM   20  C   UNL     1      42.081 -13.700   6.431  1.00  0.00     0.245 C 
BRANCH  15  21
HETATM   21  C   UNL     1      43.557 -16.591   4.500  1.00  0.00    -0.051 A 
HETATM   22  C   UNL     1      43.230 -16.654   3.135  1.00  0.00     0.008 A 
HETATM   23  C   UNL     1      43.269 -17.868   2.444  1.00  0.00     0.017 A 
HETATM   24  C   UNL     1      43.641 -19.050   3.094  1.00  0.00     0.047 A 
HETATM   25  C   UNL     1      43.992 -18.987   4.450  1.00  0.00     0.017 A 
HETATM   26  C   UNL     1      43.949 -17.774   5.146  1.00  0.00     0.008 A 
BRANCH  24  27
HETATM   27  C   UNL     1      43.668 -20.377   2.362  1.00  0.00     0.417 C 
HETATM   28  F   UNL     1      44.632 -20.436   1.406  1.00  0.00    -0.166 F 
HETATM   29  F   UNL     1      42.492 -20.646   1.741  1.00  0.00    -0.166 F 
HETATM   30  F   UNL     1      43.906 -21.413   3.209  1.00  0.00    -0.166 F 
ENDBRANCH  24  27
ENDBRANCH  15  21
ENDBRANCH   1  14
BRANCH   7  31
HETATM   31  C   UNL     1      39.797 -11.711  -1.774  1.00  0.00     0.010 A 
HETATM   32  C   UNL     1      40.548 -10.816  -2.574  1.00  0.00     0.152 A 
HETATM   33  N   UNL     1      39.858 -10.353  -3.616  1.00  0.00    -0.187 NA
HETATM   34  N   UNL     1      38.661 -10.944  -3.497  1.00  0.00    -0.289 N 
HETATM   35  H   UNL     1      37.951 -10.741  -4.196  1.00  0.00     0.188 HD
HETATM   36  C   UNL     1      38.574 -11.768  -2.409  1.00  0.00     0.123 A 
ENDBRANCH   7  31
TORSDOF 4
ENDMDL
MODEL 3
REMARK VINA RESULT:      -9.9      4.615      7.918
REMARK  4 active torsions:
REMARK  status: ('A' for Active; 'I' for Inactive)
REMARK    1  A    between atoms: C_2  and  C_5 
REMARK    2  A    between atoms: C_8  and  C_11 
REMARK    3  A    between atoms: C_17  and  C_18 
REMARK    4  A    between atoms: C_24  and  C_30 
ROOT
HETATM    1  C   UNL     1      42.584 -12.726   3.515  1.00  0.00     0.091 A 
HETATM    2  N   UNL     1      42.849 -13.543   2.501  1.00  0.00    -0.345 N 
HETATM    3  H   UNL     1      42.930 -13.195   1.547  1.00  0.00     0.167 HD
HETATM    4  C   UNL     1      43.009 -14.889   2.720  1.00  0.00     0.049 A 
HETATM    5  C   UNL     1      43.313 -15.737   1.655  1.00  0.00     0.031 A 
HETATM    6  C   UNL     1      43.528 -17.108   1.874  1.00  0.00     0.014 A 
HETATM    7  C   UNL     1      43.443 -17.660   3.161  1.00  0.00    -0.022 A 
HETATM    8  C   UNL     1      43.119 -16.818   4.229  1.00  0.00     0.031 A 
HETATM    9  C   UNL     1      42.905 -15.457   3.991  1.00  0.00     0.059 A 
HETATM   10  C   UNL     1      42.573 -14.551   5.083  1.00  0.00     0.259 A 
HETATM   11  O   UNL     1      42.421 -14.836   6.250  1.00  0.00    -0.267 OA
HETATM   12  N   UNL     1      42.433 -13.176   4.746  1.00  0.00    -0.312 N 
HETATM   13  H   UNL     1      42.195 -12.594   5.539  1.00  0.00     0.170 HD
ENDROOT
BRANCH   1  14
HETATM   14  C   UNL     1      42.463 -11.258   3.237  1.00  0.00     0.089 C 
HETATM   15  C   UNL     1      41.089 -10.852   2.684  1.00  0.00     0.057 C 
HETATM   16  C   UNL     1      41.003  -9.349   2.983  1.00  0.00     0.242 C 
HETATM   17  N   UNL     1      41.768  -9.180   4.266  1.00  0.00    -0.074 N 
HETATM   18  H   UNL     1      42.338  -8.316   4.223  1.00  0.00     0.277 HD
HETATM   19  H   UNL     1      41.118  -9.010   5.053  1.00  0.00     0.277 HD
HETATM   20  C   UNL     1      42.617 -10.396   4.496  1.00  0.00     0.245 C 
BRANCH  15  21
HETATM   21  C   UNL     1      40.905 -11.182   1.222  1.00  0.00    -0.051 A 
HETATM   22  C   UNL     1      40.138 -12.279   0.796  1.00  0.00     0.008 A 
HETATM   23  C   UNL     1      40.024 -12.589  -0.562  1.00  0.00     0.017 A 
HETATM   24  C   UNL     1      40.669 -11.810  -1.530  1.00  0.00     0.047 A 
HETATM   25  C   UNL     1      41.415 -10.701  -1.109  1.00  0.00     0.017 A 
HETATM   26  C   UNL     1      41.534 -10.390   0.249  1.00  0.00     0.008 A 
BRANCH  24  27
HETATM   27  C   UNL     1      40.571 -12.147  -3.004  1.00  0.00     0.417 C 
HETATM   28  F   UNL     1      41.289 -13.249  -3.347  1.00  0.00    -0.166 F 
HETATM   29  F   UNL     1      41.016 -11.136  -3.794  1.00  0.00    -0.166 F 
HETATM   30  F   UNL     1      39.288 -12.396  -3.379  1.00  0.00    -0.166 F 
ENDBRANCH  24  27
ENDBRANCH  15  21
ENDBRANCH   1  14
BRANCH   7  31
HETATM   31  C   UNL     1      43.707 -19.067   3.403  1.00  0.00     0.010 A 
HETATM   32  C   UNL     1      43.596 -20.185   2.543  1.00  0.00     0.152 A 
HETATM   33  N   UNL     1      43.942 -21.327   3.136  1.00  0.00    -0.187 NA
HETATM   34  N   UNL     1      44.278 -20.955   4.379  1.00  0.00    -0.289 N 
HETATM   35  H   UNL     1      44.585 -21.673   5.031  1.00  0.00     0.188 HD
HETATM   36  C   UNL     1      44.154 -19.610   4.589  1.00  0.00     0.123 A 
ENDBRANCH   7  31
TORSDOF 4
ENDMDL
MODEL 4
REMARK VINA RESULT:      -9.6      5.256      7.814
REMARK  4 active torsions:
REMARK  status: ('A' for Active; 'I' for Inactive)
REMARK    1  A    between atoms: C_2  and  C_5 
REMARK    2  A    between atoms: C_8  and  C_11 
REMARK    3  A    between atoms: C_17  and  C_18 
REMARK    4  A    between atoms: C_24  and  C_30 
ROOT
HETATM    1  C   UNL     1      41.574 -13.080   5.071  1.00  0.00     0.091 A 
HETATM    2  N   UNL     1      41.852 -13.689   3.923  1.00  0.00    -0.345 N 
HETATM    3  H   UNL     1      41.781 -13.198   3.032  1.00  0.00     0.167 HD
HETATM    4  C   UNL     1      42.232 -15.008   3.912  1.00  0.00     0.049 A 
HETATM    5  C   UNL     1      42.547 -15.632   2.705  1.00  0.00     0.031 A 
HETATM    6  C   UNL     1      42.985 -16.968   2.686  1.00  0.00     0.014 A 
HETATM    7  C   UNL     1      43.117 -17.705   3.872  1.00  0.00    -0.022 A 
HETATM    8  C   UNL     1      42.783 -17.091   5.083  1.00  0.00     0.031 A 
HETATM    9  C   UNL     1      42.346 -15.762   5.082  1.00  0.00     0.059 A 
HETATM   10  C   UNL     1      41.996 -15.090   6.326  1.00  0.00     0.259 A 
HETATM   11  O   UNL     1      42.010 -15.561   7.442  1.00  0.00    -0.267 OA
HETATM   12  N   UNL     1      41.620 -13.722   6.223  1.00  0.00    -0.312 N 
HETATM   13  H   UNL     1      41.381 -13.307   7.115  1.00  0.00     0.170 HD
ENDROOT
BRANCH   1  14
HETATM   14  C   UNL     1      41.208 -11.627   5.040  1.00  0.00     0.089 C 
HETATM   15  C   UNL     1      42.424 -10.691   5.096  1.00  0.00     0.057 C 
HETATM   16  C   UNL     1      41.894  -9.368   4.526  1.00  0.00     0.242 C 
HETATM   17  N   UNL     1      40.871  -9.784   3.507  1.00  0.00    -0.074 N 
HETATM   18  H   UNL     1      40.049  -9.157   3.558  1.00  0.00     0.277 HD
HETATM   19  H   UNL     1      41.236  -9.638   2.550  1.00  0.00     0.277 HD
HETATM   20  C   UNL     1      40.493 -11.217   3.747  1.00  0.00     0.245 C 
BRANCH  15  21
HETATM   21  C   UNL     1      43.015 -10.551   6.478  1.00  0.00    -0.051 A 
HETATM   22  C   UNL     1      44.223 -11.172   6.838  1.00  0.00     0.008 A 
HETATM   23  C   UNL     1      44.723 -11.065   8.140  1.00  0.00     0.017 A 
HETATM   24  C   UNL     1      44.034 -10.333   9.113  1.00  0.00     0.047 A 
HETATM   25  C   UNL     1      42.841  -9.693   8.750  1.00  0.00     0.017 A 
HETATM   26  C   UNL     1      42.337  -9.800   7.450  1.00  0.00     0.008 A 
BRANCH  24  27
HETATM   27  C   UNL     1      44.554 -10.226  10.532  1.00  0.00     0.417 C 
HETATM   28  F   UNL     1      44.414  -8.981  11.058  1.00  0.00    -0.166 F 
HETATM   29  F   UNL     1      45.873 -10.536  10.622  1.00  0.00    -0.166 F 
HETATM   30  F   UNL     1      43.899 -11.071  11.372  1.00  0.00    -0.166 F 
ENDBRANCH  24  27
ENDBRANCH  15  21
ENDBRANCH   1  14
BRANCH   7  31
HETATM   31  C   UNL     1      43.611 -19.071   3.866  1.00  0.00     0.010 A 
HETATM   32  C   UNL     1      43.654 -20.029   2.826  1.00  0.00     0.152 A 
HETATM   33  N   UNL     1      44.197 -21.183   3.212  1.00  0.00    -0.187 NA
HETATM   34  N   UNL     1      44.508 -20.978   4.499  1.00  0.00    -0.289 N 
HETATM   35  H   UNL     1      44.947 -21.736   5.016  1.00  0.00     0.188 HD
HETATM   36  C   UNL     1      44.176 -19.726   4.939  1.00  0.00     0.123 A 
ENDBRANCH   7  31
TORSDOF 4
ENDMDL
MODEL 5
REMARK VINA RESULT:      -9.5      2.244      3.331
REMARK  4 active torsions:
REMARK  status: ('A' for Active; 'I' for Inactive)
REMARK    1  A    between atoms: C_2  and  C_5 
REMARK    2  A    between atoms: C_8  and  C_11 
REMARK    3  A    between atoms: C_17  and  C_18 
REMARK    4  A    between atoms: C_24  and  C_30 
ROOT
HETATM    1  C   UNL     1      41.413 -13.910   3.618  1.00  0.00     0.091 A 
HETATM    2  N   UNL     1      41.763 -12.647   3.395  1.00  0.00    -0.345 N 
HETATM    3  H   UNL     1      42.217 -12.089   4.117  1.00  0.00     0.167 HD
HETATM    4  C   UNL     1      41.506 -12.061   2.181  1.00  0.00     0.049 A 
HETATM    5  C   UNL     1      41.900 -10.743   1.947  1.00  0.00     0.031 A 
HETATM    6  C   UNL     1      41.686 -10.148   0.692  1.00  0.00     0.014 A 
HETATM    7  C   UNL     1      41.076 -10.856  -0.353  1.00  0.00    -0.022 A 
HETATM    8  C   UNL     1      40.661 -12.170  -0.118  1.00  0.00     0.031 A 
HETATM    9  C   UNL     1      40.879 -12.745   1.139  1.00  0.00     0.059 A 
HETATM   10  C   UNL     1      40.465 -14.114   1.416  1.00  0.00     0.259 A 
HETATM   11  O   UNL     1      39.896 -14.874   0.663  1.00  0.00    -0.267 OA
HETATM   12  N   UNL     1      40.784 -14.625   2.704  1.00  0.00    -0.312 N 
HETATM   13  H   UNL     1      40.469 -15.576   2.845  1.00  0.00     0.170 HD
ENDROOT
BRANCH   1  14
HETATM   14  C   UNL     1      41.755 -14.525   4.942  1.00  0.00     0.089 C 
HETATM   15  C   UNL     1      43.184 -15.083   5.003  1.00  0.00     0.057 C 
HETATM   16  C   UNL     1      43.487 -15.149   6.507  1.00  0.00     0.242 C 
HETATM   17  N   UNL     1      42.732 -13.988   7.090  1.00  0.00    -0.074 N 
HETATM   18  H   UNL     1      42.298 -14.268   7.988  1.00  0.00     0.277 HD
HETATM   19  H   UNL     1      43.385 -13.231   7.355  1.00  0.00     0.277 HD
HETATM   20  C   UNL     1      41.708 -13.519   6.098  1.00  0.00     0.245 C 
BRANCH  15  21
HETATM   21  C   UNL     1      43.345 -16.411   4.303  1.00  0.00    -0.051 A 
HETATM   22  C   UNL     1      43.169 -16.548   2.916  1.00  0.00     0.008 A 
HETATM   23  C   UNL     1      43.276 -17.799   2.300  1.00  0.00     0.017 A 
HETATM   24  C   UNL     1      43.565 -18.943   3.052  1.00  0.00     0.047 A 
HETATM   25  C   UNL     1      43.765 -18.806   4.432  1.00  0.00     0.017 A 
HETATM   26  C   UNL     1      43.655 -17.556   5.052  1.00  0.00     0.008 A 
BRANCH  24  27
HETATM   27  C   UNL     1      43.664 -20.308   2.401  1.00  0.00     0.417 C 
HETATM   28  F   UNL     1      43.884 -21.309   3.294  1.00  0.00    -0.166 F 
HETATM   29  F   UNL     1      44.671 -20.374   1.493  1.00  0.00    -0.166 F 
HETATM   30  F   UNL     1      42.522 -20.632   1.738  1.00  0.00    -0.166 F 
ENDBRANCH  24  27
ENDBRANCH  15  21
ENDBRANCH   1  14
BRANCH   7  31
HETATM   31  C   UNL     1      40.891 -10.264  -1.666  1.00  0.00     0.010 A 
HETATM   32  C   UNL     1      41.056  -8.929  -2.104  1.00  0.00     0.152 A 
HETATM   33  N   UNL     1      40.798  -8.778  -3.403  1.00  0.00    -0.187 NA
HETATM   34  N   UNL     1      40.467 -10.011  -3.811  1.00  0.00    -0.289 N 
HETATM   35  H   UNL     1      40.227 -10.147  -4.790  1.00  0.00     0.188 HD
HETATM   36  C   UNL     1      40.508 -10.938  -2.806  1.00  0.00     0.123 A 
ENDBRANCH   7  31
TORSDOF 4
ENDMDL
MODEL 6
REMARK VINA RESULT:      -9.5      4.580      7.321
REMARK  4 active torsions:
REMARK  status: ('A' for Active; 'I' for Inactive)
REMARK    1  A    between atoms: C_2  and  C_5 
REMARK    2  A    between atoms: C_8  and  C_11 
REMARK    3  A    between atoms: C_17  and  C_18 
REMARK    4  A    between atoms: C_24  and  C_30 
ROOT
HETATM    1  C   UNL     1      41.077 -13.403   4.142  1.00  0.00     0.091 A 
HETATM    2  N   UNL     1      41.757 -14.152   5.004  1.00  0.00    -0.345 N 
HETATM    3  H   UNL     1      41.940 -13.831   5.954  1.00  0.00     0.167 HD
HETATM    4  C   UNL     1      42.240 -15.379   4.624  1.00  0.00     0.049 A 
HETATM    5  C   UNL     1      42.931 -16.170   5.542  1.00  0.00     0.031 A 
HETATM    6  C   UNL     1      43.388 -17.448   5.180  1.00  0.00     0.014 A 
HETATM    7  C   UNL     1      43.165 -17.962   3.894  1.00  0.00    -0.022 A 
HETATM    8  C   UNL     1      42.491 -17.165   2.963  1.00  0.00     0.031 A 
HETATM    9  C   UNL     1      42.047 -15.894   3.341  1.00  0.00     0.059 A 
HETATM   10  C   UNL     1      41.335 -15.041   2.398  1.00  0.00     0.259 A 
HETATM   11  O   UNL     1      41.076 -15.286   1.241  1.00  0.00    -0.267 OA
HETATM   12  N   UNL     1      40.874 -13.792   2.897  1.00  0.00    -0.312 N 
HETATM   13  H   UNL     1      40.394 -13.237   2.200  1.00  0.00     0.170 HD
ENDROOT
BRANCH   1  14
HETATM   14  C   UNL     1      40.526 -12.090   4.613  1.00  0.00     0.089 C 
HETATM   15  C   UNL     1      41.454 -10.901   4.324  1.00  0.00     0.057 C 
HETATM   16  C   UNL     1      40.517  -9.685   4.375  1.00  0.00     0.242 C 
HETATM   17  N   UNL     1      39.203 -10.207   3.866  1.00  0.00    -0.074 N 
HETATM   18  H   UNL     1      38.427  -9.810   4.426  1.00  0.00     0.277 HD
HETATM   19  H   UNL     1      39.023  -9.856   2.909  1.00  0.00     0.277 HD
HETATM   20  C   UNL     1      39.215 -11.707   3.916  1.00  0.00     0.245 C 
BRANCH  15  21
HETATM   21  C   UNL     1      42.618 -10.798   5.279  1.00  0.00    -0.051 A 
HETATM   22  C   UNL     1      42.511 -10.140   6.516  1.00  0.00     0.008 A 
HETATM   23  C   UNL     1      43.619 -10.018   7.360  1.00  0.00     0.017 A 
HETATM   24  C   UNL     1      44.860 -10.552   6.994  1.00  0.00     0.047 A 
HETATM   25  C   UNL     1      44.963 -11.229   5.772  1.00  0.00     0.017 A 
HETATM   26  C   UNL     1      43.858 -11.351   4.924  1.00  0.00     0.008 A 
BRANCH  24  27
HETATM   27  C   UNL     1      46.074 -10.408   7.890  1.00  0.00     0.417 C 
HETATM   28  F   UNL     1      47.176 -11.029   7.396  1.00  0.00    -0.166 F 
HETATM   29  F   UNL     1      45.864 -10.924   9.128  1.00  0.00    -0.166 F 
HETATM   30  F   UNL     1      46.417  -9.105   8.067  1.00  0.00    -0.166 F 
ENDBRANCH  24  27
ENDBRANCH  15  21
ENDBRANCH   1  14
BRANCH   7  31
HETATM   31  C   UNL     1      43.595 -19.298   3.525  1.00  0.00     0.010 A 
HETATM   32  C   UNL     1      43.635 -19.937   2.262  1.00  0.00     0.152 A 
HETATM   33  N   UNL     1      44.109 -21.181   2.329  1.00  0.00    -0.187 NA
HETATM   34  N   UNL     1      44.379 -21.353   3.631  1.00  0.00    -0.289 N 
HETATM   35  H   UNL     1      44.762 -22.246   3.930  1.00  0.00     0.188 HD
HETATM   36  C   UNL     1      44.088 -20.253   4.389  1.00  0.00     0.123 A 
ENDBRANCH   7  31
TORSDOF 4
ENDMDL
MODEL 7
REMARK VINA RESULT:      -9.1     14.829     16.871
REMARK  4 active torsions:
REMARK  status: ('A' for Active; 'I' for Inactive)
REMARK    1  A    between atoms: C_2  and  C_5 
REMARK    2  A    between atoms: C_8  and  C_11 
REMARK    3  A    between atoms: C_17  and  C_18 
REMARK    4  A    between atoms: C_24  and  C_30 
ROOT
HETATM    1  C   UNL     1      44.929 -29.795   0.859  1.00  0.00     0.091 A 
HETATM    2  N   UNL     1      44.834 -30.946   1.516  1.00  0.00    -0.345 N 
HETATM    3  H   UNL     1      45.623 -31.589   1.575  1.00  0.00     0.167 HD
HETATM    4  C   UNL     1      43.656 -31.301   2.125  1.00  0.00     0.049 A 
HETATM    5  C   UNL     1      43.573 -32.499   2.835  1.00  0.00     0.031 A 
HETATM    6  C   UNL     1      42.388 -32.850   3.504  1.00  0.00     0.014 A 
HETATM    7  C   UNL     1      41.263 -32.012   3.476  1.00  0.00    -0.022 A 
HETATM    8  C   UNL     1      41.335 -30.820   2.750  1.00  0.00     0.031 A 
HETATM    9  C   UNL     1      42.521 -30.489   2.088  1.00  0.00     0.059 A 
HETATM   10  C   UNL     1      42.632 -29.252   1.327  1.00  0.00     0.259 A 
HETATM   11  O   UNL     1      41.770 -28.418   1.155  1.00  0.00    -0.267 OA
HETATM   12  N   UNL     1      43.898 -28.979   0.741  1.00  0.00    -0.312 N 
HETATM   13  H   UNL     1      43.918 -28.112   0.219  1.00  0.00     0.170 HD
ENDROOT
BRANCH   1  14
HETATM   14  C   UNL     1      46.248 -29.426   0.249  1.00  0.00     0.089 C 
HETATM   15  C   UNL     1      46.120 -28.474  -0.949  1.00  0.00     0.057 C 
HETATM   16  C   UNL     1      47.510 -27.830  -1.055  1.00  0.00     0.242 C 
HETATM   17  N   UNL     1      47.993 -27.753   0.366  1.00  0.00    -0.074 N 
HETATM   18  H   UNL     1      48.999 -27.996   0.408  1.00  0.00     0.277 HD
HETATM   19  H   UNL     1      47.959 -26.776   0.706  1.00  0.00     0.277 HD
HETATM   20  C   UNL     1      47.163 -28.669   1.218  1.00  0.00     0.245 C 
BRANCH  15  21
HETATM   21  C   UNL     1      45.682 -29.160  -2.221  1.00  0.00    -0.051 A 
HETATM   22  C   UNL     1      44.455 -28.870  -2.840  1.00  0.00     0.008 A 
HETATM   23  C   UNL     1      44.053 -29.556  -3.990  1.00  0.00     0.017 A 
HETATM   24  C   UNL     1      44.867 -30.543  -4.556  1.00  0.00     0.047 A 
HETATM   25  C   UNL     1      46.103 -30.818  -3.955  1.00  0.00     0.017 A 
HETATM   26  C   UNL     1      46.507 -30.136  -2.801  1.00  0.00     0.008 A 
BRANCH  24  27
HETATM   27  C   UNL     1      44.435 -31.308  -5.790  1.00  0.00     0.417 C 
HETATM   28  F   UNL     1      43.390 -30.727  -6.437  1.00  0.00    -0.166 F 
HETATM   29  F   UNL     1      44.050 -32.578  -5.501  1.00  0.00    -0.166 F 
HETATM   30  F   UNL     1      45.441 -31.405  -6.699  1.00  0.00    -0.166 F 
ENDBRANCH  24  27
ENDBRANCH  15  21
ENDBRANCH   1  14
BRANCH   7  31
HETATM   31  C   UNL     1      40.050 -32.346   4.201  1.00  0.00     0.010 A 
HETATM   32  C   UNL     1      39.717 -32.177   5.566  1.00  0.00     0.152 A 
HETATM   33  N   UNL     1      38.487 -32.604   5.852  1.00  0.00    -0.187 NA
HETATM   34  N   UNL     1      38.019 -33.049   4.678  1.00  0.00    -0.289 N 
HETATM   35  H   UNL     1      37.076 -33.428   4.646  1.00  0.00     0.188 HD
HETATM   36  C   UNL     1      38.918 -32.916   3.656  1.00  0.00     0.123 A 
ENDBRANCH   7  31
TORSDOF 4
ENDMDL
MODEL 8
REMARK VINA RESULT:      -9.0      2.902      7.570
REMARK  4 active torsions:
REMARK  status: ('A' for Active; 'I' for Inactive)
REMARK    1  A    between atoms: C_2  and  C_5 
REMARK    2  A    between atoms: C_8  and  C_11 
REMARK    3  A    between atoms: C_17  and  C_18 
REMARK    4  A    between atoms: C_24  and  C_30 
ROOT
HETATM    1  C   UNL     1      42.146 -12.450   3.455  1.00  0.00     0.091 A 
HETATM    2  N   UNL     1      43.265 -12.527   4.168  1.00  0.00    -0.345 N 
HETATM    3  H   UNL     1      44.069 -13.058   3.836  1.00  0.00     0.167 HD
HETATM    4  C   UNL     1      43.357 -11.897   5.384  1.00  0.00     0.049 A 
HETATM    5  C   UNL     1      44.544 -11.962   6.114  1.00  0.00     0.031 A 
HETATM    6  C   UNL     1      44.666 -11.281   7.338  1.00  0.00     0.014 A 
HETATM    7  C   UNL     1      43.606 -10.521   7.855  1.00  0.00    -0.022 A 
HETATM    8  C   UNL     1      42.408 -10.469   7.137  1.00  0.00     0.031 A 
HETATM    9  C   UNL     1      42.303 -11.157   5.924  1.00  0.00     0.059 A 
HETATM   10  C   UNL     1      41.071 -11.118   5.147  1.00  0.00     0.259 A 
HETATM   11  O   UNL     1      40.040 -10.552   5.436  1.00  0.00    -0.267 OA
HETATM   12  N   UNL     1      41.086 -11.801   3.900  1.00  0.00    -0.312 N 
HETATM   13  H   UNL     1      40.205 -11.748   3.406  1.00  0.00     0.170 HD
ENDROOT
BRANCH   1  14
HETATM   14  C   UNL     1      42.106 -13.113   2.112  1.00  0.00     0.089 C 
HETATM   15  C   UNL     1      41.257 -14.393   2.089  1.00  0.00     0.057 C 
HETATM   16  C   UNL     1      40.919 -14.582   0.603  1.00  0.00     0.242 C 
HETATM   17  N   UNL     1      40.818 -13.183   0.064  1.00  0.00    -0.074 N 
HETATM   18  H   UNL     1      41.254 -13.136  -0.874  1.00  0.00     0.277 HD
HETATM   19  H   UNL     1      39.828 -12.935  -0.110  1.00  0.00     0.277 HD
HETATM   20  C   UNL     1      41.468 -12.235   1.029  1.00  0.00     0.245 C 
BRANCH  15  21
HETATM   21  C   UNL     1      41.950 -15.587   2.700  1.00  0.00    -0.051 A 
HETATM   22  C   UNL     1      41.829 -15.901   4.064  1.00  0.00     0.008 A 
HETATM   23  C   UNL     1      42.520 -16.986   4.613  1.00  0.00     0.017 A 
HETATM   24  C   UNL     1      43.345 -17.787   3.815  1.00  0.00     0.047 A 
HETATM   25  C   UNL     1      43.447 -17.491   2.449  1.00  0.00     0.017 A 
HETATM   26  C   UNL     1      42.760 -16.404   1.897  1.00  0.00     0.008 A 
BRANCH  24  27
HETATM   27  C   UNL     1      44.115 -18.953   4.401  1.00  0.00     0.417 C 
HETATM   28  F   UNL     1      43.714 -19.277   5.658  1.00  0.00    -0.166 F 
HETATM   29  F   UNL     1      45.448 -18.704   4.474  1.00  0.00    -0.166 F 
HETATM   30  F   UNL     1      43.971 -20.078   3.652  1.00  0.00    -0.166 F 
ENDBRANCH  24  27
ENDBRANCH  15  21
ENDBRANCH   1  14
BRANCH   7  31
HETATM   31  C   UNL     1      43.739  -9.779   9.095  1.00  0.00     0.010 A 
HETATM   32  C   UNL     1      44.430 -10.096  10.289  1.00  0.00     0.152 A 
HETATM   33  N   UNL     1      44.324  -9.143  11.214  1.00  0.00    -0.187 NA
HETATM   34  N   UNL     1      43.568  -8.206  10.626  1.00  0.00    -0.289 N 
HETATM   35  H   UNL     1      43.349  -7.362  11.151  1.00  0.00     0.188 HD
HETATM   36  C   UNL     1      43.191  -8.540   9.354  1.00  0.00     0.123 A 
ENDBRANCH   7  31
TORSDOF 4
ENDMDL
MODEL 9
REMARK VINA RESULT:      -8.9      5.472      8.034
REMARK  4 active torsions:
REMARK  status: ('A' for Active; 'I' for Inactive)
REMARK    1  A    between atoms: C_2  and  C_5 
REMARK    2  A    between atoms: C_8  and  C_11 
REMARK    3  A    between atoms: C_17  and  C_18 
REMARK    4  A    between atoms: C_24  and  C_30 
ROOT
HETATM    1  C   UNL     1      40.610 -11.968   5.663  1.00  0.00     0.091 A 
HETATM    2  N   UNL     1      40.722 -13.079   6.383  1.00  0.00    -0.345 N 
HETATM    3  H   UNL     1      40.328 -13.144   7.321  1.00  0.00     0.167 HD
HETATM    4  C   UNL     1      41.387 -14.169   5.878  1.00  0.00     0.049 A 
HETATM    5  C   UNL     1      41.477 -15.340   6.630  1.00  0.00     0.031 A 
HETATM    6  C   UNL     1      42.113 -16.478   6.105  1.00  0.00     0.014 A 
HETATM    7  C   UNL     1      42.670 -16.468   4.817  1.00  0.00    -0.022 A 
HETATM    8  C   UNL     1      42.600 -15.291   4.067  1.00  0.00     0.031 A 
HETATM    9  C   UNL     1      41.967 -14.167   4.608  1.00  0.00     0.059 A 
HETATM   10  C   UNL     1      41.871 -12.926   3.851  1.00  0.00     0.259 A 
HETATM   11  O   UNL     1      42.315 -12.707   2.745  1.00  0.00    -0.267 OA
HETATM   12  N   UNL     1      41.156 -11.862   4.465  1.00  0.00    -0.312 N 
HETATM   13  H   UNL     1      41.126 -11.023   3.900  1.00  0.00     0.170 HD
ENDROOT
BRANCH   1  14
HETATM   14  C   UNL     1      39.835 -10.819   6.234  1.00  0.00     0.089 C 
HETATM   15  C   UNL     1      40.676  -9.547   6.414  1.00  0.00     0.057 C 
HETATM   16  C   UNL     1      39.630  -8.423   6.475  1.00  0.00     0.242 C 
HETATM   17  N   UNL     1      38.525  -8.895   5.573  1.00  0.00    -0.074 N 
HETATM   18  H   UNL     1      37.607  -8.670   5.996  1.00  0.00     0.277 HD
HETATM   19  H   UNL     1      38.528  -8.358   4.688  1.00  0.00     0.277 HD
HETATM   20  C   UNL     1      38.681 -10.368   5.331  1.00  0.00     0.245 C 
BRANCH  15  21
HETATM   21  C   UNL     1      41.580  -9.586   7.623  1.00  0.00    -0.051 A 
HETATM   22  C   UNL     1      41.147  -9.165   8.891  1.00  0.00     0.008 A 
HETATM   23  C   UNL     1      42.020  -9.167   9.983  1.00  0.00     0.017 A 
HETATM   24  C   UNL     1      43.345  -9.593   9.839  1.00  0.00     0.047 A 
HETATM   25  C   UNL     1      43.773 -10.037   8.580  1.00  0.00     0.017 A 
HETATM   26  C   UNL     1      42.903 -10.033   7.485  1.00  0.00     0.008 A 
BRANCH  24  27
HETATM   27  C   UNL     1      44.308  -9.581  11.009  1.00  0.00     0.417 C 
HETATM   28  F   UNL     1      45.605  -9.442  10.629  1.00  0.00    -0.166 F 
HETATM   29  F   UNL     1      44.241 -10.722  11.742  1.00  0.00    -0.166 F 
HETATM   30  F   UNL     1      44.048  -8.556  11.863  1.00  0.00    -0.166 F 
ENDBRANCH  24  27
ENDBRANCH  15  21
ENDBRANCH   1  14
BRANCH   7  31
HETATM   31  C   UNL     1      43.290 -17.652   4.249  1.00  0.00     0.010 A 
HETATM   32  C   UNL     1      43.357 -18.103   2.910  1.00  0.00     0.152 A 
HETATM   33  N   UNL     1      44.031 -19.246   2.785  1.00  0.00    -0.187 NA
HETATM   34  N   UNL     1      44.403 -19.540   4.038  1.00  0.00    -0.289 N 
HETATM   35  H   UNL     1      44.943 -20.386   4.196  1.00  0.00     0.188 HD
HETATM   36  C   UNL     1      43.982 -18.614   4.954  1.00  0.00     0.123 A 
ENDBRANCH   7  31
TORSDOF 4
ENDMDL
MODEL 10
REMARK VINA RESULT:      -8.7      1.302      2.308
REMARK  4 active torsions:
REMARK  status: ('A' for Active; 'I' for Inactive)
REMARK    1  A    between atoms: C_2  and  C_5 
REMARK    2  A    between atoms: C_8  and  C_11 
REMARK    3  A    between atoms: C_17  and  C_18 
REMARK    4  A    between atoms: C_24  and  C_30 
ROOT
HETATM    1  C   UNL     1      41.286 -14.427   4.398  1.00  0.00     0.091 A 
HETATM    2  N   UNL     1      41.066 -13.201   3.934  1.00  0.00    -0.345 N 
HETATM    3  H   UNL     1      41.275 -12.377   4.495  1.00  0.00     0.167 HD
HETATM    4  C   UNL     1      40.538 -13.020   2.680  1.00  0.00     0.049 A 
HETATM    5  C   UNL     1      40.335 -11.730   2.190  1.00  0.00     0.031 A 
HETATM    6  C   UNL     1      39.840 -11.531   0.889  1.00  0.00     0.014 A 
HETATM    7  C   UNL     1      39.539 -12.616   0.053  1.00  0.00    -0.022 A 
HETATM    8  C   UNL     1      39.722 -13.911   0.546  1.00  0.00     0.031 A 
HETATM    9  C   UNL     1      40.212 -14.090   1.844  1.00  0.00     0.059 A 
HETATM   10  C   UNL     1      40.421 -15.425   2.387  1.00  0.00     0.259 A 
HETATM   11  O   UNL     1      40.191 -16.482   1.841  1.00  0.00    -0.267 OA
HETATM   12  N   UNL     1      40.977 -15.499   3.693  1.00  0.00    -0.312 N 
HETATM   13  H   UNL     1      41.094 -16.448   4.024  1.00  0.00     0.170 HD
ENDROOT
BRANCH   1  14
HETATM   14  C   UNL     1      41.908 -14.577   5.753  1.00  0.00     0.089 C 
HETATM   15  C   UNL     1      43.384 -14.999   5.703  1.00  0.00     0.057 C 
HETATM   16  C   UNL     1      43.933 -14.576   7.074  1.00  0.00     0.242 C 
HETATM   17  N   UNL     1      43.151 -13.341   7.422  1.00  0.00    -0.074 N 
HETATM   18  H   UNL     1      42.904 -13.354   8.428  1.00  0.00     0.277 HD
HETATM   19  H   UNL     1      43.745 -12.499   7.323  1.00  0.00     0.277 HD
HETATM   20  C   UNL     1      41.931 -13.267   6.550  1.00  0.00     0.245 C 
BRANCH  15  21
HETATM   21  C   UNL     1      43.583 -16.466   5.408  1.00  0.00    -0.051 A 
HETATM   22  C   UNL     1      43.939 -16.927   4.129  1.00  0.00     0.008 A 
HETATM   23  C   UNL     1      44.070 -18.295   3.872  1.00  0.00     0.017 A 
HETATM   24  C   UNL     1      43.854 -19.237   4.884  1.00  0.00     0.047 A 
HETATM   25  C   UNL     1      43.522 -18.779   6.166  1.00  0.00     0.017 A 
HETATM   26  C   UNL     1      43.387 -17.411   6.426  1.00  0.00     0.008 A 
BRANCH  24  27
HETATM   27  C   UNL     1      43.972 -20.724   4.614  1.00  0.00     0.417 C 
HETATM   28  F   UNL     1      45.162 -21.244   5.015  1.00  0.00    -0.166 F 
HETATM   29  F   UNL     1      43.848 -21.018   3.294  1.00  0.00    -0.166 F 
HETATM   30  F   UNL     1      43.008 -21.430   5.261  1.00  0.00    -0.166 F 
ENDBRANCH  24  27
ENDBRANCH  15  21
ENDBRANCH   1  14
BRANCH   7  31
HETATM   31  C   UNL     1      39.070 -12.420  -1.307  1.00  0.00     0.010 A 
HETATM   32  C   UNL     1      38.964 -11.241  -2.083  1.00  0.00     0.152 A 
HETATM   33  N   UNL     1      38.491 -11.471  -3.307  1.00  0.00    -0.187 NA
HETATM   34  N   UNL     1      38.290 -12.796  -3.331  1.00  0.00    -0.289 N 
HETATM   35  H   UNL     1      37.927 -13.214  -4.183  1.00  0.00     0.188 HD
HETATM   36  C   UNL     1      38.622 -13.411  -2.155  1.00  0.00     0.123 A 
ENDBRANCH   7  31
TORSDOF 4
ENDMDL
