MODEL 1
REMARK VINA RESULT:      -8.9      0.000      0.000
REMARK  4 active torsions:
REMARK  status: ('A' for Active; 'I' for Inactive)
REMARK    1  A    between atoms: C_6  and  C_7 
REMARK    2  A    between atoms: C_8  and  C_9 
REMARK       I    between atoms: C_9  and  N_10 
REMARK    3  A    between atoms: N_10  and  C_11 
REMARK    4  A    between atoms: C_18  and  C_19 
REMARK       I    between atoms: C_19  and  N_20 
ROOT
HETATM    1  C   UNL     1      44.095 -12.264   6.686  1.00  0.00     0.035 A 
HETATM    2  C   UNL     1      43.443 -11.617   7.744  1.00  0.00     0.046 A 
HETATM    3  C   UNL     1      44.121 -10.614   8.473  1.00  0.00     0.030 A 
HETATM    4  C   UNL     1      45.425 -10.292   8.117  1.00  0.00     0.063 A 
HETATM    5  N   UNL     1      45.808  -9.311   8.989  1.00  0.00    -0.277 N 
HETATM    6  H   UNL     1      46.703  -8.838   9.025  1.00  0.00     0.189 HD
HETATM    7  N   UNL     1      44.868  -8.962   9.881  1.00  0.00    -0.168 NA
HETATM    8  C   UNL     1      43.818  -9.758   9.576  1.00  0.00     0.156 A 
HETATM    9  C   UNL     1      46.103 -10.910   7.066  1.00  0.00     0.034 A 
HETATM   10  C   UNL     1      45.410 -11.900   6.360  1.00  0.00     0.032 A 
ENDROOT
BRANCH   1  11
HETATM   11  N   UNL     1      43.513 -13.287   5.907  1.00  0.00    -0.327 N 
HETATM   12  C   UNL     1      43.164 -14.559   6.311  1.00  0.00     0.227 C 
HETATM   13  O   UNL     1      43.283 -15.032   7.431  1.00  0.00    -0.273 OA
HETATM   14  H   UNL     1      43.371 -13.067   4.935  1.00  0.00     0.169 HD
BRANCH  12  15
HETATM   15  C   UNL     1      42.612 -15.452   5.245  1.00  0.00     0.087 A 
HETATM   16  C   UNL     1      43.526 -15.895   4.112  1.00  0.00     0.032 A 
HETATM   17  C   UNL     1      42.300 -15.060   3.825  1.00  0.00     0.025 A 
BRANCH  16  18
HETATM   18  C   UNL     1      43.570 -17.349   3.708  1.00  0.00    -0.051 A 
HETATM   19  C   UNL     1      44.019 -18.338   4.599  1.00  0.00     0.031 A 
HETATM   20  C   UNL     1      44.031 -19.685   4.232  1.00  0.00     0.034 A 
HETATM   21  C   UNL     1      43.591 -20.079   2.972  1.00  0.00     0.024 A 
HETATM   22 CL   UNL     1      44.587 -20.867   5.352  1.00  0.00    -0.084 Cl
HETATM   23  C   UNL     1      43.135 -19.117   2.076  1.00  0.00     0.002 A 
HETATM   24  C   UNL     1      43.121 -17.769   2.444  1.00  0.00     0.007 A 
ENDBRANCH  16  18
ENDBRANCH  12  15
ENDBRANCH   1  11
BRANCH   8  25
HETATM   25  C   UNL     1      42.563  -9.685  10.337  1.00  0.00     0.270 C 
HETATM   26  N   UNL     1      42.530 -10.499  11.437  1.00  0.00    -0.365 N 
HETATM   27  H   UNL     1      43.340 -11.071  11.642  1.00  0.00     0.159 HD
HETATM   28  H   UNL     1      41.709 -10.515  12.021  1.00  0.00     0.159 HD
HETATM   29  O   UNL     1      41.609  -8.973  10.047  1.00  0.00    -0.266 OA
ENDBRANCH   8  25
TORSDOF 4
ENDMDL
MODEL 2
REMARK VINA RESULT:      -8.8      2.032      2.798
REMARK  4 active torsions:
REMARK  status: ('A' for Active; 'I' for Inactive)
REMARK    1  A    between atoms: C_6  and  C_7 
REMARK    2  A    between atoms: C_8  and  C_9 
REMARK       I    between atoms: C_9  and  N_10 
REMARK    3  A    between atoms: N_10  and  C_11 
REMARK    4  A    between atoms: C_18  and  C_19 
REMARK       I    between atoms: C_19  and  N_20 
ROOT
HETATM    1  C   UNL     1      42.082 -12.484   5.212  1.00  0.00     0.035 A 
HETATM    2  C   UNL     1      43.166 -12.108   6.015  1.00  0.00     0.046 A 
HETATM    3  C   UNL     1      43.090 -10.919   6.777  1.00  0.00     0.030 A 
HETATM    4  C   UNL     1      41.933 -10.153   6.709  1.00  0.00     0.063 A 
HETATM    5  N   UNL     1      42.156  -9.086   7.535  1.00  0.00    -0.277 N 
HETATM    6  H   UNL     1      41.523  -8.318   7.729  1.00  0.00     0.189 HD
HETATM    7  N   UNL     1      43.355  -9.089   8.137  1.00  0.00    -0.168 NA
HETATM    8  C   UNL     1      43.946 -10.217   7.679  1.00  0.00     0.156 A 
HETATM    9  C   UNL     1      40.832 -10.500   5.926  1.00  0.00     0.034 A 
HETATM   10  C   UNL     1      40.932 -11.681   5.181  1.00  0.00     0.032 A 
ENDROOT
BRANCH   1  11
HETATM   11  N   UNL     1      42.064 -13.641   4.403  1.00  0.00    -0.327 N 
HETATM   12  C   UNL     1      41.694 -14.919   4.767  1.00  0.00     0.227 C 
HETATM   13  O   UNL     1      41.298 -15.284   5.864  1.00  0.00    -0.273 OA
HETATM   14  H   UNL     1      42.393 -13.518   3.459  1.00  0.00     0.169 HD
BRANCH  12  15
HETATM   15  C   UNL     1      41.828 -15.964   3.706  1.00  0.00     0.087 A 
HETATM   16  C   UNL     1      43.211 -16.513   3.386  1.00  0.00     0.032 A 
HETATM   17  C   UNL     1      42.419 -15.772   2.334  1.00  0.00     0.025 A 
BRANCH  16  18
HETATM   18  C   UNL     1      43.419 -18.003   3.274  1.00  0.00    -0.051 A 
HETATM   19  C   UNL     1      43.888 -18.756   4.364  1.00  0.00     0.031 A 
HETATM   20  C   UNL     1      44.051 -20.140   4.266  1.00  0.00     0.034 A 
HETATM   21  C   UNL     1      43.747 -20.806   3.083  1.00  0.00     0.024 A 
HETATM   22 CL   UNL     1      44.626 -21.027   5.623  1.00  0.00    -0.084 Cl
HETATM   23  C   UNL     1      43.274 -20.082   1.992  1.00  0.00     0.002 A 
HETATM   24  C   UNL     1      43.109 -18.697   2.092  1.00  0.00     0.007 A 
ENDBRANCH  16  18
ENDBRANCH  12  15
ENDBRANCH   1  11
BRANCH   8  25
HETATM   25  C   UNL     1      45.299 -10.593   8.109  1.00  0.00     0.270 C 
HETATM   26  N   UNL     1      46.240 -10.522   7.117  1.00  0.00    -0.365 N 
HETATM   27  H   UNL     1      45.948 -10.226   6.193  1.00  0.00     0.159 HD
HETATM   28  H   UNL     1      47.197 -10.761   7.319  1.00  0.00     0.159 HD
HETATM   29  O   UNL     1      45.602 -10.944   9.244  1.00  0.00    -0.266 OA
ENDBRANCH   8  25
TORSDOF 4
ENDMDL
MODEL 3
REMARK VINA RESULT:      -8.5      6.623      8.880
REMARK  4 active torsions:
REMARK  status: ('A' for Active; 'I' for Inactive)
REMARK    1  A    between atoms: C_6  and  C_7 
REMARK    2  A    between atoms: C_8  and  C_9 
REMARK       I    between atoms: C_9  and  N_10 
REMARK    3  A    between atoms: N_10  and  C_11 
REMARK    4  A    between atoms: C_18  and  C_19 
REMARK       I    between atoms: C_19  and  N_20 
ROOT
HETATM    1  C   UNL     1      39.870 -13.538  -0.996  1.00  0.00     0.035 A 
HETATM    2  C   UNL     1      39.145 -12.441  -0.511  1.00  0.00     0.046 A 
HETATM    3  C   UNL     1      38.082 -11.914  -1.279  1.00  0.00     0.030 A 
HETATM    4  C   UNL     1      37.781 -12.503  -2.501  1.00  0.00     0.063 A 
HETATM    5  N   UNL     1      36.730 -11.785  -3.001  1.00  0.00    -0.277 N 
HETATM    6  H   UNL     1      36.249 -11.934  -3.881  1.00  0.00     0.189 HD
HETATM    7  N   UNL     1      36.317 -10.781  -2.212  1.00  0.00    -0.168 NA
HETATM    8  C   UNL     1      37.142 -10.847  -1.143  1.00  0.00     0.156 A 
HETATM    9  C   UNL     1      38.477 -13.599  -3.011  1.00  0.00     0.034 A 
HETATM   10  C   UNL     1      39.525 -14.103  -2.233  1.00  0.00     0.032 A 
ENDROOT
BRANCH   1  11
HETATM   11  N   UNL     1      40.957 -14.128  -0.315  1.00  0.00    -0.327 N 
HETATM   12  C   UNL     1      40.910 -15.022   0.734  1.00  0.00     0.227 C 
HETATM   13  O   UNL     1      39.908 -15.481   1.263  1.00  0.00    -0.273 OA
HETATM   14  H   UNL     1      41.872 -13.830  -0.614  1.00  0.00     0.169 HD
BRANCH  12  15
HETATM   15  C   UNL     1      42.233 -15.440   1.295  1.00  0.00     0.087 A 
HETATM   16  C   UNL     1      42.350 -15.689   2.792  1.00  0.00     0.032 A 
HETATM   17  C   UNL     1      43.154 -14.593   2.132  1.00  0.00     0.025 A 
BRANCH  16  18
HETATM   18  C   UNL     1      43.031 -16.939   3.292  1.00  0.00    -0.051 A 
HETATM   19  C   UNL     1      43.153 -18.077   2.477  1.00  0.00     0.031 A 
HETATM   20  C   UNL     1      43.810 -19.222   2.933  1.00  0.00     0.034 A 
HETATM   21  C   UNL     1      44.364 -19.259   4.208  1.00  0.00     0.024 A 
HETATM   22 CL   UNL     1      43.939 -20.596   1.904  1.00  0.00    -0.084 Cl
HETATM   23  C   UNL     1      44.262 -18.141   5.031  1.00  0.00     0.002 A 
HETATM   24  C   UNL     1      43.607 -16.994   4.573  1.00  0.00     0.007 A 
ENDBRANCH  16  18
ENDBRANCH  12  15
ENDBRANCH   1  11
BRANCH   8  25
HETATM   25  C   UNL     1      37.016  -9.899  -0.027  1.00  0.00     0.270 C 
HETATM   26  N   UNL     1      35.987 -10.181   0.831  1.00  0.00    -0.365 N 
HETATM   27  H   UNL     1      35.409 -10.991   0.645  1.00  0.00     0.159 HD
HETATM   28  H   UNL     1      35.824  -9.585   1.626  1.00  0.00     0.159 HD
HETATM   29  O   UNL     1      37.746  -8.931   0.156  1.00  0.00    -0.266 OA
ENDBRANCH   8  25
TORSDOF 4
ENDMDL
MODEL 4
REMARK VINA RESULT:      -8.5      4.378      9.036
REMARK  4 active torsions:
REMARK  status: ('A' for Active; 'I' for Inactive)
REMARK    1  A    between atoms: C_6  and  C_7 
REMARK    2  A    between atoms: C_8  and  C_9 
REMARK       I    between atoms: C_9  and  N_10 
REMARK    3  A    between atoms: N_10  and  C_11 
REMARK    4  A    between atoms: C_18  and  C_19 
REMARK       I    between atoms: C_19  and  N_20 
ROOT
HETATM    1  C   UNL     1      43.249 -15.692   3.606  1.00  0.00     0.035 A 
HETATM    2  C   UNL     1      43.487 -16.870   4.325  1.00  0.00     0.046 A 
HETATM    3  C   UNL     1      43.510 -18.109   3.646  1.00  0.00     0.030 A 
HETATM    4  C   UNL     1      43.298 -18.125   2.273  1.00  0.00     0.063 A 
HETATM    5  N   UNL     1      43.375 -19.441   1.909  1.00  0.00    -0.277 N 
HETATM    6  H   UNL     1      43.267 -19.826   0.978  1.00  0.00     0.189 HD
HETATM    7  N   UNL     1      43.620 -20.285   2.922  1.00  0.00    -0.168 NA
HETATM    8  C   UNL     1      43.707 -19.478   4.004  1.00  0.00     0.156 A 
HETATM    9  C   UNL     1      43.066 -16.971   1.524  1.00  0.00     0.034 A 
HETATM   10  C   UNL     1      43.047 -15.757   2.219  1.00  0.00     0.032 A 
ENDROOT
BRANCH   1  11
HETATM   11  N   UNL     1      43.191 -14.408   4.191  1.00  0.00    -0.327 N 
HETATM   12  C   UNL     1      42.066 -13.703   4.566  1.00  0.00     0.227 C 
HETATM   13  O   UNL     1      40.904 -14.070   4.474  1.00  0.00    -0.273 OA
HETATM   14  H   UNL     1      44.077 -13.944   4.314  1.00  0.00     0.169 HD
BRANCH  12  15
HETATM   15  C   UNL     1      42.309 -12.332   5.115  1.00  0.00     0.087 A 
HETATM   16  C   UNL     1      42.614 -12.179   6.598  1.00  0.00     0.032 A 
HETATM   17  C   UNL     1      41.378 -11.548   6.000  1.00  0.00     0.025 A 
BRANCH  16  18
HETATM   18  C   UNL     1      43.772 -11.317   7.039  1.00  0.00    -0.051 A 
HETATM   19  C   UNL     1      43.559 -10.086   7.683  1.00  0.00     0.031 A 
HETATM   20  C   UNL     1      44.632  -9.305   8.116  1.00  0.00     0.034 A 
HETATM   21  C   UNL     1      45.942  -9.733   7.922  1.00  0.00     0.024 A 
HETATM   22 CL   UNL     1      44.331  -7.805   8.902  1.00  0.00    -0.084 Cl
HETATM   23  C   UNL     1      46.178 -10.952   7.293  1.00  0.00     0.002 A 
HETATM   24  C   UNL     1      45.102 -11.735   6.861  1.00  0.00     0.007 A 
ENDBRANCH  16  18
ENDBRANCH  12  15
ENDBRANCH   1  11
BRANCH   8  25
HETATM   25  C   UNL     1      43.973 -20.026   5.341  1.00  0.00     0.270 C 
HETATM   26  N   UNL     1      44.734 -21.165   5.336  1.00  0.00    -0.365 N 
HETATM   27  H   UNL     1      45.049 -21.533   4.447  1.00  0.00     0.159 HD
HETATM   28  H   UNL     1      44.968 -21.611   6.207  1.00  0.00     0.159 HD
HETATM   29  O   UNL     1      43.569 -19.540   6.391  1.00  0.00    -0.266 OA
ENDBRANCH   8  25
TORSDOF 4
ENDMDL
MODEL 5
REMARK VINA RESULT:      -8.3      5.130      7.879
REMARK  4 active torsions:
REMARK  status: ('A' for Active; 'I' for Inactive)
REMARK    1  A    between atoms: C_6  and  C_7 
REMARK    2  A    between atoms: C_8  and  C_9 
REMARK       I    between atoms: C_9  and  N_10 
REMARK    3  A    between atoms: N_10  and  C_11 
REMARK    4  A    between atoms: C_18  and  C_19 
REMARK       I    between atoms: C_19  and  N_20 
ROOT
HETATM    1  C   UNL     1      40.922 -14.215   2.209  1.00  0.00     0.035 A 
HETATM    2  C   UNL     1      40.896 -14.135   0.811  1.00  0.00     0.046 A 
HETATM    3  C   UNL     1      39.952 -13.295   0.177  1.00  0.00     0.030 A 
HETATM    4  C   UNL     1      39.071 -12.564   0.964  1.00  0.00     0.063 A 
HETATM    5  N   UNL     1      38.294 -11.863   0.084  1.00  0.00    -0.277 N 
HETATM    6  H   UNL     1      37.540 -11.224   0.307  1.00  0.00     0.189 HD
HETATM    7  N   UNL     1      38.591 -12.070  -1.208  1.00  0.00    -0.168 NA
HETATM    8  C   UNL     1      39.615 -12.953  -1.168  1.00  0.00     0.156 A 
HETATM    9  C   UNL     1      39.072 -12.614   2.359  1.00  0.00     0.034 A 
HETATM   10  C   UNL     1      40.016 -13.453   2.962  1.00  0.00     0.032 A 
ENDROOT
BRANCH   1  11
HETATM   11  N   UNL     1      41.812 -15.034   2.936  1.00  0.00    -0.327 N 
HETATM   12  C   UNL     1      42.734 -14.643   3.884  1.00  0.00     0.227 C 
HETATM   13  O   UNL     1      42.940 -13.506   4.283  1.00  0.00    -0.273 OA
HETATM   14  H   UNL     1      41.790 -16.015   2.705  1.00  0.00     0.169 HD
BRANCH  12  15
HETATM   15  C   UNL     1      43.586 -15.733   4.454  1.00  0.00     0.087 A 
HETATM   16  C   UNL     1      42.913 -16.873   5.206  1.00  0.00     0.032 A 
HETATM   17  C   UNL     1      43.889 -15.959   5.912  1.00  0.00     0.025 A 
BRANCH  16  18
HETATM   18  C   UNL     1      43.293 -18.300   4.899  1.00  0.00    -0.051 A 
HETATM   19  C   UNL     1      43.421 -18.750   3.573  1.00  0.00     0.031 A 
HETATM   20  C   UNL     1      43.801 -20.064   3.293  1.00  0.00     0.034 A 
HETATM   21  C   UNL     1      44.066 -20.960   4.324  1.00  0.00     0.024 A 
HETATM   22 CL   UNL     1      43.949 -20.576   1.657  1.00  0.00    -0.084 Cl
HETATM   23  C   UNL     1      43.952 -20.535   5.645  1.00  0.00     0.002 A 
HETATM   24  C   UNL     1      43.574 -19.218   5.925  1.00  0.00     0.007 A 
ENDBRANCH  16  18
ENDBRANCH  12  15
ENDBRANCH   1  11
BRANCH   8  25
HETATM   25  C   UNL     1      40.242 -13.445  -2.403  1.00  0.00     0.270 C 
HETATM   26  N   UNL     1      41.325 -12.713  -2.808  1.00  0.00    -0.365 N 
HETATM   27  H   UNL     1      41.609 -11.917  -2.250  1.00  0.00     0.159 HD
HETATM   28  H   UNL     1      41.820 -12.977  -3.645  1.00  0.00     0.159 HD
HETATM   29  O   UNL     1      39.860 -14.418  -3.042  1.00  0.00    -0.266 OA
ENDBRANCH   8  25
TORSDOF 4
ENDMDL
MODEL 6
REMARK VINA RESULT:      -8.3      5.823      8.016
REMARK  4 active torsions:
REMARK  status: ('A' for Active; 'I' for Inactive)
REMARK    1  A    between atoms: C_6  and  C_7 
REMARK    2  A    between atoms: C_8  and  C_9 
REMARK       I    between atoms: C_9  and  N_10 
REMARK    3  A    between atoms: N_10  and  C_11 
REMARK    4  A    between atoms: C_18  and  C_19 
REMARK       I    between atoms: C_19  and  N_20 
ROOT
HETATM    1  C   UNL     1      40.598 -13.386  -0.277  1.00  0.00     0.035 A 
HETATM    2  C   UNL     1      41.146 -12.097  -0.254  1.00  0.00     0.046 A 
HETATM    3  C   UNL     1      40.497 -11.051  -0.948  1.00  0.00     0.030 A 
HETATM    4  C   UNL     1      39.323 -11.330  -1.637  1.00  0.00     0.063 A 
HETATM    5  N   UNL     1      38.941 -10.144  -2.199  1.00  0.00    -0.277 N 
HETATM    6  H   UNL     1      38.125  -9.974  -2.777  1.00  0.00     0.189 HD
HETATM    7  N   UNL     1      39.760  -9.114  -1.936  1.00  0.00    -0.168 NA
HETATM    8  C   UNL     1      40.727  -9.658  -1.163  1.00  0.00     0.156 A 
HETATM    9  C   UNL     1      38.746 -12.600  -1.677  1.00  0.00     0.034 A 
HETATM   10  C   UNL     1      39.408 -13.619  -0.982  1.00  0.00     0.032 A 
ENDROOT
BRANCH   1  11
HETATM   11  N   UNL     1      41.175 -14.501   0.369  1.00  0.00    -0.327 N 
HETATM   12  C   UNL     1      40.977 -14.919   1.668  1.00  0.00     0.227 C 
HETATM   13  O   UNL     1      40.246 -14.404   2.501  1.00  0.00    -0.273 OA
HETATM   14  H   UNL     1      41.836 -15.028  -0.180  1.00  0.00     0.169 HD
BRANCH  12  15
HETATM   15  C   UNL     1      41.770 -16.112   2.097  1.00  0.00     0.087 A 
HETATM   16  C   UNL     1      42.947 -15.911   3.041  1.00  0.00     0.032 A 
HETATM   17  C   UNL     1      43.165 -16.464   1.652  1.00  0.00     0.025 A 
BRANCH  16  18
HETATM   18  C   UNL     1      43.100 -16.802   4.249  1.00  0.00    -0.051 A 
HETATM   19  C   UNL     1      43.662 -18.086   4.139  1.00  0.00     0.031 A 
HETATM   20  C   UNL     1      43.829 -18.897   5.264  1.00  0.00     0.034 A 
HETATM   21  C   UNL     1      43.444 -18.447   6.523  1.00  0.00     0.024 A 
HETATM   22 CL   UNL     1      44.522 -20.462   5.089  1.00  0.00    -0.084 Cl
HETATM   23  C   UNL     1      42.892 -17.177   6.657  1.00  0.00     0.002 A 
HETATM   24  C   UNL     1      42.727 -16.364   5.531  1.00  0.00     0.007 A 
ENDBRANCH  16  18
ENDBRANCH  12  15
ENDBRANCH   1  11
BRANCH   8  25
HETATM   25  C   UNL     1      41.838  -8.842  -0.652  1.00  0.00     0.270 C 
HETATM   26  N   UNL     1      41.522  -8.097   0.452  1.00  0.00    -0.365 N 
HETATM   27  H   UNL     1      40.582  -8.159   0.825  1.00  0.00     0.159 HD
HETATM   28  H   UNL     1      42.221  -7.508   0.872  1.00  0.00     0.159 HD
HETATM   29  O   UNL     1      42.962  -8.805  -1.141  1.00  0.00    -0.266 OA
ENDBRANCH   8  25
TORSDOF 4
ENDMDL
MODEL 7
REMARK VINA RESULT:      -8.2      3.682      9.108
REMARK  4 active torsions:
REMARK  status: ('A' for Active; 'I' for Inactive)
REMARK    1  A    between atoms: C_6  and  C_7 
REMARK    2  A    between atoms: C_8  and  C_9 
REMARK       I    between atoms: C_9  and  N_10 
REMARK    3  A    between atoms: N_10  and  C_11 
REMARK    4  A    between atoms: C_18  and  C_19 
REMARK       I    between atoms: C_19  and  N_20 
ROOT
HETATM    1  C   UNL     1      43.428 -12.975   6.513  1.00  0.00     0.035 A 
HETATM    2  C   UNL     1      43.538 -14.371   6.556  1.00  0.00     0.046 A 
HETATM    3  C   UNL     1      43.184 -15.134   5.420  1.00  0.00     0.030 A 
HETATM    4  C   UNL     1      42.737 -14.474   4.282  1.00  0.00     0.063 A 
HETATM    5  N   UNL     1      42.474 -15.459   3.370  1.00  0.00    -0.277 N 
HETATM    6  H   UNL     1      42.127 -15.343   2.425  1.00  0.00     0.189 HD
HETATM    7  N   UNL     1      42.711 -16.704   3.812  1.00  0.00    -0.168 NA
HETATM    8  C   UNL     1      43.152 -16.521   5.078  1.00  0.00     0.156 A 
HETATM    9  C   UNL     1      42.622 -13.086   4.200  1.00  0.00     0.034 A 
HETATM   10  C   UNL     1      42.978 -12.353   5.339  1.00  0.00     0.032 A 
ENDROOT
BRANCH   1  11
HETATM   11  N   UNL     1      43.741 -12.125   7.595  1.00  0.00    -0.327 N 
HETATM   12  C   UNL     1      44.834 -11.295   7.728  1.00  0.00     0.227 C 
HETATM   13  O   UNL     1      45.734 -11.132   6.917  1.00  0.00    -0.273 OA
HETATM   14  H   UNL     1      43.103 -12.160   8.374  1.00  0.00     0.169 HD
BRANCH  12  15
HETATM   15  C   UNL     1      44.931 -10.546   9.019  1.00  0.00     0.087 A 
HETATM   16  C   UNL     1      44.038  -9.332   9.231  1.00  0.00     0.032 A 
HETATM   17  C   UNL     1      45.541  -9.183   9.216  1.00  0.00     0.025 A 
BRANCH  16  18
HETATM   18  C   UNL     1      43.271  -9.183  10.522  1.00  0.00    -0.051 A 
HETATM   19  C   UNL     1      41.968  -9.694  10.658  1.00  0.00     0.031 A 
HETATM   20  C   UNL     1      41.273  -9.579  11.864  1.00  0.00     0.034 A 
HETATM   21  C   UNL     1      41.859  -8.958  12.963  1.00  0.00     0.024 A 
HETATM   22 CL   UNL     1      39.681 -10.219  11.992  1.00  0.00    -0.084 Cl
HETATM   23  C   UNL     1      43.150  -8.451  12.853  1.00  0.00     0.002 A 
HETATM   24  C   UNL     1      43.847  -8.567  11.647  1.00  0.00     0.007 A 
ENDBRANCH  16  18
ENDBRANCH  12  15
ENDBRANCH   1  11
BRANCH   8  25
HETATM   25  C   UNL     1      43.528 -17.662   5.924  1.00  0.00     0.270 C 
HETATM   26  N   UNL     1      44.103 -18.698   5.239  1.00  0.00    -0.365 N 
HETATM   27  H   UNL     1      44.226 -18.609   4.237  1.00  0.00     0.159 HD
HETATM   28  H   UNL     1      44.394 -19.524   5.736  1.00  0.00     0.159 HD
HETATM   29  O   UNL     1      43.358 -17.722   7.136  1.00  0.00    -0.266 OA
ENDBRANCH   8  25
TORSDOF 4
ENDMDL
MODEL 8
REMARK VINA RESULT:      -8.2      5.560      8.513
REMARK  4 active torsions:
REMARK  status: ('A' for Active; 'I' for Inactive)
REMARK    1  A    between atoms: C_6  and  C_7 
REMARK    2  A    between atoms: C_8  and  C_9 
REMARK       I    between atoms: C_9  and  N_10 
REMARK    3  A    between atoms: N_10  and  C_11 
REMARK    4  A    between atoms: C_18  and  C_19 
REMARK       I    between atoms: C_19  and  N_20 
ROOT
HETATM    1  C   UNL     1      42.543 -16.141   2.351  1.00  0.00     0.035 A 
HETATM    2  C   UNL     1      42.303 -15.942   3.717  1.00  0.00     0.046 A 
HETATM    3  C   UNL     1      42.799 -16.876   4.655  1.00  0.00     0.030 A 
HETATM    4  C   UNL     1      43.519 -17.971   4.194  1.00  0.00     0.063 A 
HETATM    5  N   UNL     1      43.857 -18.681   5.313  1.00  0.00    -0.277 N 
HETATM    6  H   UNL     1      44.385 -19.545   5.355  1.00  0.00     0.189 HD
HETATM    7  N   UNL     1      43.422 -18.145   6.464  1.00  0.00    -0.168 NA
HETATM    8  C   UNL     1      42.767 -17.027   6.075  1.00  0.00     0.156 A 
HETATM    9  C   UNL     1      43.782 -18.197   2.843  1.00  0.00     0.034 A 
HETATM   10  C   UNL     1      43.280 -17.259   1.934  1.00  0.00     0.032 A 
ENDROOT
BRANCH   1  11
HETATM   11  N   UNL     1      42.078 -15.278   1.335  1.00  0.00    -0.327 N 
HETATM   12  C   UNL     1      40.789 -15.147   0.863  1.00  0.00     0.227 C 
HETATM   13  O   UNL     1      39.800 -15.751   1.253  1.00  0.00    -0.273 OA
HETATM   14  H   UNL     1      42.784 -14.719   0.882  1.00  0.00     0.169 HD
BRANCH  12  15
HETATM   15  C   UNL     1      40.602 -14.184  -0.267  1.00  0.00     0.087 A 
HETATM   16  C   UNL     1      39.941 -12.843   0.015  1.00  0.00     0.032 A 
HETATM   17  C   UNL     1      39.298 -13.830  -0.931  1.00  0.00     0.025 A 
BRANCH  16  18
HETATM   18  C   UNL     1      40.564 -11.574  -0.515  1.00  0.00    -0.051 A 
HETATM   19  C   UNL     1      40.476 -11.234  -1.876  1.00  0.00     0.031 A 
HETATM   20  C   UNL     1      41.029 -10.046  -2.358  1.00  0.00     0.034 A 
HETATM   21  C   UNL     1      41.678  -9.167  -1.496  1.00  0.00     0.024 A 
HETATM   22 CL   UNL     1      40.900  -9.664  -4.031  1.00  0.00    -0.084 Cl
HETATM   23  C   UNL     1      41.771  -9.479  -0.143  1.00  0.00     0.002 A 
HETATM   24  C   UNL     1      41.215 -10.668   0.339  1.00  0.00     0.007 A 
ENDBRANCH  16  18
ENDBRANCH  12  15
ENDBRANCH   1  11
BRANCH   8  25
HETATM   25  C   UNL     1      42.131 -16.139   7.058  1.00  0.00     0.270 C 
HETATM   26  N   UNL     1      42.938 -15.807   8.114  1.00  0.00    -0.365 N 
HETATM   27  H   UNL     1      43.879 -16.181   8.141  1.00  0.00     0.159 HD
HETATM   28  H   UNL     1      42.587 -15.201   8.837  1.00  0.00     0.159 HD
HETATM   29  O   UNL     1      40.985 -15.711   6.978  1.00  0.00    -0.266 OA
ENDBRANCH   8  25
TORSDOF 4
ENDMDL
MODEL 9
REMARK VINA RESULT:      -8.1      2.716      3.367
REMARK  4 active torsions:
REMARK  status: ('A' for Active; 'I' for Inactive)
REMARK    1  A    between atoms: C_6  and  C_7 
REMARK    2  A    between atoms: C_8  and  C_9 
REMARK       I    between atoms: C_9  and  N_10 
REMARK    3  A    between atoms: N_10  and  C_11 
REMARK    4  A    between atoms: C_18  and  C_19 
REMARK       I    between atoms: C_19  and  N_20 
ROOT
HETATM    1  C   UNL     1      41.032 -12.373   4.661  1.00  0.00     0.035 A 
HETATM    2  C   UNL     1      41.810 -11.796   5.673  1.00  0.00     0.046 A 
HETATM    3  C   UNL     1      41.315 -10.677   6.381  1.00  0.00     0.030 A 
HETATM    4  C   UNL     1      40.061 -10.178   6.054  1.00  0.00     0.063 A 
HETATM    5  N   UNL     1      39.863  -9.114   6.891  1.00  0.00    -0.277 N 
HETATM    6  H   UNL     1      39.052  -8.508   6.931  1.00  0.00     0.189 HD
HETATM    7  N   UNL     1      40.878  -8.877   7.737  1.00  0.00    -0.168 NA
HETATM    8  C   UNL     1      41.784  -9.835   7.435  1.00  0.00     0.156 A 
HETATM    9  C   UNL     1      39.256 -10.730   5.058  1.00  0.00     0.034 A 
HETATM   10  C   UNL     1      39.768 -11.837   4.371  1.00  0.00     0.032 A 
ENDROOT
BRANCH   1  11
HETATM   11  N   UNL     1      41.439 -13.480   3.886  1.00  0.00    -0.327 N 
HETATM   12  C   UNL     1      41.274 -14.819   4.175  1.00  0.00     0.227 C 
HETATM   13  O   UNL     1      40.725 -15.295   5.158  1.00  0.00    -0.273 OA
HETATM   14  H   UNL     1      41.940 -13.259   3.041  1.00  0.00     0.169 HD
BRANCH  12  15
HETATM   15  C   UNL     1      41.860 -15.776   3.187  1.00  0.00     0.087 A 
HETATM   16  C   UNL     1      43.219 -16.394   3.481  1.00  0.00     0.032 A 
HETATM   17  C   UNL     1      43.024 -15.511   2.270  1.00  0.00     0.025 A 
BRANCH  16  18
HETATM   18  C   UNL     1      43.419 -17.881   3.316  1.00  0.00    -0.051 A 
HETATM   19  C   UNL     1      43.869 -18.678   4.382  1.00  0.00     0.031 A 
HETATM   20  C   UNL     1      44.024 -20.057   4.234  1.00  0.00     0.034 A 
HETATM   21  C   UNL     1      43.731 -20.676   3.022  1.00  0.00     0.024 A 
HETATM   22 CL   UNL     1      44.576 -21.000   5.563  1.00  0.00    -0.084 Cl
HETATM   23  C   UNL     1      43.277 -19.908   1.954  1.00  0.00     0.002 A 
HETATM   24  C   UNL     1      43.119 -18.527   2.104  1.00  0.00     0.007 A 
ENDBRANCH  16  18
ENDBRANCH  12  15
ENDBRANCH   1  11
BRANCH   8  25
HETATM   25  C   UNL     1      43.063  -9.923   8.153  1.00  0.00     0.270 C 
HETATM   26  N   UNL     1      42.935 -10.196   9.489  1.00  0.00    -0.365 N 
HETATM   27  H   UNL     1      42.006 -10.316   9.873  1.00  0.00     0.159 HD
HETATM   28  H   UNL     1      43.760 -10.276  10.062  1.00  0.00     0.159 HD
HETATM   29  O   UNL     1      44.166  -9.771   7.640  1.00  0.00    -0.266 OA
ENDBRANCH   8  25
TORSDOF 4
ENDMDL
MODEL 10
REMARK VINA RESULT:      -8.1      5.695      8.306
REMARK  4 active torsions:
REMARK  status: ('A' for Active; 'I' for Inactive)
REMARK    1  A    between atoms: C_6  and  C_7 
REMARK    2  A    between atoms: C_8  and  C_9 
REMARK       I    between atoms: C_9  and  N_10 
REMARK    3  A    between atoms: N_10  and  C_11 
REMARK    4  A    between atoms: C_18  and  C_19 
REMARK       I    between atoms: C_19  and  N_20 
ROOT
HETATM    1  C   UNL     1      42.088 -15.822   2.494  1.00  0.00     0.035 A 
HETATM    2  C   UNL     1      42.073 -15.826   3.894  1.00  0.00     0.046 A 
HETATM    3  C   UNL     1      42.800 -16.814   4.597  1.00  0.00     0.030 A 
HETATM    4  C   UNL     1      43.518 -17.759   3.874  1.00  0.00     0.063 A 
HETATM    5  N   UNL     1      44.102 -18.566   4.810  1.00  0.00    -0.277 N 
HETATM    6  H   UNL     1      44.699 -19.367   4.642  1.00  0.00     0.189 HD
HETATM    7  N   UNL     1      43.830 -18.231   6.081  1.00  0.00    -0.168 NA
HETATM    8  C   UNL     1      43.027 -17.148   5.967  1.00  0.00     0.156 A 
HETATM    9  C   UNL     1      43.561 -17.781   2.480  1.00  0.00     0.034 A 
HETATM   10  C   UNL     1      42.833 -16.793   1.807  1.00  0.00     0.032 A 
ENDROOT
BRANCH   1  11
HETATM   11  N   UNL     1      41.385 -14.891   1.699  1.00  0.00    -0.327 N 
HETATM   12  C   UNL     1      41.593 -13.530   1.611  1.00  0.00     0.227 C 
HETATM   13  O   UNL     1      42.444 -12.878   2.199  1.00  0.00    -0.273 OA
HETATM   14  H   UNL     1      40.619 -15.266   1.163  1.00  0.00     0.169 HD
BRANCH  12  15
HETATM   15  C   UNL     1      40.652 -12.783   0.721  1.00  0.00     0.087 A 
HETATM   16  C   UNL     1      40.795 -12.930  -0.787  1.00  0.00     0.032 A 
HETATM   17  C   UNL     1      40.988 -11.585  -0.127  1.00  0.00     0.025 A 
BRANCH  16  18
HETATM   18  C   UNL     1      39.574 -13.196  -1.633  1.00  0.00    -0.051 A 
HETATM   19  C   UNL     1      38.590 -12.210  -1.822  1.00  0.00     0.031 A 
HETATM   20  C   UNL     1      37.476 -12.450  -2.628  1.00  0.00     0.034 A 
HETATM   21  C   UNL     1      37.317 -13.675  -3.269  1.00  0.00     0.024 A 
HETATM   22 CL   UNL     1      36.294 -11.217  -2.836  1.00  0.00    -0.084 Cl
HETATM   23  C   UNL     1      38.282 -14.664  -3.103  1.00  0.00     0.002 A 
HETATM   24  C   UNL     1      39.399 -14.423  -2.297  1.00  0.00     0.007 A 
ENDBRANCH  16  18
ENDBRANCH  12  15
ENDBRANCH   1  11
BRANCH   8  25
HETATM   25  C   UNL     1      42.499 -16.466   7.156  1.00  0.00     0.270 C 
HETATM   26  N   UNL     1      43.396 -16.366   8.186  1.00  0.00    -0.365 N 
HETATM   27  H   UNL     1      44.324 -16.753   8.060  1.00  0.00     0.159 HD
HETATM   28  H   UNL     1      43.123 -15.912   9.042  1.00  0.00     0.159 HD
HETATM   29  O   UNL     1      41.365 -16.012   7.258  1.00  0.00    -0.266 OA
ENDBRANCH   8  25
TORSDOF 4
ENDMDL
