MODEL 1
REMARK VINA RESULT:      -9.6      0.000      0.000
REMARK  4 active torsions:
REMARK  status: ('A' for Active; 'I' for Inactive)
REMARK    1  A    between atoms: C_4  and  C_5 
REMARK    2  A    between atoms: C_6  and  N_7 
REMARK    3  A    between atoms: C_9  and  C_10 
REMARK       I    between atoms: C_10  and  N_11 
REMARK    4  A    between atoms: N_11  and  C_12 
ROOT
HETATM    1  C   UNL     1      40.478 -13.529   2.280  1.00  0.00     0.019 A 
HETATM    2  C   UNL     1      40.431 -12.982   3.523  1.00  0.00     0.111 A 
HETATM    3  C   UNL     1      39.525 -11.779   3.767  1.00  0.00     0.273 A 
HETATM    4  O   UNL     1      39.428 -11.233   4.866  1.00  0.00    -0.266 OA
HETATM    5  N   UNL     1      38.804 -11.299   2.714  1.00  0.00    -0.321 N 
HETATM    6  C   UNL     1      38.841 -11.843   1.434  1.00  0.00     0.046 A 
HETATM    7  C   UNL     1      39.651 -12.955   1.184  1.00  0.00     0.006 A 
HETATM    8  C   UNL     1      38.065 -11.263   0.428  1.00  0.00     0.032 A 
HETATM    9  C   UNL     1      38.088 -11.801  -0.857  1.00  0.00     0.026 A 
HETATM   10  C   UNL     1      38.883 -12.913  -1.122  1.00  0.00     0.035 A 
HETATM   11 CL   UNL     1      38.910 -13.579  -2.709  1.00  0.00    -0.084 Cl
HETATM   12  C   UNL     1      39.657 -13.491  -0.114  1.00  0.00     0.038 A 
HETATM   13  H   UNL     1      38.226 -10.494   2.917  1.00  0.00     0.169 HD
ENDROOT
BRANCH   2  14
HETATM   14  N   UNL     1      41.220 -13.431   4.616  1.00  0.00    -0.375 N 
HETATM   15  C   UNL     1      40.547 -13.799   5.876  1.00  0.00     0.137 C 
HETATM   16  C   UNL     1      41.435 -14.687   6.756  1.00  0.00     0.096 C 
HETATM   17  C   UNL     1      42.776 -13.974   7.008  1.00  0.00     0.017 C 
HETATM   18  C   UNL     1      43.434 -13.537   5.699  1.00  0.00     0.021 C 
HETATM   19  C   UNL     1      42.484 -12.699   4.853  1.00  0.00     0.123 C 
BRANCH  16  20
HETATM   20  C   UNL     1      41.646 -16.125   6.245  1.00  0.00     0.229 C 
HETATM   21  N   UNL     1      42.926 -16.611   6.454  1.00  0.00    -0.311 N 
HETATM   22  H   UNL     1      43.565 -16.066   7.007  1.00  0.00     0.170 HD
HETATM   23  O   UNL     1      40.762 -16.699   5.614  1.00  0.00    -0.273 OA
BRANCH  21  24
HETATM   24  C   UNL     1      43.410 -17.846   5.995  1.00  0.00     0.129 A 
HETATM   25  N   UNL     1      43.157 -18.983   6.663  1.00  0.00    -0.243 NA
HETATM   26  C   UNL     1      43.643 -20.140   6.167  1.00  0.00     0.119 A 
HETATM   27  C   UNL     1      44.394 -20.222   5.010  1.00  0.00     0.019 A 
HETATM   28  C   UNL     1      44.654 -19.044   4.322  1.00  0.00     0.005 A 
HETATM   29  C   UNL     1      44.152 -17.841   4.816  1.00  0.00     0.050 A 
ENDBRANCH  21  24
ENDBRANCH  16  20
ENDBRANCH   2  14
BRANCH   1  30
HETATM   30  C   UNL     1      41.376 -14.696   2.080  1.00  0.00    -0.023 A 
HETATM   31  C   UNL     1      42.706 -14.506   1.684  1.00  0.00     0.012 A 
HETATM   32  C   UNL     1      43.546 -15.603   1.494  1.00  0.00     0.001 A 
HETATM   33  C   UNL     1      43.069 -16.894   1.714  1.00  0.00     0.000 A 
HETATM   34  C   UNL     1      41.751 -17.092   2.122  1.00  0.00     0.001 A 
HETATM   35  C   UNL     1      40.905 -15.996   2.304  1.00  0.00     0.012 A 
ENDBRANCH   1  30
TORSDOF 4
ENDMDL
MODEL 2
REMARK VINA RESULT:      -9.5      2.452      7.021
REMARK  4 active torsions:
REMARK  status: ('A' for Active; 'I' for Inactive)
REMARK    1  A    between atoms: C_4  and  C_5 
REMARK    2  A    between atoms: C_6  and  N_7 
REMARK    3  A    between atoms: C_9  and  C_10 
REMARK       I    between atoms: C_10  and  N_11 
REMARK    4  A    between atoms: N_11  and  C_12 
ROOT
HETATM    1  C   UNL     1      42.524 -16.381   4.364  1.00  0.00     0.019 A 
HETATM    2  C   UNL     1      42.411 -15.696   5.533  1.00  0.00     0.111 A 
HETATM    3  C   UNL     1      42.884 -16.357   6.825  1.00  0.00     0.273 A 
HETATM    4  O   UNL     1      42.816 -15.797   7.919  1.00  0.00    -0.266 OA
HETATM    5  N   UNL     1      43.393 -17.619   6.747  1.00  0.00    -0.321 N 
HETATM    6  C   UNL     1      43.513 -18.336   5.562  1.00  0.00     0.046 A 
HETATM    7  C   UNL     1      43.103 -17.752   4.359  1.00  0.00     0.006 A 
HETATM    8  C   UNL     1      44.045 -19.628   5.602  1.00  0.00     0.032 A 
HETATM    9  C   UNL     1      44.176 -20.357   4.421  1.00  0.00     0.026 A 
HETATM   10  C   UNL     1      43.779 -19.787   3.214  1.00  0.00     0.035 A 
HETATM   11 CL   UNL     1      43.944 -20.685   1.755  1.00  0.00    -0.084 Cl
HETATM   12  C   UNL     1      43.250 -18.495   3.177  1.00  0.00     0.038 A 
HETATM   13  H   UNL     1      43.683 -18.023   7.627  1.00  0.00     0.169 HD
ENDROOT
BRANCH   2  14
HETATM   14  N   UNL     1      41.828 -14.405   5.641  1.00  0.00    -0.375 N 
HETATM   15  C   UNL     1      42.654 -13.290   6.140  1.00  0.00     0.137 C 
HETATM   16  C   UNL     1      42.063 -11.928   5.756  1.00  0.00     0.096 C 
HETATM   17  C   UNL     1      40.613 -11.841   6.264  1.00  0.00     0.017 C 
HETATM   18  C   UNL     1      39.782 -13.036   5.797  1.00  0.00     0.021 C 
HETATM   19  C   UNL     1      40.447 -14.356   6.169  1.00  0.00     0.123 C 
BRANCH  16  20
HETATM   20  C   UNL     1      42.161 -11.562   4.263  1.00  0.00     0.229 C 
HETATM   21  N   UNL     1      40.948 -11.223   3.688  1.00  0.00    -0.311 N 
HETATM   22  H   UNL     1      40.143 -11.124   4.283  1.00  0.00     0.170 HD
HETATM   23  O   UNL     1      43.223 -11.689   3.657  1.00  0.00    -0.273 OA
BRANCH  21  24
HETATM   24  C   UNL     1      40.743 -10.950   2.327  1.00  0.00     0.129 A 
HETATM   25  N   UNL     1      41.658 -10.282   1.606  1.00  0.00    -0.243 NA
HETATM   26  C   UNL     1      41.406 -10.058   0.300  1.00  0.00     0.119 A 
HETATM   27  C   UNL     1      40.254 -10.470  -0.340  1.00  0.00     0.019 A 
HETATM   28  C   UNL     1      39.309 -11.159   0.408  1.00  0.00     0.005 A 
HETATM   29  C   UNL     1      39.557 -11.408   1.757  1.00  0.00     0.050 A 
ENDBRANCH  21  24
ENDBRANCH  16  20
ENDBRANCH   2  14
BRANCH   1  30
HETATM   30  C   UNL     1      42.049 -15.707   3.128  1.00  0.00    -0.023 A 
HETATM   31  C   UNL     1      42.896 -14.844   2.422  1.00  0.00     0.012 A 
HETATM   32  C   UNL     1      42.448 -14.210   1.264  1.00  0.00     0.001 A 
HETATM   33  C   UNL     1      41.156 -14.445   0.795  1.00  0.00     0.000 A 
HETATM   34  C   UNL     1      40.310 -15.313   1.483  1.00  0.00     0.001 A 
HETATM   35  C   UNL     1      40.754 -15.942   2.648  1.00  0.00     0.012 A 
ENDBRANCH   1  30
TORSDOF 4
ENDMDL
MODEL 3
REMARK VINA RESULT:      -9.0      2.553      7.196
REMARK  4 active torsions:
REMARK  status: ('A' for Active; 'I' for Inactive)
REMARK    1  A    between atoms: C_4  and  C_5 
REMARK    2  A    between atoms: C_6  and  N_7 
REMARK    3  A    between atoms: C_9  and  C_10 
REMARK       I    between atoms: C_10  and  N_11 
REMARK    4  A    between atoms: N_11  and  C_12 
ROOT
HETATM    1  C   UNL     1      42.345 -15.773   3.719  1.00  0.00     0.019 A 
HETATM    2  C   UNL     1      42.364 -14.916   4.774  1.00  0.00     0.111 A 
HETATM    3  C   UNL     1      43.070 -15.342   6.059  1.00  0.00     0.273 A 
HETATM    4  O   UNL     1      43.130 -14.619   7.053  1.00  0.00    -0.266 OA
HETATM    5  N   UNL     1      43.647 -16.577   6.091  1.00  0.00    -0.321 N 
HETATM    6  C   UNL     1      43.636 -17.468   5.023  1.00  0.00     0.046 A 
HETATM    7  C   UNL     1      43.010 -17.100   3.828  1.00  0.00     0.006 A 
HETATM    8  C   UNL     1      44.254 -18.711   5.171  1.00  0.00     0.032 A 
HETATM    9  C   UNL     1      44.255 -19.613   4.108  1.00  0.00     0.026 A 
HETATM   10  C   UNL     1      43.643 -19.260   2.908  1.00  0.00     0.035 A 
HETATM   11 CL   UNL     1      43.647 -20.371   1.594  1.00  0.00    -0.084 Cl
HETATM   12  C   UNL     1      43.028 -18.015   2.762  1.00  0.00     0.038 A 
HETATM   13  H   UNL     1      44.094 -16.822   6.964  1.00  0.00     0.169 HD
ENDROOT
BRANCH   2  14
HETATM   14  N   UNL     1      41.716 -13.652   4.779  1.00  0.00    -0.375 N 
HETATM   15  C   UNL     1      42.487 -12.459   5.176  1.00  0.00     0.137 C 
HETATM   16  C   UNL     1      41.827 -11.165   4.684  1.00  0.00     0.096 C 
HETATM   17  C   UNL     1      40.376 -11.109   5.196  1.00  0.00     0.017 C 
HETATM   18  C   UNL     1      39.605 -12.379   4.838  1.00  0.00     0.021 C 
HETATM   19  C   UNL     1      40.337 -13.628   5.314  1.00  0.00     0.123 C 
BRANCH  16  20
HETATM   20  C   UNL     1      41.899 -10.922   3.165  1.00  0.00     0.229 C 
HETATM   21  N   UNL     1      40.706 -10.494   2.609  1.00  0.00    -0.311 N 
HETATM   22  H   UNL     1      39.942 -10.264   3.221  1.00  0.00     0.170 HD
HETATM   23  O   UNL     1      42.914 -11.208   2.534  1.00  0.00    -0.273 OA
BRANCH  21  24
HETATM   24  C   UNL     1      40.472 -10.300   1.238  1.00  0.00     0.129 A 
HETATM   25  N   UNL     1      39.498 -10.967   0.597  1.00  0.00    -0.243 NA
HETATM   26  C   UNL     1      39.318 -10.731  -0.719  1.00  0.00     0.119 A 
HETATM   27  C   UNL     1      40.085  -9.844  -1.450  1.00  0.00     0.019 A 
HETATM   28  C   UNL     1      41.092  -9.158  -0.785  1.00  0.00     0.005 A 
HETATM   29  C   UNL     1      41.286  -9.383   0.577  1.00  0.00     0.050 A 
ENDBRANCH  21  24
ENDBRANCH  16  20
ENDBRANCH   2  14
BRANCH   1  30
HETATM   30  C   UNL     1      41.644 -15.326   2.488  1.00  0.00    -0.023 A 
HETATM   31  C   UNL     1      40.419 -15.898   2.123  1.00  0.00     0.012 A 
HETATM   32  C   UNL     1      39.765 -15.479   0.966  1.00  0.00     0.001 A 
HETATM   33  C   UNL     1      40.320 -14.475   0.174  1.00  0.00     0.000 A 
HETATM   34  C   UNL     1      41.532 -13.889   0.536  1.00  0.00     0.001 A 
HETATM   35  C   UNL     1      42.194 -14.314   1.690  1.00  0.00     0.012 A 
ENDBRANCH   1  30
TORSDOF 4
ENDMDL
MODEL 4
REMARK VINA RESULT:      -8.6      3.308      5.329
REMARK  4 active torsions:
REMARK  status: ('A' for Active; 'I' for Inactive)
REMARK    1  A    between atoms: C_4  and  C_5 
REMARK    2  A    between atoms: C_6  and  N_7 
REMARK    3  A    between atoms: C_9  and  C_10 
REMARK       I    between atoms: C_10  and  N_11 
REMARK    4  A    between atoms: N_11  and  C_12 
ROOT
HETATM    1  C   UNL     1      41.704 -12.127   4.935  1.00  0.00     0.019 A 
HETATM    2  C   UNL     1      41.489 -12.190   3.594  1.00  0.00     0.111 A 
HETATM    3  C   UNL     1      41.361 -10.891   2.804  1.00  0.00     0.273 A 
HETATM    4  O   UNL     1      41.169 -10.870   1.589  1.00  0.00    -0.266 OA
HETATM    5  N   UNL     1      41.459  -9.715   3.488  1.00  0.00    -0.321 N 
HETATM    6  C   UNL     1      41.675  -9.630   4.859  1.00  0.00     0.046 A 
HETATM    7  C   UNL     1      41.813 -10.804   5.608  1.00  0.00     0.006 A 
HETATM    8  C   UNL     1      41.752  -8.370   5.456  1.00  0.00     0.032 A 
HETATM    9  C   UNL     1      41.973  -8.269   6.829  1.00  0.00     0.026 A 
HETATM   10  C   UNL     1      42.120  -9.427   7.588  1.00  0.00     0.035 A 
HETATM   11 CL   UNL     1      42.396  -9.303   9.282  1.00  0.00    -0.084 Cl
HETATM   12  C   UNL     1      42.044 -10.686   6.988  1.00  0.00     0.038 A 
HETATM   13  H   UNL     1      41.357  -8.880   2.928  1.00  0.00     0.169 HD
ENDROOT
BRANCH   2  14
HETATM   14  N   UNL     1      41.323 -13.405   2.876  1.00  0.00    -0.375 N 
HETATM   15  C   UNL     1      42.198 -13.672   1.718  1.00  0.00     0.137 C 
HETATM   16  C   UNL     1      42.231 -15.163   1.362  1.00  0.00     0.096 C 
HETATM   17  C   UNL     1      40.793 -15.660   1.124  1.00  0.00     0.017 C 
HETATM   18  C   UNL     1      39.880 -15.320   2.301  1.00  0.00     0.021 C 
HETATM   19  C   UNL     1      39.929 -13.833   2.631  1.00  0.00     0.123 C 
BRANCH  16  20
HETATM   20  C   UNL     1      42.983 -16.064   2.359  1.00  0.00     0.229 C 
HETATM   21  N   UNL     1      42.778 -17.418   2.155  1.00  0.00    -0.311 N 
HETATM   22  H   UNL     1      42.276 -17.712   1.335  1.00  0.00     0.170 HD
HETATM   23  O   UNL     1      43.600 -15.573   3.302  1.00  0.00    -0.273 OA
BRANCH  21  24
HETATM   24  C   UNL     1      43.261 -18.446   2.980  1.00  0.00     0.129 A 
HETATM   25  N   UNL     1      43.589 -18.212   4.262  1.00  0.00    -0.243 NA
HETATM   26  C   UNL     1      44.040 -19.242   5.007  1.00  0.00     0.119 A 
HETATM   27  C   UNL     1      44.191 -20.528   4.524  1.00  0.00     0.019 A 
HETATM   28  C   UNL     1      43.852 -20.766   3.199  1.00  0.00     0.005 A 
HETATM   29  C   UNL     1      43.376 -19.714   2.417  1.00  0.00     0.050 A 
ENDBRANCH  21  24
ENDBRANCH  16  20
ENDBRANCH   2  14
BRANCH   1  30
HETATM   30  C   UNL     1      41.818 -13.412   5.670  1.00  0.00    -0.023 A 
HETATM   31  C   UNL     1      40.672 -14.155   5.980  1.00  0.00     0.012 A 
HETATM   32  C   UNL     1      40.782 -15.361   6.673  1.00  0.00     0.001 A 
HETATM   33  C   UNL     1      42.037 -15.839   7.047  1.00  0.00     0.000 A 
HETATM   34  C   UNL     1      43.184 -15.113   6.731  1.00  0.00     0.001 A 
HETATM   35  C   UNL     1      43.076 -13.902   6.045  1.00  0.00     0.012 A 
ENDBRANCH   1  30
TORSDOF 4
ENDMDL
MODEL 5
REMARK VINA RESULT:      -8.4      3.277      6.920
REMARK  4 active torsions:
REMARK  status: ('A' for Active; 'I' for Inactive)
REMARK    1  A    between atoms: C_4  and  C_5 
REMARK    2  A    between atoms: C_6  and  N_7 
REMARK    3  A    between atoms: C_9  and  C_10 
REMARK       I    between atoms: C_10  and  N_11 
REMARK    4  A    between atoms: N_11  and  C_12 
ROOT
HETATM    1  C   UNL     1      42.337 -15.540   3.425  1.00  0.00     0.019 A 
HETATM    2  C   UNL     1      42.406 -14.583   4.388  1.00  0.00     0.111 A 
HETATM    3  C   UNL     1      43.192 -14.875   5.663  1.00  0.00     0.273 A 
HETATM    4  O   UNL     1      43.301 -14.057   6.577  1.00  0.00    -0.266 OA
HETATM    5  N   UNL     1      43.787 -16.096   5.782  1.00  0.00    -0.321 N 
HETATM    6  C   UNL     1      43.725 -17.088   4.809  1.00  0.00     0.046 A 
HETATM    7  C   UNL     1      43.025 -16.845   3.623  1.00  0.00     0.006 A 
HETATM    8  C   UNL     1      44.367 -18.307   5.042  1.00  0.00     0.032 A 
HETATM    9  C   UNL     1      44.318 -19.308   4.074  1.00  0.00     0.026 A 
HETATM   10  C   UNL     1      43.632 -19.081   2.884  1.00  0.00     0.035 A 
HETATM   11 CL   UNL     1      43.573 -20.316   1.687  1.00  0.00    -0.084 Cl
HETATM   12  C   UNL     1      42.992 -17.861   2.654  1.00  0.00     0.038 A 
HETATM   13  H   UNL     1      44.287 -16.251   6.647  1.00  0.00     0.169 HD
ENDROOT
BRANCH   2  14
HETATM   14  N   UNL     1      41.744 -13.330   4.307  1.00  0.00    -0.375 N 
HETATM   15  C   UNL     1      40.284 -13.309   4.095  1.00  0.00     0.137 C 
HETATM   16  C   UNL     1      39.669 -11.964   4.501  1.00  0.00     0.096 C 
HETATM   17  C   UNL     1      40.377 -10.831   3.737  1.00  0.00     0.017 C 
HETATM   18  C   UNL     1      41.894 -10.901   3.909  1.00  0.00     0.021 C 
HETATM   19  C   UNL     1      42.434 -12.276   3.533  1.00  0.00     0.123 C 
BRANCH  16  20
HETATM   20  C   UNL     1      39.629 -11.685   6.016  1.00  0.00     0.229 C 
HETATM   21  N   UNL     1      39.821 -10.355   6.345  1.00  0.00    -0.311 N 
HETATM   22  H   UNL     1      39.850  -9.673   5.606  1.00  0.00     0.170 HD
HETATM   23  O   UNL     1      39.548 -12.612   6.819  1.00  0.00    -0.273 OA
BRANCH  21  24
HETATM   24  C   UNL     1      39.932  -9.849   7.650  1.00  0.00     0.129 A 
HETATM   25  N   UNL     1      38.871  -9.809   8.473  1.00  0.00    -0.243 NA
HETATM   26  C   UNL     1      39.043  -9.320   9.718  1.00  0.00     0.119 A 
HETATM   27  C   UNL     1      40.251  -8.849  10.196  1.00  0.00     0.019 A 
HETATM   28  C   UNL     1      41.346  -8.891   9.342  1.00  0.00     0.005 A 
HETATM   29  C   UNL     1      41.187  -9.402   8.055  1.00  0.00     0.050 A 
ENDBRANCH  21  24
ENDBRANCH  16  20
ENDBRANCH   2  14
BRANCH   1  30
HETATM   30  C   UNL     1      41.559 -15.222   2.200  1.00  0.00    -0.023 A 
HETATM   31  C   UNL     1      42.040 -14.282   1.280  1.00  0.00     0.012 A 
HETATM   32  C   UNL     1      41.307 -13.982   0.133  1.00  0.00     0.001 A 
HETATM   33  C   UNL     1      40.098 -14.630  -0.112  1.00  0.00     0.000 A 
HETATM   34  C   UNL     1      39.618 -15.578   0.790  1.00  0.00     0.001 A 
HETATM   35  C   UNL     1      40.345 -15.873   1.944  1.00  0.00     0.012 A 
ENDBRANCH   1  30
TORSDOF 4
ENDMDL
MODEL 6
REMARK VINA RESULT:      -8.2      2.743      5.500
REMARK  4 active torsions:
REMARK  status: ('A' for Active; 'I' for Inactive)
REMARK    1  A    between atoms: C_4  and  C_5 
REMARK    2  A    between atoms: C_6  and  N_7 
REMARK    3  A    between atoms: C_9  and  C_10 
REMARK       I    between atoms: C_10  and  N_11 
REMARK    4  A    between atoms: N_11  and  C_12 
ROOT
HETATM    1  C   UNL     1      40.663 -13.499   2.717  1.00  0.00     0.019 A 
HETATM    2  C   UNL     1      41.179 -14.675   3.166  1.00  0.00     0.111 A 
HETATM    3  C   UNL     1      41.180 -15.884   2.235  1.00  0.00     0.273 A 
HETATM    4  O   UNL     1      41.631 -16.978   2.570  1.00  0.00    -0.266 OA
HETATM    5  N   UNL     1      40.650 -15.730   0.987  1.00  0.00    -0.321 N 
HETATM    6  C   UNL     1      40.117 -14.537   0.512  1.00  0.00     0.046 A 
HETATM    7  C   UNL     1      40.116 -13.407   1.336  1.00  0.00     0.006 A 
HETATM    8  C   UNL     1      39.594 -14.497  -0.783  1.00  0.00     0.032 A 
HETATM    9  C   UNL     1      39.060 -13.307  -1.275  1.00  0.00     0.026 A 
HETATM   10  C   UNL     1      39.058 -12.171  -0.470  1.00  0.00     0.035 A 
HETATM   11 CL   UNL     1      38.402 -10.700  -1.078  1.00  0.00    -0.084 Cl
HETATM   12  C   UNL     1      39.583 -12.213   0.823  1.00  0.00     0.038 A 
HETATM   13  H   UNL     1      40.661 -16.559   0.409  1.00  0.00     0.169 HD
ENDROOT
BRANCH   2  14
HETATM   14  N   UNL     1      41.678 -14.869   4.481  1.00  0.00    -0.375 N 
HETATM   15  C   UNL     1      43.136 -14.975   4.681  1.00  0.00     0.137 C 
HETATM   16  C   UNL     1      43.532 -14.703   6.138  1.00  0.00     0.096 C 
HETATM   17  C   UNL     1      42.754 -15.658   7.062  1.00  0.00     0.017 C 
HETATM   18  C   UNL     1      41.249 -15.589   6.801  1.00  0.00     0.021 C 
HETATM   19  C   UNL     1      40.929 -15.822   5.329  1.00  0.00     0.123 C 
BRANCH  16  20
HETATM   20  C   UNL     1      43.399 -13.239   6.597  1.00  0.00     0.229 C 
HETATM   21  N   UNL     1      44.612 -12.609   6.818  1.00  0.00    -0.311 N 
HETATM   22  H   UNL     1      45.458 -13.087   6.559  1.00  0.00     0.170 HD
HETATM   23  O   UNL     1      42.294 -12.759   6.842  1.00  0.00    -0.273 OA
BRANCH  21  24
HETATM   24  C   UNL     1      44.772 -11.315   7.337  1.00  0.00     0.129 A 
HETATM   25  N   UNL     1      43.714 -10.592   7.741  1.00  0.00    -0.243 NA
HETATM   26  C   UNL     1      43.933  -9.357   8.238  1.00  0.00     0.119 A 
HETATM   27  C   UNL     1      45.187  -8.788   8.350  1.00  0.00     0.019 A 
HETATM   28  C   UNL     1      46.278  -9.537   7.930  1.00  0.00     0.005 A 
HETATM   29  C   UNL     1      46.070 -10.819   7.422  1.00  0.00     0.050 A 
ENDBRANCH  21  24
ENDBRANCH  16  20
ENDBRANCH   2  14
BRANCH   1  30
HETATM   30  C   UNL     1      40.676 -12.346   3.654  1.00  0.00    -0.023 A 
HETATM   31  C   UNL     1      39.617 -12.151   4.550  1.00  0.00     0.012 A 
HETATM   32  C   UNL     1      39.630 -11.066   5.426  1.00  0.00     0.001 A 
HETATM   33  C   UNL     1      40.704 -10.179   5.424  1.00  0.00     0.000 A 
HETATM   34  C   UNL     1      41.769 -10.373   4.545  1.00  0.00     0.001 A 
HETATM   35  C   UNL     1      41.755 -11.453   3.661  1.00  0.00     0.012 A 
ENDBRANCH   1  30
TORSDOF 4
ENDMDL
MODEL 7
REMARK VINA RESULT:      -8.1      4.326      7.533
REMARK  4 active torsions:
REMARK  status: ('A' for Active; 'I' for Inactive)
REMARK    1  A    between atoms: C_4  and  C_5 
REMARK    2  A    between atoms: C_6  and  N_7 
REMARK    3  A    between atoms: C_9  and  C_10 
REMARK       I    between atoms: C_10  and  N_11 
REMARK    4  A    between atoms: N_11  and  C_12 
ROOT
HETATM    1  C   UNL     1      42.159 -12.984   5.047  1.00  0.00     0.019 A 
HETATM    2  C   UNL     1      41.083 -12.218   4.726  1.00  0.00     0.111 A 
HETATM    3  C   UNL     1      39.935 -12.848   3.942  1.00  0.00     0.273 A 
HETATM    4  O   UNL     1      38.929 -12.218   3.618  1.00  0.00    -0.266 OA
HETATM    5  N   UNL     1      40.047 -14.161   3.590  1.00  0.00    -0.321 N 
HETATM    6  C   UNL     1      41.140 -14.960   3.907  1.00  0.00     0.046 A 
HETATM    7  C   UNL     1      42.201 -14.415   4.638  1.00  0.00     0.006 A 
HETATM    8  C   UNL     1      41.151 -16.292   3.488  1.00  0.00     0.032 A 
HETATM    9  C   UNL     1      42.238 -17.106   3.803  1.00  0.00     0.026 A 
HETATM   10  C   UNL     1      43.299 -16.581   4.536  1.00  0.00     0.035 A 
HETATM   11 CL   UNL     1      44.640 -17.586   4.928  1.00  0.00    -0.084 Cl
HETATM   12  C   UNL     1      43.285 -15.250   4.955  1.00  0.00     0.038 A 
HETATM   13  H   UNL     1      39.269 -14.535   3.063  1.00  0.00     0.169 HD
ENDROOT
BRANCH   2  14
HETATM   14  N   UNL     1      40.977 -10.835   5.031  1.00  0.00    -0.375 N 
HETATM   15  C   UNL     1      39.926 -10.391   5.966  1.00  0.00     0.137 C 
HETATM   16  C   UNL     1      40.232  -9.006   6.551  1.00  0.00     0.096 C 
HETATM   17  C   UNL     1      40.438  -8.004   5.400  1.00  0.00     0.017 C 
HETATM   18  C   UNL     1      41.481  -8.504   4.401  1.00  0.00     0.021 C 
HETATM   19  C   UNL     1      41.142  -9.902   3.895  1.00  0.00     0.123 C 
BRANCH  16  20
HETATM   20  C   UNL     1      41.395  -8.956   7.559  1.00  0.00     0.229 C 
HETATM   21  N   UNL     1      40.988  -8.897   8.881  1.00  0.00    -0.311 N 
HETATM   22  H   UNL     1      40.011  -9.009   9.091  1.00  0.00     0.170 HD
HETATM   23  O   UNL     1      42.556  -8.862   7.168  1.00  0.00    -0.273 OA
BRANCH  21  24
HETATM   24  C   UNL     1      41.839  -8.741   9.986  1.00  0.00     0.129 A 
HETATM   25  N   UNL     1      41.993  -7.547  10.581  1.00  0.00    -0.243 NA
HETATM   26  C   UNL     1      42.820  -7.462  11.645  1.00  0.00     0.119 A 
HETATM   27  C   UNL     1      43.525  -8.536  12.154  1.00  0.00     0.019 A 
HETATM   28  C   UNL     1      43.364  -9.768  11.535  1.00  0.00     0.005 A 
HETATM   29  C   UNL     1      42.507  -9.875  10.441  1.00  0.00     0.050 A 
ENDBRANCH  21  24
ENDBRANCH  16  20
ENDBRANCH   2  14
BRANCH   1  30
HETATM   30  C   UNL     1      43.258 -12.334   5.806  1.00  0.00    -0.023 A 
HETATM   31  C   UNL     1      43.254 -12.344   7.206  1.00  0.00     0.012 A 
HETATM   32  C   UNL     1      44.285 -11.731   7.917  1.00  0.00     0.001 A 
HETATM   33  C   UNL     1      45.335 -11.118   7.234  1.00  0.00     0.000 A 
HETATM   34  C   UNL     1      45.356 -11.116   5.840  1.00  0.00     0.001 A 
HETATM   35  C   UNL     1      44.320 -11.722   5.127  1.00  0.00     0.012 A 
ENDBRANCH   1  30
TORSDOF 4
ENDMDL
MODEL 8
REMARK VINA RESULT:      -8.1      2.978      7.451
REMARK  4 active torsions:
REMARK  status: ('A' for Active; 'I' for Inactive)
REMARK    1  A    between atoms: C_4  and  C_5 
REMARK    2  A    between atoms: C_6  and  N_7 
REMARK    3  A    between atoms: C_9  and  C_10 
REMARK       I    between atoms: C_10  and  N_11 
REMARK    4  A    between atoms: N_11  and  C_12 
ROOT
HETATM    1  C   UNL     1      42.160 -14.011   4.247  1.00  0.00     0.019 A 
HETATM    2  C   UNL     1      41.962 -12.775   4.777  1.00  0.00     0.111 A 
HETATM    3  C   UNL     1      42.632 -12.423   6.101  1.00  0.00     0.273 A 
HETATM    4  O   UNL     1      42.501 -11.324   6.639  1.00  0.00    -0.266 OA
HETATM    5  N   UNL     1      43.400 -13.377   6.702  1.00  0.00    -0.321 N 
HETATM    6  C   UNL     1      43.612 -14.647   6.178  1.00  0.00     0.046 A 
HETATM    7  C   UNL     1      43.023 -14.994   4.957  1.00  0.00     0.006 A 
HETATM    8  C   UNL     1      44.412 -15.547   6.885  1.00  0.00     0.032 A 
HETATM    9  C   UNL     1      44.638 -16.822   6.369  1.00  0.00     0.026 A 
HETATM   10  C   UNL     1      44.066 -17.182   5.152  1.00  0.00     0.035 A 
HETATM   11 CL   UNL     1      44.347 -18.755   4.512  1.00  0.00    -0.084 Cl
HETATM   12  C   UNL     1      43.268 -16.279   4.446  1.00  0.00     0.038 A 
HETATM   13  H   UNL     1      43.815 -13.105   7.583  1.00  0.00     0.169 HD
ENDROOT
BRANCH   2  14
HETATM   14  N   UNL     1      41.118 -11.792   4.195  1.00  0.00    -0.375 N 
HETATM   15  C   UNL     1      41.669 -10.450   3.926  1.00  0.00     0.137 C 
HETATM   16  C   UNL     1      40.826  -9.685   2.897  1.00  0.00     0.096 C 
HETATM   17  C   UNL     1      39.367  -9.620   3.384  1.00  0.00     0.017 C 
HETATM   18  C   UNL     1      38.827 -11.009   3.724  1.00  0.00     0.021 C 
HETATM   19  C   UNL     1      39.734 -11.731   4.713  1.00  0.00     0.123 C 
BRANCH  16  20
HETATM   20  C   UNL     1      40.917 -10.205   1.450  1.00  0.00     0.229 C 
HETATM   21  N   UNL     1      39.694 -10.284   0.806  1.00  0.00    -0.311 N 
HETATM   22  H   UNL     1      38.883  -9.900   1.261  1.00  0.00     0.170 HD
HETATM   23  O   UNL     1      41.986 -10.608   0.998  1.00  0.00    -0.273 OA
BRANCH  21  24
HETATM   24  C   UNL     1      39.484 -10.818  -0.475  1.00  0.00     0.129 A 
HETATM   25  N   UNL     1      40.089 -10.294  -1.554  1.00  0.00    -0.243 NA
HETATM   26  C   UNL     1      39.853 -10.857  -2.757  1.00  0.00     0.119 A 
HETATM   27  C   UNL     1      39.018 -11.942  -2.945  1.00  0.00     0.019 A 
HETATM   28  C   UNL     1      38.394 -12.480  -1.828  1.00  0.00     0.005 A 
HETATM   29  C   UNL     1      38.633 -11.916  -0.575  1.00  0.00     0.050 A 
ENDBRANCH  21  24
ENDBRANCH  16  20
ENDBRANCH   2  14
BRANCH   1  30
HETATM   30  C   UNL     1      41.487 -14.319   2.959  1.00  0.00    -0.023 A 
HETATM   31  C   UNL     1      40.316 -15.087   2.938  1.00  0.00     0.012 A 
HETATM   32  C   UNL     1      39.688 -15.377   1.727  1.00  0.00     0.001 A 
HETATM   33  C   UNL     1      40.215 -14.890   0.533  1.00  0.00     0.000 A 
HETATM   34  C   UNL     1      41.372 -14.112   0.545  1.00  0.00     0.001 A 
HETATM   35  C   UNL     1      42.008 -13.828   1.754  1.00  0.00     0.012 A 
ENDBRANCH   1  30
TORSDOF 4
ENDMDL
MODEL 9
REMARK VINA RESULT:      -7.8      9.310     12.396
REMARK  4 active torsions:
REMARK  status: ('A' for Active; 'I' for Inactive)
REMARK    1  A    between atoms: C_4  and  C_5 
REMARK    2  A    between atoms: C_6  and  N_7 
REMARK    3  A    between atoms: C_9  and  C_10 
REMARK       I    between atoms: C_10  and  N_11 
REMARK    4  A    between atoms: N_11  and  C_12 
ROOT
HETATM    1  C   UNL     1      40.458  -7.253  13.172  1.00  0.00     0.019 A 
HETATM    2  C   UNL     1      39.688  -6.682  12.208  1.00  0.00     0.111 A 
HETATM    3  C   UNL     1      38.561  -5.741  12.624  1.00  0.00     0.273 A 
HETATM    4  O   UNL     1      37.825  -5.187  11.808  1.00  0.00    -0.266 OA
HETATM    5  N   UNL     1      38.371  -5.522  13.957  1.00  0.00    -0.321 N 
HETATM    6  C   UNL     1      39.146  -6.099  14.957  1.00  0.00     0.046 A 
HETATM    7  C   UNL     1      40.197  -6.953  14.606  1.00  0.00     0.006 A 
HETATM    8  C   UNL     1      38.857  -5.808  16.292  1.00  0.00     0.032 A 
HETATM    9  C   UNL     1      39.628  -6.375  17.305  1.00  0.00     0.026 A 
HETATM   10  C   UNL     1      40.682  -7.222  16.973  1.00  0.00     0.035 A 
HETATM   11 CL   UNL     1      41.637  -7.920  18.223  1.00  0.00    -0.084 Cl
HETATM   12  C   UNL     1      40.971  -7.510  15.637  1.00  0.00     0.038 A 
HETATM   13  H   UNL     1      37.607  -4.901  14.188  1.00  0.00     0.169 HD
ENDROOT
BRANCH   2  14
HETATM   14  N   UNL     1      39.832  -6.947  10.820  1.00  0.00    -0.375 N 
HETATM   15  C   UNL     1      40.095  -5.820   9.904  1.00  0.00     0.137 C 
HETATM   16  C   UNL     1      40.686  -6.296   8.571  1.00  0.00     0.096 C 
HETATM   17  C   UNL     1      39.746  -7.341   7.943  1.00  0.00     0.017 C 
HETATM   18  C   UNL     1      39.426  -8.470   8.923  1.00  0.00     0.021 C 
HETATM   19  C   UNL     1      38.887  -7.926  10.241  1.00  0.00     0.123 C 
BRANCH  16  20
HETATM   20  C   UNL     1      42.137  -6.809   8.637  1.00  0.00     0.229 C 
HETATM   21  N   UNL     1      42.301  -8.091   8.141  1.00  0.00    -0.311 N 
HETATM   22  H   UNL     1      41.524  -8.533   7.681  1.00  0.00     0.170 HD
HETATM   23  O   UNL     1      43.009  -6.146   9.196  1.00  0.00    -0.273 OA
BRANCH  21  24
HETATM   24  C   UNL     1      43.494  -8.829   8.177  1.00  0.00     0.129 A 
HETATM   25  N   UNL     1      44.684  -8.221   8.313  1.00  0.00    -0.243 NA
HETATM   26  C   UNL     1      45.795  -8.985   8.349  1.00  0.00     0.119 A 
HETATM   27  C   UNL     1      45.780 -10.363   8.248  1.00  0.00     0.019 A 
HETATM   28  C   UNL     1      44.549 -10.989   8.107  1.00  0.00     0.005 A 
HETATM   29  C   UNL     1      43.390 -10.214   8.076  1.00  0.00     0.050 A 
ENDBRANCH  21  24
ENDBRANCH  16  20
ENDBRANCH   2  14
BRANCH   1  30
HETATM   30  C   UNL     1      41.542  -8.167  12.728  1.00  0.00    -0.023 A 
HETATM   31  C   UNL     1      42.770  -7.651  12.295  1.00  0.00     0.012 A 
HETATM   32  C   UNL     1      43.785  -8.510  11.877  1.00  0.00     0.001 A 
HETATM   33  C   UNL     1      43.587  -9.890  11.902  1.00  0.00     0.000 A 
HETATM   34  C   UNL     1      42.373 -10.413  12.345  1.00  0.00     0.001 A 
HETATM   35  C   UNL     1      41.352  -9.555  12.756  1.00  0.00     0.012 A 
ENDBRANCH   1  30
TORSDOF 4
ENDMDL
MODEL 10
REMARK VINA RESULT:      -7.7      9.158     11.466
REMARK  4 active torsions:
REMARK  status: ('A' for Active; 'I' for Inactive)
REMARK    1  A    between atoms: C_4  and  C_5 
REMARK    2  A    between atoms: C_6  and  N_7 
REMARK    3  A    between atoms: C_9  and  C_10 
REMARK       I    between atoms: C_10  and  N_11 
REMARK    4  A    between atoms: N_11  and  C_12 
ROOT
HETATM    1  C   UNL     1      39.123  -5.646  11.255  1.00  0.00     0.019 A 
HETATM    2  C   UNL     1      39.152  -6.353  12.416  1.00  0.00     0.111 A 
HETATM    3  C   UNL     1      38.047  -6.129  13.444  1.00  0.00     0.273 A 
HETATM    4  O   UNL     1      38.006  -6.733  14.516  1.00  0.00    -0.266 OA
HETATM    5  N   UNL     1      37.078  -5.215  13.152  1.00  0.00    -0.321 N 
HETATM    6  C   UNL     1      37.033  -4.481  11.972  1.00  0.00     0.046 A 
HETATM    7  C   UNL     1      38.023  -4.675  11.003  1.00  0.00     0.006 A 
HETATM    8  C   UNL     1      35.996  -3.565  11.782  1.00  0.00     0.032 A 
HETATM    9  C   UNL     1      35.935  -2.826  10.603  1.00  0.00     0.026 A 
HETATM   10  C   UNL     1      36.908  -3.012   9.625  1.00  0.00     0.035 A 
HETATM   11 CL   UNL     1      36.832  -2.102   8.166  1.00  0.00    -0.084 Cl
HETATM   12  C   UNL     1      37.943  -3.929   9.816  1.00  0.00     0.038 A 
HETATM   13  H   UNL     1      36.373  -5.090  13.866  1.00  0.00     0.169 HD
ENDROOT
BRANCH   2  14
HETATM   14  N   UNL     1      40.186  -7.263  12.762  1.00  0.00    -0.375 N 
HETATM   15  C   UNL     1      39.849  -8.689  12.937  1.00  0.00     0.137 C 
HETATM   16  C   UNL     1      41.091  -9.583  12.832  1.00  0.00     0.096 C 
HETATM   17  C   UNL     1      42.144  -9.112  13.851  1.00  0.00     0.017 C 
HETATM   18  C   UNL     1      42.437  -7.618  13.705  1.00  0.00     0.021 C 
HETATM   19  C   UNL     1      41.158  -6.792  13.772  1.00  0.00     0.123 C 
BRANCH  16  20
HETATM   20  C   UNL     1      41.691  -9.718  11.420  1.00  0.00     0.229 C 
HETATM   21  N   UNL     1      43.068  -9.857  11.408  1.00  0.00    -0.311 N 
HETATM   22  H   UNL     1      43.549  -9.978  12.282  1.00  0.00     0.170 HD
HETATM   23  O   UNL     1      40.981  -9.590  10.425  1.00  0.00    -0.273 OA
BRANCH  21  24
HETATM   24  C   UNL     1      43.870  -9.895  10.256  1.00  0.00     0.129 A 
HETATM   25  N   UNL     1      43.983 -11.016   9.524  1.00  0.00    -0.243 NA
HETATM   26  C   UNL     1      44.763 -10.987   8.424  1.00  0.00     0.119 A 
HETATM   27  C   UNL     1      45.460  -9.869   8.008  1.00  0.00     0.019 A 
HETATM   28  C   UNL     1      45.342  -8.712   8.767  1.00  0.00     0.005 A 
HETATM   29  C   UNL     1      44.533  -8.722   9.903  1.00  0.00     0.050 A 
ENDBRANCH  21  24
ENDBRANCH  16  20
ENDBRANCH   2  14
BRANCH   1  30
HETATM   30  C   UNL     1      40.218  -5.888  10.280  1.00  0.00    -0.023 A 
HETATM   31  C   UNL     1      39.991  -6.670   9.141  1.00  0.00     0.012 A 
HETATM   32  C   UNL     1      41.021  -6.898   8.229  1.00  0.00     0.001 A 
HETATM   33  C   UNL     1      42.278  -6.334   8.439  1.00  0.00     0.000 A 
HETATM   34  C   UNL     1      42.509  -5.541   9.562  1.00  0.00     0.001 A 
HETATM   35  C   UNL     1      41.482  -5.319  10.482  1.00  0.00     0.012 A 
ENDBRANCH   1  30
TORSDOF 4
ENDMDL
