MODEL 1
REMARK VINA RESULT:      -8.1      0.000      0.000
REMARK  8 active torsions:
REMARK  status: ('A' for Active; 'I' for Inactive)
REMARK    1  A    between atoms: C_3  and  N_4 
REMARK       I    between atoms: N_4  and  C_5 
REMARK       I    between atoms: C_5  and  N_6 
REMARK       I    between atoms: N_6  and  C_7 
REMARK    2  A    between atoms: C_7  and  C_8 
REMARK    3  A    between atoms: C_8  and  N_9 
REMARK    4  A    between atoms: N_9  and  C_11 
REMARK    5  A    between atoms: N_9  and  C_17 
REMARK    6  A    between atoms: C_11  and  C_12 
REMARK    7  A    between atoms: C_17  and  C_18 
REMARK    8  A    between atoms: C_19  and  O_20 
ROOT
HETATM    1  N   UNL     1      41.111 -12.558   4.923  1.00  0.00    -0.053 N 
HETATM    2  H   UNL     1      42.089 -12.838   5.100  1.00  0.00     0.281 HD
ENDROOT
BRANCH   1   3
HETATM    3  C   UNL     1      41.030 -11.095   5.326  1.00  0.00     0.338 C 
BRANCH   3   4
HETATM    4  C   UNL     1      41.757 -10.814   6.639  1.00  0.00     0.251 C 
HETATM    5  N   UNL     1      42.827 -11.642   6.895  1.00  0.00    -0.278 N 
HETATM    6  C   UNL     1      43.806 -11.420   7.823  1.00  0.00     0.323 C 
HETATM    7  H   UNL     1      43.231 -12.147   6.113  1.00  0.00     0.173 HD
HETATM    8  N   UNL     1      43.425 -10.777   8.960  1.00  0.00    -0.338 N 
HETATM    9  O   UNL     1      44.948 -11.792   7.574  1.00  0.00    -0.247 OA
HETATM   10  H   UNL     1      42.492 -10.378   8.979  1.00  0.00     0.164 HD
HETATM   11  O   UNL     1      41.370  -9.898   7.365  1.00  0.00    -0.271 OA
BRANCH   8  12
HETATM   12  C   UNL     1      44.362 -10.427  10.024  1.00  0.00     0.089 C 
HETATM   13  C   UNL     1      44.669  -8.911  10.057  1.00  0.00     0.004 C 
HETATM   14  C   UNL     1      45.197  -8.384   8.720  1.00  0.00     0.012 C 
HETATM   15  C   UNL     1      43.454  -8.093  10.525  1.00  0.00     0.006 C 
HETATM   16  C   UNL     1      42.937  -8.579  11.876  1.00  0.00     0.001 C 
HETATM   17  C   UNL     1      42.637 -10.074  11.867  1.00  0.00     0.002 C 
HETATM   18  C   UNL     1      43.842 -10.888  11.398  1.00  0.00     0.026 C 
ENDBRANCH   8  12
ENDBRANCH   3   4
ENDBRANCH   1   3
BRANCH   1  19
HETATM   19  C   UNL     1      40.317 -13.504   5.792  1.00  0.00     0.300 C 
BRANCH  19  20
HETATM   20  C   UNL     1      41.072 -14.691   6.267  1.00  0.00     0.078 A 
HETATM   21  O   UNL     1      42.202 -14.434   6.990  1.00  0.00    -0.325 OA
HETATM   22  C   UNL     1      42.776 -15.631   7.273  1.00  0.00     0.142 A 
HETATM   23  C   UNL     1      42.011 -16.657   6.772  1.00  0.00     0.027 A 
HETATM   24  C   UNL     1      40.906 -16.051   6.121  1.00  0.00     0.036 A 
ENDBRANCH  19  20
ENDBRANCH   1  19
BRANCH   1  25
HETATM   25  C   UNL     1      40.896 -12.769   3.449  1.00  0.00     0.277 C 
BRANCH  25  26
HETATM   26  C   UNL     1      41.423 -14.105   3.001  1.00  0.00     0.001 A 
HETATM   27  C   UNL     1      40.542 -15.084   2.524  1.00  0.00     0.073 A 
HETATM   28  C   UNL     1      40.995 -16.339   2.130  1.00  0.00     0.037 A 
HETATM   29  C   UNL     1      42.355 -16.635   2.225  1.00  0.00     0.003 A 
HETATM   30  C   UNL     1      43.247 -15.677   2.707  1.00  0.00     0.001 A 
HETATM   31  C   UNL     1      42.787 -14.416   3.091  1.00  0.00     0.011 A 
BRANCH  27  32
HETATM   32  O   UNL     1      39.208 -14.785   2.482  1.00  0.00    -0.360 OA
HETATM   33  H   UNL     1      38.863 -15.067   1.611  1.00  0.00     0.217 HD
ENDBRANCH  27  32
ENDBRANCH  25  26
ENDBRANCH   1  25
TORSDOF 8
ENDMDL
MODEL 2
REMARK VINA RESULT:      -8.0      1.913      3.647
REMARK  8 active torsions:
REMARK  status: ('A' for Active; 'I' for Inactive)
REMARK    1  A    between atoms: C_3  and  N_4 
REMARK       I    between atoms: N_4  and  C_5 
REMARK       I    between atoms: C_5  and  N_6 
REMARK       I    between atoms: N_6  and  C_7 
REMARK    2  A    between atoms: C_7  and  C_8 
REMARK    3  A    between atoms: C_8  and  N_9 
REMARK    4  A    between atoms: N_9  and  C_11 
REMARK    5  A    between atoms: N_9  and  C_17 
REMARK    6  A    between atoms: C_11  and  C_12 
REMARK    7  A    between atoms: C_17  and  C_18 
REMARK    8  A    between atoms: C_19  and  O_20 
ROOT
HETATM    1  N   UNL     1      41.898 -13.647   3.555  1.00  0.00    -0.053 N 
HETATM    2  H   UNL     1      42.046 -13.976   4.522  1.00  0.00     0.281 HD
ENDROOT
BRANCH   1   3
HETATM    3  C   UNL     1      41.932 -12.130   3.634  1.00  0.00     0.338 C 
BRANCH   3   4
HETATM    4  C   UNL     1      42.509 -11.631   4.957  1.00  0.00     0.251 C 
HETATM    5  N   UNL     1      42.542 -12.573   5.963  1.00  0.00    -0.278 N 
HETATM    6  C   UNL     1      43.267 -12.481   7.119  1.00  0.00     0.323 C 
HETATM    7  H   UNL     1      42.478 -13.550   5.698  1.00  0.00     0.173 HD
HETATM    8  N   UNL     1      43.424 -11.233   7.636  1.00  0.00    -0.338 N 
HETATM    9  O   UNL     1      43.735 -13.507   7.603  1.00  0.00    -0.247 OA
HETATM   10  H   UNL     1      43.129 -10.450   7.061  1.00  0.00     0.164 HD
HETATM   11  O   UNL     1      42.903 -10.469   5.050  1.00  0.00    -0.271 OA
BRANCH   8  12
HETATM   12  C   UNL     1      44.208 -10.966   8.839  1.00  0.00     0.089 C 
HETATM   13  C   UNL     1      45.450 -10.091   8.545  1.00  0.00     0.004 C 
HETATM   14  C   UNL     1      46.357 -10.692   7.468  1.00  0.00     0.012 C 
HETATM   15  C   UNL     1      45.059  -8.648   8.185  1.00  0.00     0.006 C 
HETATM   16  C   UNL     1      44.185  -8.017   9.266  1.00  0.00     0.001 C 
HETATM   17  C   UNL     1      42.959  -8.869   9.578  1.00  0.00     0.002 C 
HETATM   18  C   UNL     1      43.346 -10.305   9.930  1.00  0.00     0.026 C 
ENDBRANCH   8  12
ENDBRANCH   3   4
ENDBRANCH   1   3
BRANCH   1  19
HETATM   19  C   UNL     1      40.558 -14.238   3.188  1.00  0.00     0.300 C 
BRANCH  19  20
HETATM   20  C   UNL     1      40.255 -14.230   1.735  1.00  0.00     0.078 A 
HETATM   21  O   UNL     1      40.026 -13.005   1.176  1.00  0.00    -0.325 OA
HETATM   22  C   UNL     1      39.707 -13.214  -0.127  1.00  0.00     0.142 A 
HETATM   23  C   UNL     1      39.762 -14.556  -0.423  1.00  0.00     0.027 A 
HETATM   24  C   UNL     1      40.118 -15.216   0.781  1.00  0.00     0.036 A 
ENDBRANCH  19  20
ENDBRANCH   1  19
BRANCH   1  25
HETATM   25  C   UNL     1      43.045 -14.215   2.761  1.00  0.00     0.277 C 
BRANCH  25  26
HETATM   26  C   UNL     1      43.203 -15.691   3.001  1.00  0.00     0.001 A 
HETATM   27  C   UNL     1      43.406 -16.173   4.301  1.00  0.00     0.073 A 
HETATM   28  C   UNL     1      43.585 -17.530   4.552  1.00  0.00     0.037 A 
HETATM   29  C   UNL     1      43.576 -18.428   3.486  1.00  0.00     0.003 A 
HETATM   30  C   UNL     1      43.385 -17.968   2.184  1.00  0.00     0.001 A 
HETATM   31  C   UNL     1      43.195 -16.606   1.939  1.00  0.00     0.011 A 
BRANCH  27  32
HETATM   32  O   UNL     1      43.456 -15.267   5.324  1.00  0.00    -0.360 OA
HETATM   33  H   UNL     1      44.228 -14.685   5.175  1.00  0.00     0.217 HD
ENDBRANCH  27  32
ENDBRANCH  25  26
ENDBRANCH   1  25
TORSDOF 8
ENDMDL
MODEL 3
REMARK VINA RESULT:      -7.8      3.619      8.154
REMARK  8 active torsions:
REMARK  status: ('A' for Active; 'I' for Inactive)
REMARK    1  A    between atoms: C_3  and  N_4 
REMARK       I    between atoms: N_4  and  C_5 
REMARK       I    between atoms: C_5  and  N_6 
REMARK       I    between atoms: N_6  and  C_7 
REMARK    2  A    between atoms: C_7  and  C_8 
REMARK    3  A    between atoms: C_8  and  N_9 
REMARK    4  A    between atoms: N_9  and  C_11 
REMARK    5  A    between atoms: N_9  and  C_17 
REMARK    6  A    between atoms: C_11  and  C_12 
REMARK    7  A    between atoms: C_17  and  C_18 
REMARK    8  A    between atoms: C_19  and  O_20 
ROOT
HETATM    1  N   UNL     1      42.788 -14.356   3.805  1.00  0.00    -0.053 N 
HETATM    2  H   UNL     1      43.643 -14.690   4.277  1.00  0.00     0.281 HD
ENDROOT
BRANCH   1   3
HETATM    3  C   UNL     1      43.231 -13.940   2.411  1.00  0.00     0.338 C 
BRANCH   3   4
HETATM    4  C   UNL     1      42.069 -13.430   1.562  1.00  0.00     0.251 C 
HETATM    5  N   UNL     1      41.542 -14.357   0.690  1.00  0.00    -0.278 N 
HETATM    6  C   UNL     1      40.336 -14.257   0.051  1.00  0.00     0.323 C 
HETATM    7  H   UNL     1      41.734 -15.337   0.869  1.00  0.00     0.173 HD
HETATM    8  N   UNL     1      39.939 -13.004  -0.295  1.00  0.00    -0.338 N 
HETATM    9  O   UNL     1      39.693 -15.282  -0.154  1.00  0.00    -0.247 OA
HETATM   10  H   UNL     1      40.478 -12.226   0.071  1.00  0.00     0.164 HD
HETATM   11  O   UNL     1      41.677 -12.272   1.700  1.00  0.00    -0.271 OA
BRANCH   8  12
HETATM   12  C   UNL     1      38.658 -12.729  -0.941  1.00  0.00     0.089 C 
HETATM   13  C   UNL     1      38.018 -11.414  -0.435  1.00  0.00     0.004 C 
HETATM   14  C   UNL     1      37.838 -11.389   1.085  1.00  0.00     0.012 C 
HETATM   15  C   UNL     1      38.800 -10.179  -0.912  1.00  0.00     0.006 C 
HETATM   16  C   UNL     1      38.957 -10.166  -2.430  1.00  0.00     0.001 C 
HETATM   17  C   UNL     1      39.577 -11.458  -2.950  1.00  0.00     0.002 C 
HETATM   18  C   UNL     1      38.804 -12.686  -2.473  1.00  0.00     0.026 C 
ENDBRANCH   8  12
ENDBRANCH   3   4
ENDBRANCH   1   3
BRANCH   1  19
HETATM   19  C   UNL     1      42.323 -13.225   4.690  1.00  0.00     0.300 C 
BRANCH  19  20
HETATM   20  C   UNL     1      43.382 -12.626   5.540  1.00  0.00     0.078 A 
HETATM   21  O   UNL     1      44.132 -11.642   4.959  1.00  0.00    -0.325 OA
HETATM   22  C   UNL     1      45.075 -11.273   5.864  1.00  0.00     0.142 A 
HETATM   23  C   UNL     1      44.919 -11.981   7.031  1.00  0.00     0.027 A 
HETATM   24  C   UNL     1      43.822 -12.856   6.825  1.00  0.00     0.036 A 
ENDBRANCH  19  20
ENDBRANCH   1  19
BRANCH   1  25
HETATM   25  C   UNL     1      41.853 -15.535   3.792  1.00  0.00     0.277 C 
BRANCH  25  26
HETATM   26  C   UNL     1      42.595 -16.824   3.565  1.00  0.00     0.001 A 
HETATM   27  C   UNL     1      43.585 -17.232   4.468  1.00  0.00     0.073 A 
HETATM   28  C   UNL     1      44.309 -18.404   4.271  1.00  0.00     0.037 A 
HETATM   29  C   UNL     1      44.054 -19.181   3.143  1.00  0.00     0.003 A 
HETATM   30  C   UNL     1      43.080 -18.787   2.226  1.00  0.00     0.001 A 
HETATM   31  C   UNL     1      42.349 -17.616   2.435  1.00  0.00     0.011 A 
BRANCH  27  32
HETATM   32  O   UNL     1      43.847 -16.429   5.544  1.00  0.00    -0.360 OA
HETATM   33  H   UNL     1      43.650 -15.506   5.287  1.00  0.00     0.217 HD
ENDBRANCH  27  32
ENDBRANCH  25  26
ENDBRANCH   1  25
TORSDOF 8
ENDMDL
MODEL 4
REMARK VINA RESULT:      -7.7      3.606      8.414
REMARK  8 active torsions:
REMARK  status: ('A' for Active; 'I' for Inactive)
REMARK    1  A    between atoms: C_3  and  N_4 
REMARK       I    between atoms: N_4  and  C_5 
REMARK       I    between atoms: C_5  and  N_6 
REMARK       I    between atoms: N_6  and  C_7 
REMARK    2  A    between atoms: C_7  and  C_8 
REMARK    3  A    between atoms: C_8  and  N_9 
REMARK    4  A    between atoms: N_9  and  C_11 
REMARK    5  A    between atoms: N_9  and  C_17 
REMARK    6  A    between atoms: C_11  and  C_12 
REMARK    7  A    between atoms: C_17  and  C_18 
REMARK    8  A    between atoms: C_19  and  O_20 
ROOT
HETATM    1  N   UNL     1      41.630 -14.012   4.015  1.00  0.00    -0.053 N 
HETATM    2  H   UNL     1      41.432 -13.029   3.771  1.00  0.00     0.281 HD
ENDROOT
BRANCH   1   3
HETATM    3  C   UNL     1      40.476 -14.813   3.434  1.00  0.00     0.338 C 
BRANCH   3   4
HETATM    4  C   UNL     1      40.032 -14.285   2.072  1.00  0.00     0.251 C 
HETATM    5  N   UNL     1      39.309 -13.114   2.115  1.00  0.00    -0.278 N 
HETATM    6  C   UNL     1      39.058 -12.289   1.053  1.00  0.00     0.323 C 
HETATM    7  H   UNL     1      39.375 -12.548   2.955  1.00  0.00     0.173 HD
HETATM    8  N   UNL     1      38.906 -12.893  -0.156  1.00  0.00    -0.338 N 
HETATM    9  O   UNL     1      39.001 -11.079   1.248  1.00  0.00    -0.247 OA
HETATM   10  H   UNL     1      39.135 -13.879  -0.217  1.00  0.00     0.164 HD
HETATM   11  O   UNL     1      40.336 -14.902   1.051  1.00  0.00    -0.271 OA
BRANCH   8  12
HETATM   12  C   UNL     1      38.679 -12.147  -1.391  1.00  0.00     0.089 C 
HETATM   13  C   UNL     1      39.867 -12.268  -2.375  1.00  0.00     0.004 C 
HETATM   14  C   UNL     1      41.197 -11.833  -1.754  1.00  0.00     0.012 C 
HETATM   15  C   UNL     1      39.978 -13.684  -2.963  1.00  0.00     0.006 C 
HETATM   16  C   UNL     1      38.672 -14.122  -3.622  1.00  0.00     0.001 C 
HETATM   17  C   UNL     1      37.486 -14.000  -2.672  1.00  0.00     0.002 C 
HETATM   18  C   UNL     1      37.378 -12.595  -2.082  1.00  0.00     0.026 C 
ENDBRANCH   8  12
ENDBRANCH   3   4
ENDBRANCH   1   3
BRANCH   1  19
HETATM   19  C   UNL     1      41.696 -13.989   5.523  1.00  0.00     0.300 C 
BRANCH  19  20
HETATM   20  C   UNL     1      42.751 -13.110   6.084  1.00  0.00     0.078 A 
HETATM   21  O   UNL     1      42.600 -11.771   5.860  1.00  0.00    -0.325 OA
HETATM   22  C   UNL     1      43.685 -11.151   6.389  1.00  0.00     0.142 A 
HETATM   23  C   UNL     1      44.517 -12.071   6.982  1.00  0.00     0.027 A 
HETATM   24  C   UNL     1      43.914 -13.339   6.788  1.00  0.00     0.036 A 
ENDBRANCH  19  20
ENDBRANCH   1  19
BRANCH   1  25
HETATM   25  C   UNL     1      42.948 -14.328   3.359  1.00  0.00     0.277 C 
BRANCH  25  26
HETATM   26  C   UNL     1      43.234 -15.805   3.384  1.00  0.00     0.001 A 
HETATM   27  C   UNL     1      43.262 -16.535   2.188  1.00  0.00     0.073 A 
HETATM   28  C   UNL     1      43.495 -17.906   2.180  1.00  0.00     0.037 A 
HETATM   29  C   UNL     1      43.692 -18.572   3.389  1.00  0.00     0.003 A 
HETATM   30  C   UNL     1      43.659 -17.865   4.591  1.00  0.00     0.001 A 
HETATM   31  C   UNL     1      43.434 -16.487   4.592  1.00  0.00     0.011 A 
BRANCH  27  32
HETATM   32  O   UNL     1      43.021 -15.866   1.019  1.00  0.00    -0.360 OA
HETATM   33  H   UNL     1      42.105 -15.524   1.050  1.00  0.00     0.217 HD
ENDBRANCH  27  32
ENDBRANCH  25  26
ENDBRANCH   1  25
TORSDOF 8
ENDMDL
MODEL 5
REMARK VINA RESULT:      -7.6      1.393      3.335
REMARK  8 active torsions:
REMARK  status: ('A' for Active; 'I' for Inactive)
REMARK    1  A    between atoms: C_3  and  N_4 
REMARK       I    between atoms: N_4  and  C_5 
REMARK       I    between atoms: C_5  and  N_6 
REMARK       I    between atoms: N_6  and  C_7 
REMARK    2  A    between atoms: C_7  and  C_8 
REMARK    3  A    between atoms: C_8  and  N_9 
REMARK    4  A    between atoms: N_9  and  C_11 
REMARK    5  A    between atoms: N_9  and  C_17 
REMARK    6  A    between atoms: C_11  and  C_12 
REMARK    7  A    between atoms: C_17  and  C_18 
REMARK    8  A    between atoms: C_19  and  O_20 
ROOT
HETATM    1  N   UNL     1      41.855 -13.419   4.984  1.00  0.00    -0.053 N 
HETATM    2  H   UNL     1      41.900 -13.514   6.011  1.00  0.00     0.281 HD
ENDROOT
BRANCH   1   3
HETATM    3  C   UNL     1      42.041 -11.935   4.707  1.00  0.00     0.338 C 
BRANCH   3   4
HETATM    4  C   UNL     1      42.515 -11.171   5.941  1.00  0.00     0.251 C 
HETATM    5  N   UNL     1      43.810 -11.444   6.326  1.00  0.00    -0.278 N 
HETATM    6  C   UNL     1      44.562 -10.694   7.188  1.00  0.00     0.323 C 
HETATM    7  H   UNL     1      44.427 -11.866   5.640  1.00  0.00     0.173 HD
HETATM    8  N   UNL     1      43.889 -10.080   8.197  1.00  0.00    -0.338 N 
HETATM    9  O   UNL     1      45.770 -10.611   6.994  1.00  0.00    -0.247 OA
HETATM   10  H   UNL     1      42.875 -10.092   8.158  1.00  0.00     0.164 HD
HETATM   11  O   UNL     1      41.753 -10.381   6.498  1.00  0.00    -0.271 OA
BRANCH   8  12
HETATM   12  C   UNL     1      44.543  -9.209   9.171  1.00  0.00     0.089 C 
HETATM   13  C   UNL     1      43.601  -8.095   9.686  1.00  0.00     0.004 C 
HETATM   14  C   UNL     1      43.016  -7.245   8.555  1.00  0.00     0.012 C 
HETATM   15  C   UNL     1      42.483  -8.660  10.577  1.00  0.00     0.006 C 
HETATM   16  C   UNL     1      43.049  -9.480  11.735  1.00  0.00     0.001 C 
HETATM   17  C   UNL     1      43.988 -10.578  11.249  1.00  0.00     0.002 C 
HETATM   18  C   UNL     1      45.097 -10.019  10.358  1.00  0.00     0.026 C 
ENDBRANCH   8  12
ENDBRANCH   3   4
ENDBRANCH   1   3
BRANCH   1  19
HETATM   19  C   UNL     1      40.491 -13.966   4.643  1.00  0.00     0.300 C 
BRANCH  19  20
HETATM   20  C   UNL     1      40.354 -14.470   3.254  1.00  0.00     0.078 A 
HETATM   21  O   UNL     1      40.365 -13.524   2.267  1.00  0.00    -0.325 OA
HETATM   22  C   UNL     1      40.167 -14.172   1.091  1.00  0.00     0.142 A 
HETATM   23  C   UNL     1      40.063 -15.526   1.303  1.00  0.00     0.027 A 
HETATM   24  C   UNL     1      40.186 -15.722   2.702  1.00  0.00     0.036 A 
ENDBRANCH  19  20
ENDBRANCH   1  19
BRANCH   1  25
HETATM   25  C   UNL     1      42.990 -14.256   4.455  1.00  0.00     0.277 C 
BRANCH  25  26
HETATM   26  C   UNL     1      43.153 -15.524   5.248  1.00  0.00     0.001 A 
HETATM   27  C   UNL     1      43.310 -15.467   6.639  1.00  0.00     0.073 A 
HETATM   28  C   UNL     1      43.492 -16.619   7.397  1.00  0.00     0.037 A 
HETATM   29  C   UNL     1      43.535 -17.857   6.757  1.00  0.00     0.003 A 
HETATM   30  C   UNL     1      43.390 -17.935   5.372  1.00  0.00     0.001 A 
HETATM   31  C   UNL     1      43.197 -16.775   4.618  1.00  0.00     0.011 A 
BRANCH  27  32
HETATM   32  O   UNL     1      43.310 -14.237   7.238  1.00  0.00    -0.360 OA
HETATM   33  H   UNL     1      43.354 -14.372   8.206  1.00  0.00     0.217 HD
ENDBRANCH  27  32
ENDBRANCH  25  26
ENDBRANCH   1  25
TORSDOF 8
ENDMDL
MODEL 6
REMARK VINA RESULT:      -7.4      1.761      2.124
REMARK  8 active torsions:
REMARK  status: ('A' for Active; 'I' for Inactive)
REMARK    1  A    between atoms: C_3  and  N_4 
REMARK       I    between atoms: N_4  and  C_5 
REMARK       I    between atoms: C_5  and  N_6 
REMARK       I    between atoms: N_6  and  C_7 
REMARK    2  A    between atoms: C_7  and  C_8 
REMARK    3  A    between atoms: C_8  and  N_9 
REMARK    4  A    between atoms: N_9  and  C_11 
REMARK    5  A    between atoms: N_9  and  C_17 
REMARK    6  A    between atoms: C_11  and  C_12 
REMARK    7  A    between atoms: C_17  and  C_18 
REMARK    8  A    between atoms: C_19  and  O_20 
ROOT
HETATM    1  N   UNL     1      42.809 -13.295   4.524  1.00  0.00    -0.053 N 
HETATM    2  H   UNL     1      43.145 -13.919   3.773  1.00  0.00     0.281 HD
ENDROOT
BRANCH   1   3
HETATM    3  C   UNL     1      43.648 -12.033   4.406  1.00  0.00     0.338 C 
BRANCH   3   4
HETATM    4  C   UNL     1      43.759 -11.285   5.732  1.00  0.00     0.251 C 
HETATM    5  N   UNL     1      44.947 -11.477   6.404  1.00  0.00    -0.278 N 
HETATM    6  C   UNL     1      45.415 -10.708   7.434  1.00  0.00     0.323 C 
HETATM    7  H   UNL     1      45.739 -11.824   5.874  1.00  0.00     0.173 HD
HETATM    8  N   UNL     1      44.479 -10.186   8.271  1.00  0.00    -0.338 N 
HETATM    9  O   UNL     1      46.624 -10.528   7.531  1.00  0.00    -0.247 OA
HETATM   10  H   UNL     1      43.506 -10.272   7.994  1.00  0.00     0.164 HD
HETATM   11  O   UNL     1      42.827 -10.577   6.112  1.00  0.00    -0.271 OA
BRANCH   8  12
HETATM   12  C   UNL     1      44.816  -9.309   9.390  1.00  0.00     0.089 C 
HETATM   13  C   UNL     1      43.686  -8.300   9.703  1.00  0.00     0.004 C 
HETATM   14  C   UNL     1      43.296  -7.451   8.490  1.00  0.00     0.012 C 
HETATM   15  C   UNL     1      42.452  -8.993  10.302  1.00  0.00     0.006 C 
HETATM   16  C   UNL     1      42.813  -9.815  11.537  1.00  0.00     0.001 C 
HETATM   17  C   UNL     1      43.933 -10.810  11.252  1.00  0.00     0.002 C 
HETATM   18  C   UNL     1      45.158 -10.122  10.651  1.00  0.00     0.026 C 
ENDBRANCH   8  12
ENDBRANCH   3   4
ENDBRANCH   1   3
BRANCH   1  19
HETATM   19  C   UNL     1      43.044 -14.103   5.777  1.00  0.00     0.300 C 
BRANCH  19  20
HETATM   20  C   UNL     1      43.280 -15.550   5.548  1.00  0.00     0.078 A 
HETATM   21  O   UNL     1      43.331 -16.335   6.665  1.00  0.00    -0.325 OA
HETATM   22  C   UNL     1      43.614 -17.597   6.255  1.00  0.00     0.142 A 
HETATM   23  C   UNL     1      43.711 -17.642   4.884  1.00  0.00     0.027 A 
HETATM   24  C   UNL     1      43.493 -16.319   4.424  1.00  0.00     0.036 A 
ENDBRANCH  19  20
ENDBRANCH   1  19
BRANCH   1  25
HETATM   25  C   UNL     1      41.353 -13.058   4.224  1.00  0.00     0.277 C 
BRANCH  25  26
HETATM   26  C   UNL     1      40.930 -13.757   2.962  1.00  0.00     0.001 A 
HETATM   27  C   UNL     1      40.277 -14.995   3.030  1.00  0.00     0.073 A 
HETATM   28  C   UNL     1      39.899 -15.681   1.880  1.00  0.00     0.037 A 
HETATM   29  C   UNL     1      40.188 -15.131   0.632  1.00  0.00     0.003 A 
HETATM   30  C   UNL     1      40.846 -13.904   0.542  1.00  0.00     0.001 A 
HETATM   31  C   UNL     1      41.213 -13.216   1.700  1.00  0.00     0.011 A 
BRANCH  27  32
HETATM   32  O   UNL     1      40.045 -15.534   4.266  1.00  0.00    -0.360 OA
HETATM   33  H   UNL     1      39.126 -15.868   4.281  1.00  0.00     0.217 HD
ENDBRANCH  27  32
ENDBRANCH  25  26
ENDBRANCH   1  25
TORSDOF 8
ENDMDL
MODEL 7
REMARK VINA RESULT:      -7.4      3.675      8.325
REMARK  8 active torsions:
REMARK  status: ('A' for Active; 'I' for Inactive)
REMARK    1  A    between atoms: C_3  and  N_4 
REMARK       I    between atoms: N_4  and  C_5 
REMARK       I    between atoms: C_5  and  N_6 
REMARK       I    between atoms: N_6  and  C_7 
REMARK    2  A    between atoms: C_7  and  C_8 
REMARK    3  A    between atoms: C_8  and  N_9 
REMARK    4  A    between atoms: N_9  and  C_11 
REMARK    5  A    between atoms: N_9  and  C_17 
REMARK    6  A    between atoms: C_11  and  C_12 
REMARK    7  A    between atoms: C_17  and  C_18 
REMARK    8  A    between atoms: C_19  and  O_20 
ROOT
HETATM    1  N   UNL     1      41.662 -14.276   3.984  1.00  0.00    -0.053 N 
HETATM    2  H   UNL     1      41.935 -14.509   3.016  1.00  0.00     0.281 HD
ENDROOT
BRANCH   1   3
HETATM    3  C   UNL     1      40.374 -13.477   3.859  1.00  0.00     0.338 C 
BRANCH   3   4
HETATM    4  C   UNL     1      40.040 -13.140   2.408  1.00  0.00     0.251 C 
HETATM    5  N   UNL     1      40.337 -14.134   1.502  1.00  0.00    -0.278 N 
HETATM    6  C   UNL     1      39.872 -14.210   0.217  1.00  0.00     0.323 C 
HETATM    7  H   UNL     1      40.460 -15.076   1.857  1.00  0.00     0.173 HD
HETATM    8  N   UNL     1      39.682 -13.027  -0.426  1.00  0.00    -0.338 N 
HETATM    9  O   UNL     1      39.646 -15.316  -0.262  1.00  0.00    -0.247 OA
HETATM   10  H   UNL     1      39.750 -12.179   0.128  1.00  0.00     0.164 HD
HETATM   11  O   UNL     1      39.539 -12.049   2.136  1.00  0.00    -0.271 OA
BRANCH   8  12
HETATM   12  C   UNL     1      39.149 -12.939  -1.783  1.00  0.00     0.089 C 
HETATM   13  C   UNL     1      38.523 -11.555  -2.077  1.00  0.00     0.004 C 
HETATM   14  C   UNL     1      37.430 -11.173  -1.074  1.00  0.00     0.012 C 
HETATM   15  C   UNL     1      39.591 -10.453  -2.164  1.00  0.00     0.006 C 
HETATM   16  C   UNL     1      40.670 -10.798  -3.188  1.00  0.00     0.001 C 
HETATM   17  C   UNL     1      41.293 -12.163  -2.922  1.00  0.00     0.002 C 
HETATM   18  C   UNL     1      40.232 -13.259  -2.829  1.00  0.00     0.026 C 
ENDBRANCH   8  12
ENDBRANCH   3   4
ENDBRANCH   1   3
BRANCH   1  19
HETATM   19  C   UNL     1      42.847 -13.498   4.503  1.00  0.00     0.300 C 
BRANCH  19  20
HETATM   20  C   UNL     1      42.579 -12.063   4.769  1.00  0.00     0.078 A 
HETATM   21  O   UNL     1      42.236 -11.745   6.053  1.00  0.00    -0.325 OA
HETATM   22  C   UNL     1      41.972 -10.414   6.078  1.00  0.00     0.142 A 
HETATM   23  C   UNL     1      42.175  -9.864   4.834  1.00  0.00     0.027 A 
HETATM   24  C   UNL     1      42.569 -10.929   3.986  1.00  0.00     0.036 A 
ENDBRANCH  19  20
ENDBRANCH   1  19
BRANCH   1  25
HETATM   25  C   UNL     1      41.462 -15.600   4.672  1.00  0.00     0.277 C 
BRANCH  25  26
HETATM   26  C   UNL     1      42.407 -16.643   4.143  1.00  0.00     0.001 A 
HETATM   27  C   UNL     1      42.210 -17.186   2.866  1.00  0.00     0.073 A 
HETATM   28  C   UNL     1      43.049 -18.174   2.360  1.00  0.00     0.037 A 
HETATM   29  C   UNL     1      44.102 -18.643   3.144  1.00  0.00     0.003 A 
HETATM   30  C   UNL     1      44.309 -18.123   4.422  1.00  0.00     0.001 A 
HETATM   31  C   UNL     1      43.469 -17.124   4.920  1.00  0.00     0.011 A 
BRANCH  27  32
HETATM   32  O   UNL     1      41.144 -16.741   2.134  1.00  0.00    -0.360 OA
HETATM   33  H   UNL     1      40.800 -15.932   2.564  1.00  0.00     0.217 HD
ENDBRANCH  27  32
ENDBRANCH  25  26
ENDBRANCH   1  25
TORSDOF 8
ENDMDL
MODEL 8
REMARK VINA RESULT:      -7.3     17.749     20.691
REMARK  8 active torsions:
REMARK  status: ('A' for Active; 'I' for Inactive)
REMARK    1  A    between atoms: C_3  and  N_4 
REMARK       I    between atoms: N_4  and  C_5 
REMARK       I    between atoms: C_5  and  N_6 
REMARK       I    between atoms: N_6  and  C_7 
REMARK    2  A    between atoms: C_7  and  C_8 
REMARK    3  A    between atoms: C_8  and  N_9 
REMARK    4  A    between atoms: N_9  and  C_11 
REMARK    5  A    between atoms: N_9  and  C_17 
REMARK    6  A    between atoms: C_11  and  C_12 
REMARK    7  A    between atoms: C_17  and  C_18 
REMARK    8  A    between atoms: C_19  and  O_20 
ROOT
HETATM    1  N   UNL     1      44.920 -29.886   0.486  1.00  0.00    -0.053 N 
HETATM    2  H   UNL     1      45.735 -29.300   0.245  1.00  0.00     0.281 HD
ENDROOT
BRANCH   1   3
HETATM    3  C   UNL     1      45.344 -31.314   0.182  1.00  0.00     0.338 C 
BRANCH   3   4
HETATM    4  C   UNL     1      46.835 -31.423  -0.125  1.00  0.00     0.251 C 
HETATM    5  N   UNL     1      47.414 -30.264  -0.592  1.00  0.00    -0.278 N 
HETATM    6  C   UNL     1      48.757 -30.009  -0.653  1.00  0.00     0.323 C 
HETATM    7  H   UNL     1      46.927 -29.391  -0.423  1.00  0.00     0.173 HD
HETATM    8  N   UNL     1      49.562 -31.075  -0.909  1.00  0.00    -0.338 N 
HETATM    9  O   UNL     1      49.147 -28.862  -0.463  1.00  0.00    -0.247 OA
HETATM   10  H   UNL     1      49.137 -31.996  -0.887  1.00  0.00     0.164 HD
HETATM   11  O   UNL     1      47.418 -32.491   0.060  1.00  0.00    -0.271 OA
BRANCH   8  12
HETATM   12  C   UNL     1      51.018 -30.974  -0.960  1.00  0.00     0.089 C 
HETATM   13  C   UNL     1      51.712 -32.199  -0.317  1.00  0.00     0.004 C 
HETATM   14  C   UNL     1      51.269 -32.440   1.128  1.00  0.00     0.012 C 
HETATM   15  C   UNL     1      51.527 -33.468  -1.164  1.00  0.00     0.006 C 
HETATM   16  C   UNL     1      52.000 -33.259  -2.600  1.00  0.00     0.001 C 
HETATM   17  C   UNL     1      51.335 -32.051  -3.249  1.00  0.00     0.002 C 
HETATM   18  C   UNL     1      51.513 -30.789  -2.406  1.00  0.00     0.026 C 
ENDBRANCH   8  12
ENDBRANCH   3   4
ENDBRANCH   1   3
BRANCH   1  19
HETATM   19  C   UNL     1      43.827 -29.342  -0.401  1.00  0.00     0.300 C 
BRANCH  19  20
HETATM   20  C   UNL     1      44.241 -29.068  -1.799  1.00  0.00     0.078 A 
HETATM   21  O   UNL     1      45.258 -28.169  -1.959  1.00  0.00    -0.325 OA
HETATM   22  C   UNL     1      45.443 -28.010  -3.295  1.00  0.00     0.142 A 
HETATM   23  C   UNL     1      44.583 -28.820  -3.996  1.00  0.00     0.027 A 
HETATM   24  C   UNL     1      43.805 -29.508  -3.030  1.00  0.00     0.036 A 
ENDBRANCH  19  20
ENDBRANCH   1  19
BRANCH   1  25
HETATM   25  C   UNL     1      44.680 -29.649   1.953  1.00  0.00     0.277 C 
BRANCH  25  26
HETATM   26  C   UNL     1      45.972 -29.578   2.719  1.00  0.00     0.001 A 
HETATM   27  C   UNL     1      46.952 -28.644   2.357  1.00  0.00     0.073 A 
HETATM   28  C   UNL     1      48.169 -28.572   3.027  1.00  0.00     0.037 A 
HETATM   29  C   UNL     1      48.427 -29.460   4.071  1.00  0.00     0.003 A 
HETATM   30  C   UNL     1      47.469 -30.404   4.439  1.00  0.00     0.001 A 
HETATM   31  C   UNL     1      46.245 -30.463   3.771  1.00  0.00     0.011 A 
BRANCH  27  32
HETATM   32  O   UNL     1      46.693 -27.814   1.301  1.00  0.00    -0.360 OA
HETATM   33  H   UNL     1      45.986 -28.224   0.762  1.00  0.00     0.217 HD
ENDBRANCH  27  32
ENDBRANCH  25  26
ENDBRANCH   1  25
TORSDOF 8
ENDMDL
MODEL 9
REMARK VINA RESULT:      -7.1      3.528      8.277
REMARK  8 active torsions:
REMARK  status: ('A' for Active; 'I' for Inactive)
REMARK    1  A    between atoms: C_3  and  N_4 
REMARK       I    between atoms: N_4  and  C_5 
REMARK       I    between atoms: C_5  and  N_6 
REMARK       I    between atoms: N_6  and  C_7 
REMARK    2  A    between atoms: C_7  and  C_8 
REMARK    3  A    between atoms: C_8  and  N_9 
REMARK    4  A    between atoms: N_9  and  C_11 
REMARK    5  A    between atoms: N_9  and  C_17 
REMARK    6  A    between atoms: C_11  and  C_12 
REMARK    7  A    between atoms: C_17  and  C_18 
REMARK    8  A    between atoms: C_19  and  O_20 
ROOT
HETATM    1  N   UNL     1      42.308 -14.955   4.340  1.00  0.00    -0.053 N 
HETATM    2  H   UNL     1      41.464 -14.362   4.310  1.00  0.00     0.281 HD
ENDROOT
BRANCH   1   3
HETATM    3  C   UNL     1      43.158 -14.510   3.162  1.00  0.00     0.338 C 
BRANCH   3   4
HETATM    4  C   UNL     1      42.323 -13.879   2.050  1.00  0.00     0.251 C 
HETATM    5  N   UNL     1      41.709 -14.780   1.208  1.00  0.00    -0.278 N 
HETATM    6  C   UNL     1      40.690 -14.497   0.341  1.00  0.00     0.323 C 
HETATM    7  H   UNL     1      41.601 -15.734   1.535  1.00  0.00     0.173 HD
HETATM    8  N   UNL     1      40.702 -13.259  -0.221  1.00  0.00    -0.338 N 
HETATM    9  O   UNL     1      39.835 -15.353   0.138  1.00  0.00    -0.247 OA
HETATM   10  H   UNL     1      41.366 -12.586   0.148  1.00  0.00     0.164 HD
HETATM   11  O   UNL     1      42.240 -12.654   1.972  1.00  0.00    -0.271 OA
BRANCH   8  12
HETATM   12  C   UNL     1      39.658 -12.790  -1.130  1.00  0.00     0.089 C 
HETATM   13  C   UNL     1      39.388 -11.274  -0.978  1.00  0.00     0.004 C 
HETATM   14  C   UNL     1      39.030 -10.877   0.456  1.00  0.00     0.012 C 
HETATM   15  C   UNL     1      40.561 -10.430  -1.501  1.00  0.00     0.006 C 
HETATM   16  C   UNL     1      40.909 -10.786  -2.944  1.00  0.00     0.001 C 
HETATM   17  C   UNL     1      41.170 -12.277  -3.117  1.00  0.00     0.002 C 
HETATM   18  C   UNL     1      40.006 -13.118  -2.593  1.00  0.00     0.026 C 
ENDBRANCH   8  12
ENDBRANCH   3   4
ENDBRANCH   1   3
BRANCH   1  19
HETATM   19  C   UNL     1      41.752 -16.355   4.234  1.00  0.00     0.300 C 
BRANCH  19  20
HETATM   20  C   UNL     1      42.735 -17.381   3.806  1.00  0.00     0.078 A 
HETATM   21  O   UNL     1      43.598 -17.824   4.769  1.00  0.00    -0.325 OA
HETATM   22  C   UNL     1      44.447 -18.700   4.172  1.00  0.00     0.142 A 
HETATM   23  C   UNL     1      44.119 -18.852   2.845  1.00  0.00     0.027 A 
HETATM   24  C   UNL     1      43.011 -18.002   2.607  1.00  0.00     0.036 A 
ENDBRANCH  19  20
ENDBRANCH   1  19
BRANCH   1  25
HETATM   25  C   UNL     1      42.954 -14.663   5.668  1.00  0.00     0.277 C 
BRANCH  25  26
HETATM   26  C   UNL     1      42.956 -13.188   5.966  1.00  0.00     0.001 A 
HETATM   27  C   UNL     1      41.758 -12.463   5.932  1.00  0.00     0.073 A 
HETATM   28  C   UNL     1      41.731 -11.093   6.174  1.00  0.00     0.037 A 
HETATM   29  C   UNL     1      42.925 -10.424   6.442  1.00  0.00     0.003 A 
HETATM   30  C   UNL     1      44.130 -11.126   6.470  1.00  0.00     0.001 A 
HETATM   31  C   UNL     1      44.148 -12.503   6.236  1.00  0.00     0.011 A 
BRANCH  27  32
HETATM   32  O   UNL     1      40.607 -13.135   5.624  1.00  0.00    -0.360 OA
HETATM   33  H   UNL     1      40.254 -12.761   4.791  1.00  0.00     0.217 HD
ENDBRANCH  27  32
ENDBRANCH  25  26
ENDBRANCH   1  25
TORSDOF 8
ENDMDL
MODEL 10
REMARK VINA RESULT:      -7.1      3.567      7.939
REMARK  8 active torsions:
REMARK  status: ('A' for Active; 'I' for Inactive)
REMARK    1  A    between atoms: C_3  and  N_4 
REMARK       I    between atoms: N_4  and  C_5 
REMARK       I    between atoms: C_5  and  N_6 
REMARK       I    between atoms: N_6  and  C_7 
REMARK    2  A    between atoms: C_7  and  C_8 
REMARK    3  A    between atoms: C_8  and  N_9 
REMARK    4  A    between atoms: N_9  and  C_11 
REMARK    5  A    between atoms: N_9  and  C_17 
REMARK    6  A    between atoms: C_11  and  C_12 
REMARK    7  A    between atoms: C_17  and  C_18 
REMARK    8  A    between atoms: C_19  and  O_20 
ROOT
HETATM    1  N   UNL     1      42.188 -14.289   4.114  1.00  0.00    -0.053 N 
HETATM    2  H   UNL     1      42.901 -14.555   4.811  1.00  0.00     0.281 HD
ENDROOT
BRANCH   1   3
HETATM    3  C   UNL     1      42.967 -13.821   2.896  1.00  0.00     0.338 C 
BRANCH   3   4
HETATM    4  C   UNL     1      42.060 -13.219   1.825  1.00  0.00     0.251 C 
HETATM    5  N   UNL     1      41.972 -11.845   1.849  1.00  0.00    -0.278 N 
HETATM    6  C   UNL     1      41.486 -11.057   0.842  1.00  0.00     0.323 C 
HETATM    7  H   UNL     1      42.700 -11.333   2.336  1.00  0.00     0.173 HD
HETATM    8  N   UNL     1      40.472 -11.582   0.102  1.00  0.00    -0.338 N 
HETATM    9  O   UNL     1      41.992  -9.955   0.660  1.00  0.00    -0.247 OA
HETATM   10  H   UNL     1      40.250 -12.562   0.244  1.00  0.00     0.164 HD
HETATM   11  O   UNL     1      41.486 -13.960   1.027  1.00  0.00    -0.271 OA
BRANCH   8  12
HETATM   12  C   UNL     1      39.877 -10.884  -1.035  1.00  0.00     0.089 C 
HETATM   13  C   UNL     1      39.923 -11.730  -2.329  1.00  0.00     0.004 C 
HETATM   14  C   UNL     1      41.340 -12.180  -2.693  1.00  0.00     0.012 C 
HETATM   15  C   UNL     1      38.970 -12.934  -2.258  1.00  0.00     0.006 C 
HETATM   16  C   UNL     1      37.542 -12.500  -1.934  1.00  0.00     0.001 C 
HETATM   17  C   UNL     1      37.476 -11.657  -0.666  1.00  0.00     0.002 C 
HETATM   18  C   UNL     1      38.427 -10.463  -0.734  1.00  0.00     0.026 C 
ENDBRANCH   8  12
ENDBRANCH   3   4
ENDBRANCH   1   3
BRANCH   1  19
HETATM   19  C   UNL     1      41.398 -13.213   4.820  1.00  0.00     0.300 C 
BRANCH  19  20
HETATM   20  C   UNL     1      42.211 -12.293   5.653  1.00  0.00     0.078 A 
HETATM   21  O   UNL     1      43.199 -12.872   6.399  1.00  0.00    -0.325 OA
HETATM   22  C   UNL     1      43.778 -11.886   7.130  1.00  0.00     0.142 A 
HETATM   23  C   UNL     1      43.199 -10.674   6.839  1.00  0.00     0.027 A 
HETATM   24  C   UNL     1      42.185 -10.934   5.882  1.00  0.00     0.036 A 
ENDBRANCH  19  20
ENDBRANCH   1  19
BRANCH   1  25
HETATM   25  C   UNL     1      41.397 -15.543   3.854  1.00  0.00     0.277 C 
BRANCH  25  26
HETATM   26  C   UNL     1      42.299 -16.729   3.648  1.00  0.00     0.001 A 
HETATM   27  C   UNL     1      43.212 -17.099   4.644  1.00  0.00     0.073 A 
HETATM   28  C   UNL     1      44.079 -18.173   4.472  1.00  0.00     0.037 A 
HETATM   29  C   UNL     1      44.051 -18.888   3.276  1.00  0.00     0.003 A 
HETATM   30  C   UNL     1      43.156 -18.530   2.267  1.00  0.00     0.001 A 
HETATM   31  C   UNL     1      42.281 -17.458   2.450  1.00  0.00     0.011 A 
BRANCH  27  32
HETATM   32  O   UNL     1      43.251 -16.354   5.791  1.00  0.00    -0.360 OA
HETATM   33  H   UNL     1      43.368 -15.416   5.537  1.00  0.00     0.217 HD
ENDBRANCH  27  32
ENDBRANCH  25  26
ENDBRANCH   1  25
TORSDOF 8
ENDMDL
