MODEL 1
REMARK VINA RESULT:      -8.6      0.000      0.000
REMARK  8 active torsions:
REMARK  status: ('A' for Active; 'I' for Inactive)
REMARK    1  A    between atoms: C_2  and  C_3 
REMARK    2  A    between atoms: C_3  and  N_4 
REMARK    3  A    between atoms: N_9  and  C_11 
REMARK    4  A    between atoms: C_11  and  C_12 
REMARK    5  A    between atoms: C_14  and  C_15 
REMARK    6  A    between atoms: C_15  and  C_16 
REMARK    7  A    between atoms: C_16  and  C_17 
REMARK    8  A    between atoms: C_17  and  O_18 
ROOT
HETATM    1  N   UNL     1      42.660 -15.480   4.166  1.00  0.00    -0.066 N 
HETATM    2  H   UNL     1      43.395 -15.735   4.835  1.00  0.00     0.280 HD
HETATM    3  C   UNL     1      42.578 -13.976   4.005  1.00  0.00     0.246 C 
HETATM    4  C   UNL     1      42.305 -13.287   5.355  1.00  0.00     0.009 C 
HETATM    5  C   UNL     1      43.544 -13.311   6.262  1.00  0.00     0.246 C 
HETATM    6  N   UNL     1      43.395 -12.122   7.184  1.00  0.00    -0.066 N 
HETATM    7  H   UNL     1      42.978 -12.441   8.070  1.00  0.00     0.280 HD
HETATM    8  C   UNL     1      42.420 -11.159   6.540  1.00  0.00     0.236 C 
HETATM    9  C   UNL     1      42.133 -11.768   5.173  1.00  0.00     0.040 C 
HETATM   10  C   UNL     1      41.054 -13.910   6.016  1.00  0.00     0.014 C 
HETATM   11  C   UNL     1      41.082 -15.441   6.051  1.00  0.00     0.029 C 
HETATM   12  C   UNL     1      41.362 -16.056   4.684  1.00  0.00     0.235 C 
ENDROOT
BRANCH   1  13
HETATM   13  C   UNL     1      43.102 -16.183   2.878  1.00  0.00     0.273 C 
BRANCH  13  14
HETATM   14  C   UNL     1      43.335 -17.657   3.104  1.00  0.00    -0.032 A 
HETATM   15  C   UNL     1      44.011 -18.109   4.252  1.00  0.00     0.012 A 
HETATM   16  C   UNL     1      44.302 -19.465   4.411  1.00  0.00     0.043 A 
HETATM   17  C   UNL     1      43.907 -20.373   3.435  1.00  0.00     0.116 A 
HETATM   18  C   UNL     1      43.215 -19.951   2.308  1.00  0.00     0.043 A 
HETATM   19  F   UNL     1      44.204 -21.668   3.582  1.00  0.00    -0.206 F 
HETATM   20  C   UNL     1      42.926 -18.595   2.140  1.00  0.00     0.012 A 
ENDBRANCH  13  14
ENDBRANCH   1  13
BRANCH   6  21
HETATM   21  C   UNL     1      44.713 -11.473   7.588  1.00  0.00     0.280 C 
BRANCH  21  22
HETATM   22  C   UNL     1      44.513 -10.345   8.548  1.00  0.00     0.009 A 
HETATM   23  S   UNL     1      43.997 -10.668  10.155  1.00  0.00    -0.084 SA
HETATM   24  C   UNL     1      43.954  -9.012  10.555  1.00  0.00     0.058 A 
HETATM   25  C   UNL     1      44.366  -8.222   9.505  1.00  0.00     0.029 A 
HETATM   26  C   UNL     1      44.693  -8.990   8.346  1.00  0.00     0.018 A 
BRANCH  24  27
HETATM   27  C   UNL     1      43.531  -8.529  11.828  1.00  0.00    -0.057 C 
BRANCH  27  28
HETATM   28  C   UNL     1      43.142  -8.117  12.887  1.00  0.00    -0.075 C 
BRANCH  28  29
HETATM   29  C   UNL     1      42.657  -7.651  14.185  1.00  0.00     0.258 C 
BRANCH  29  30
HETATM   30  O   UNL     1      43.525  -6.637  14.668  1.00  0.00    -0.389 OA
HETATM   31  H   UNL     1      42.999  -6.084  15.271  1.00  0.00     0.210 HD
ENDBRANCH  29  30
ENDBRANCH  28  29
ENDBRANCH  27  28
ENDBRANCH  24  27
ENDBRANCH  21  22
ENDBRANCH   6  21
TORSDOF 8
ENDMDL
MODEL 2
REMARK VINA RESULT:      -7.7      5.337      8.164
REMARK  8 active torsions:
REMARK  status: ('A' for Active; 'I' for Inactive)
REMARK    1  A    between atoms: C_2  and  C_3 
REMARK    2  A    between atoms: C_3  and  N_4 
REMARK    3  A    between atoms: N_9  and  C_11 
REMARK    4  A    between atoms: C_11  and  C_12 
REMARK    5  A    between atoms: C_14  and  C_15 
REMARK    6  A    between atoms: C_15  and  C_16 
REMARK    7  A    between atoms: C_16  and  C_17 
REMARK    8  A    between atoms: C_17  and  O_18 
ROOT
HETATM    1  N   UNL     1      42.593 -14.639   5.743  1.00  0.00    -0.066 N 
HETATM    2  H   UNL     1      43.004 -14.600   4.803  1.00  0.00     0.280 HD
HETATM    3  C   UNL     1      41.501 -13.601   5.895  1.00  0.00     0.246 C 
HETATM    4  C   UNL     1      42.040 -12.184   5.629  1.00  0.00     0.009 C 
HETATM    5  C   UNL     1      42.309 -11.953   4.135  1.00  0.00     0.246 C 
HETATM    6  N   UNL     1      42.186 -10.461   3.925  1.00  0.00    -0.066 N 
HETATM    7  H   UNL     1      43.127 -10.043   3.963  1.00  0.00     0.280 HD
HETATM    8  C   UNL     1      41.390  -9.897   5.083  1.00  0.00     0.236 C 
HETATM    9  C   UNL     1      40.950 -11.124   5.874  1.00  0.00     0.040 C 
HETATM   10  C   UNL     1      43.277 -11.919   6.518  1.00  0.00     0.014 C 
HETATM   11  C   UNL     1      44.318 -13.042   6.464  1.00  0.00     0.029 C 
HETATM   12  C   UNL     1      43.714 -14.417   6.731  1.00  0.00     0.235 C 
ENDROOT
BRANCH   1  13
HETATM   13  C   UNL     1      42.056 -16.072   5.829  1.00  0.00     0.273 C 
BRANCH  13  14
HETATM   14  C   UNL     1      42.730 -16.977   4.828  1.00  0.00    -0.032 A 
HETATM   15  C   UNL     1      42.428 -16.882   3.457  1.00  0.00     0.012 A 
HETATM   16  C   UNL     1      42.987 -17.782   2.548  1.00  0.00     0.043 A 
HETATM   17  C   UNL     1      43.858 -18.766   3.000  1.00  0.00     0.116 A 
HETATM   18  C   UNL     1      44.191 -18.859   4.345  1.00  0.00     0.043 A 
HETATM   19  F   UNL     1      44.378 -19.637   2.129  1.00  0.00    -0.206 F 
HETATM   20  C   UNL     1      43.630 -17.966   5.261  1.00  0.00     0.012 A 
ENDBRANCH  13  14
ENDBRANCH   1  13
BRANCH   6  21
HETATM   21  C   UNL     1      41.638 -10.062   2.561  1.00  0.00     0.280 C 
BRANCH  21  22
HETATM   22  C   UNL     1      40.759 -11.120   1.977  1.00  0.00     0.009 A 
HETATM   23  S   UNL     1      41.155 -11.823   0.460  1.00  0.00    -0.084 SA
HETATM   24  C   UNL     1      39.762 -12.805   0.465  1.00  0.00     0.058 A 
HETATM   25  C   UNL     1      39.026 -12.640   1.617  1.00  0.00     0.029 A 
HETATM   26  C   UNL     1      39.602 -11.671   2.494  1.00  0.00     0.018 A 
BRANCH  24  27
HETATM   27  C   UNL     1      39.420 -13.677  -0.609  1.00  0.00    -0.057 C 
BRANCH  27  28
HETATM   28  C   UNL     1      39.137 -14.384  -1.538  1.00  0.00    -0.075 C 
BRANCH  28  29
HETATM   29  C   UNL     1      38.827 -15.236  -2.685  1.00  0.00     0.258 C 
BRANCH  29  30
HETATM   30  O   UNL     1      38.311 -16.473  -2.219  1.00  0.00    -0.389 OA
HETATM   31  H   UNL     1      37.609 -16.260  -1.580  1.00  0.00     0.210 HD
ENDBRANCH  29  30
ENDBRANCH  28  29
ENDBRANCH  27  28
ENDBRANCH  24  27
ENDBRANCH  21  22
ENDBRANCH   6  21
TORSDOF 8
ENDMDL
MODEL 3
REMARK VINA RESULT:      -7.7      5.237     10.806
REMARK  8 active torsions:
REMARK  status: ('A' for Active; 'I' for Inactive)
REMARK    1  A    between atoms: C_2  and  C_3 
REMARK    2  A    between atoms: C_3  and  N_4 
REMARK    3  A    between atoms: N_9  and  C_11 
REMARK    4  A    between atoms: C_11  and  C_12 
REMARK    5  A    between atoms: C_14  and  C_15 
REMARK    6  A    between atoms: C_15  and  C_16 
REMARK    7  A    between atoms: C_16  and  C_17 
REMARK    8  A    between atoms: C_17  and  O_18 
ROOT
HETATM    1  N   UNL     1      42.406  -9.786   8.342  1.00  0.00    -0.066 N 
HETATM    2  H   UNL     1      41.901 -10.601   8.708  1.00  0.00     0.280 HD
HETATM    3  C   UNL     1      42.246  -9.685   6.840  1.00  0.00     0.246 C 
HETATM    4  C   UNL     1      42.753 -10.960   6.140  1.00  0.00     0.009 C 
HETATM    5  C   UNL     1      41.793 -12.140   6.351  1.00  0.00     0.246 C 
HETATM    6  N   UNL     1      42.009 -13.056   5.167  1.00  0.00    -0.066 N 
HETATM    7  H   UNL     1      42.672 -13.796   5.438  1.00  0.00     0.280 HD
HETATM    8  C   UNL     1      42.657 -12.242   4.067  1.00  0.00     0.236 C 
HETATM    9  C   UNL     1      42.673 -10.817   4.609  1.00  0.00     0.040 C 
HETATM   10  C   UNL     1      44.200 -11.264   6.592  1.00  0.00     0.014 C 
HETATM   11  C   UNL     1      44.384 -11.228   8.112  1.00  0.00     0.029 C 
HETATM   12  C   UNL     1      43.856  -9.942   8.738  1.00  0.00     0.235 C 
ENDROOT
BRANCH   1  13
HETATM   13  C   UNL     1      41.754  -8.613   9.081  1.00  0.00     0.273 C 
BRANCH  13  14
HETATM   14  C   UNL     1      41.889  -8.755  10.577  1.00  0.00    -0.032 A 
HETATM   15  C   UNL     1      42.791  -7.949  11.295  1.00  0.00     0.012 A 
HETATM   16  C   UNL     1      42.977  -8.147  12.665  1.00  0.00     0.043 A 
HETATM   17  C   UNL     1      42.254  -9.136  13.321  1.00  0.00     0.116 A 
HETATM   18  C   UNL     1      41.339  -9.924  12.636  1.00  0.00     0.043 A 
HETATM   19  F   UNL     1      42.447  -9.335  14.629  1.00  0.00    -0.206 F 
HETATM   20  C   UNL     1      41.153  -9.735  11.265  1.00  0.00     0.012 A 
ENDBRANCH  13  14
ENDBRANCH   1  13
BRANCH   6  21
HETATM   21  C   UNL     1      40.759 -13.801   4.715  1.00  0.00     0.280 C 
BRANCH  21  22
HETATM   22  C   UNL     1      41.077 -14.898   3.750  1.00  0.00     0.009 A 
HETATM   23  S   UNL     1      41.997 -16.254   4.266  1.00  0.00    -0.084 SA
HETATM   24  C   UNL     1      41.975 -16.955   2.714  1.00  0.00     0.058 A 
HETATM   25  C   UNL     1      41.246 -16.200   1.823  1.00  0.00     0.029 A 
HETATM   26  C   UNL     1      40.722 -15.013   2.420  1.00  0.00     0.018 A 
BRANCH  24  27
HETATM   27  C   UNL     1      42.646 -18.174   2.400  1.00  0.00    -0.057 C 
BRANCH  27  28
HETATM   28  C   UNL     1      43.209 -19.209   2.171  1.00  0.00    -0.075 C 
BRANCH  28  29
HETATM   29  C   UNL     1      43.860 -20.488   1.890  1.00  0.00     0.258 C 
BRANCH  29  30
HETATM   30  O   UNL     1      43.863 -21.277   3.069  1.00  0.00    -0.389 OA
HETATM   31  H   UNL     1      43.625 -22.181   2.801  1.00  0.00     0.210 HD
ENDBRANCH  29  30
ENDBRANCH  28  29
ENDBRANCH  27  28
ENDBRANCH  24  27
ENDBRANCH  21  22
ENDBRANCH   6  21
TORSDOF 8
ENDMDL
MODEL 4
REMARK VINA RESULT:      -7.6      5.172      7.553
REMARK  8 active torsions:
REMARK  status: ('A' for Active; 'I' for Inactive)
REMARK    1  A    between atoms: C_2  and  C_3 
REMARK    2  A    between atoms: C_3  and  N_4 
REMARK    3  A    between atoms: N_9  and  C_11 
REMARK    4  A    between atoms: C_11  and  C_12 
REMARK    5  A    between atoms: C_14  and  C_15 
REMARK    6  A    between atoms: C_15  and  C_16 
REMARK    7  A    between atoms: C_16  and  C_17 
REMARK    8  A    between atoms: C_17  and  O_18 
ROOT
HETATM    1  N   UNL     1      43.365 -16.208   6.016  1.00  0.00    -0.066 N 
HETATM    2  H   UNL     1      43.503 -16.129   5.001  1.00  0.00     0.280 HD
HETATM    3  C   UNL     1      41.929 -15.904   6.388  1.00  0.00     0.246 C 
HETATM    4  C   UNL     1      41.522 -14.493   5.923  1.00  0.00     0.009 C 
HETATM    5  C   UNL     1      41.337 -14.431   4.400  1.00  0.00     0.246 C 
HETATM    6  N   UNL     1      40.363 -13.301   4.155  1.00  0.00    -0.066 N 
HETATM    7  H   UNL     1      40.896 -12.448   3.931  1.00  0.00     0.280 HD
HETATM    8  C   UNL     1      39.616 -13.048   5.447  1.00  0.00     0.236 C 
HETATM    9  C   UNL     1      40.093 -14.152   6.383  1.00  0.00     0.040 C 
HETATM   10  C   UNL     1      42.536 -13.454   6.456  1.00  0.00     0.014 C 
HETATM   11  C   UNL     1      43.996 -13.839   6.196  1.00  0.00     0.029 C 
HETATM   12  C   UNL     1      44.327 -15.248   6.675  1.00  0.00     0.235 C 
ENDROOT
BRANCH   1  13
HETATM   13  C   UNL     1      43.749 -17.663   6.306  1.00  0.00     0.273 C 
BRANCH  13  14
HETATM   14  C   UNL     1      43.714 -18.506   5.055  1.00  0.00    -0.032 A 
HETATM   15  C   UNL     1      43.910 -19.897   5.122  1.00  0.00     0.012 A 
HETATM   16  C   UNL     1      43.965 -20.659   3.953  1.00  0.00     0.043 A 
HETATM   17  C   UNL     1      43.811 -20.038   2.719  1.00  0.00     0.116 A 
HETATM   18  C   UNL     1      43.590 -18.670   2.633  1.00  0.00     0.043 A 
HETATM   19  F   UNL     1      43.883 -20.767   1.600  1.00  0.00    -0.206 F 
HETATM   20  C   UNL     1      43.539 -17.902   3.798  1.00  0.00     0.012 A 
ENDBRANCH  13  14
ENDBRANCH   1  13
BRANCH   6  21
HETATM   21  C   UNL     1      39.447 -13.511   2.956  1.00  0.00     0.280 C 
BRANCH  21  22
HETATM   22  C   UNL     1      40.018 -12.929   1.703  1.00  0.00     0.009 A 
HETATM   23  S   UNL     1      40.602 -11.314   1.696  1.00  0.00    -0.084 SA
HETATM   24  C   UNL     1      40.996 -11.382   0.040  1.00  0.00     0.058 A 
HETATM   25  C   UNL     1      40.732 -12.622  -0.496  1.00  0.00     0.029 A 
HETATM   26  C   UNL     1      40.172 -13.519   0.463  1.00  0.00     0.018 A 
BRANCH  24  27
HETATM   27  C   UNL     1      41.525 -10.271  -0.681  1.00  0.00    -0.057 C 
BRANCH  27  28
HETATM   28  C   UNL     1      41.937  -9.330  -1.303  1.00  0.00    -0.075 C 
BRANCH  28  29
HETATM   29  C   UNL     1      42.428  -8.160  -2.030  1.00  0.00     0.258 C 
BRANCH  29  30
HETATM   30  O   UNL     1      43.676  -7.764  -1.484  1.00  0.00    -0.389 OA
HETATM   31  H   UNL     1      44.173  -7.337  -2.203  1.00  0.00     0.210 HD
ENDBRANCH  29  30
ENDBRANCH  28  29
ENDBRANCH  27  28
ENDBRANCH  24  27
ENDBRANCH  21  22
ENDBRANCH   6  21
TORSDOF 8
ENDMDL
MODEL 5
REMARK VINA RESULT:      -7.5      5.451      7.902
REMARK  8 active torsions:
REMARK  status: ('A' for Active; 'I' for Inactive)
REMARK    1  A    between atoms: C_2  and  C_3 
REMARK    2  A    between atoms: C_3  and  N_4 
REMARK    3  A    between atoms: N_9  and  C_11 
REMARK    4  A    between atoms: C_11  and  C_12 
REMARK    5  A    between atoms: C_14  and  C_15 
REMARK    6  A    between atoms: C_15  and  C_16 
REMARK    7  A    between atoms: C_16  and  C_17 
REMARK    8  A    between atoms: C_17  and  O_18 
ROOT
HETATM    1  N   UNL     1      42.672 -14.960   5.582  1.00  0.00    -0.066 N 
HETATM    2  H   UNL     1      43.068 -14.984   4.635  1.00  0.00     0.280 HD
HETATM    3  C   UNL     1      41.219 -14.533   5.545  1.00  0.00     0.246 C 
HETATM    4  C   UNL     1      41.063 -13.148   4.888  1.00  0.00     0.009 C 
HETATM    5  C   UNL     1      41.276 -13.217   3.368  1.00  0.00     0.246 C 
HETATM    6  N   UNL     1      40.495 -12.056   2.796  1.00  0.00    -0.066 N 
HETATM    7  H   UNL     1      41.137 -11.262   2.657  1.00  0.00     0.280 HD
HETATM    8  C   UNL     1      39.469 -11.638   3.828  1.00  0.00     0.236 C 
HETATM    9  C   UNL     1      39.598 -12.678   4.934  1.00  0.00     0.040 C 
HETATM   10  C   UNL     1      41.993 -12.130   5.588  1.00  0.00     0.014 C 
HETATM   11  C   UNL     1      43.433 -12.628   5.745  1.00  0.00     0.029 C 
HETATM   12  C   UNL     1      43.512 -14.005   6.396  1.00  0.00     0.235 C 
ENDROOT
BRANCH   1  13
HETATM   13  C   UNL     1      42.845 -16.403   6.068  1.00  0.00     0.273 C 
BRANCH  13  14
HETATM   14  C   UNL     1      43.218 -17.328   4.936  1.00  0.00    -0.032 A 
HETATM   15  C   UNL     1      42.836 -17.034   3.614  1.00  0.00     0.012 A 
HETATM   16  C   UNL     1      43.105 -17.938   2.585  1.00  0.00     0.043 A 
HETATM   17  C   UNL     1      43.768 -19.126   2.868  1.00  0.00     0.116 A 
HETATM   18  C   UNL     1      44.178 -19.422   4.161  1.00  0.00     0.043 A 
HETATM   19  F   UNL     1      44.009 -19.998   1.883  1.00  0.00    -0.206 F 
HETATM   20  C   UNL     1      43.906 -18.525   5.196  1.00  0.00     0.012 A 
ENDBRANCH  13  14
ENDBRANCH   1  13
BRANCH   6  21
HETATM   21  C   UNL     1      39.899 -12.319   1.419  1.00  0.00     0.280 C 
BRANCH  21  22
HETATM   22  C   UNL     1      40.574 -11.519   0.352  1.00  0.00     0.009 A 
HETATM   23  S   UNL     1      41.382 -10.058   0.757  1.00  0.00    -0.084 SA
HETATM   24  C   UNL     1      41.797  -9.749  -0.867  1.00  0.00     0.058 A 
HETATM   25  C   UNL     1      41.371 -10.756  -1.703  1.00  0.00     0.029 A 
HETATM   26  C   UNL     1      40.668 -11.782  -1.001  1.00  0.00     0.018 A 
BRANCH  24  27
HETATM   27  C   UNL     1      42.495  -8.577  -1.282  1.00  0.00    -0.057 C 
BRANCH  27  28
HETATM   28  C   UNL     1      43.076  -7.575  -1.600  1.00  0.00    -0.075 C 
BRANCH  28  29
HETATM   29  C   UNL     1      43.814  -6.366  -1.965  1.00  0.00     0.258 C 
BRANCH  29  30
HETATM   30  O   UNL     1      43.432  -5.967  -3.273  1.00  0.00    -0.389 OA
HETATM   31  H   UNL     1      42.495  -5.714  -3.225  1.00  0.00     0.210 HD
ENDBRANCH  29  30
ENDBRANCH  28  29
ENDBRANCH  27  28
ENDBRANCH  24  27
ENDBRANCH  21  22
ENDBRANCH   6  21
TORSDOF 8
ENDMDL
MODEL 6
REMARK VINA RESULT:      -7.4      5.263      8.900
REMARK  8 active torsions:
REMARK  status: ('A' for Active; 'I' for Inactive)
REMARK    1  A    between atoms: C_2  and  C_3 
REMARK    2  A    between atoms: C_3  and  N_4 
REMARK    3  A    between atoms: N_9  and  C_11 
REMARK    4  A    between atoms: C_11  and  C_12 
REMARK    5  A    between atoms: C_14  and  C_15 
REMARK    6  A    between atoms: C_15  and  C_16 
REMARK    7  A    between atoms: C_16  and  C_17 
REMARK    8  A    between atoms: C_17  and  O_18 
ROOT
HETATM    1  N   UNL     1      41.345  -9.560  10.023  1.00  0.00    -0.066 N 
HETATM    2  H   UNL     1      41.365 -10.536   9.707  1.00  0.00     0.280 HD
HETATM    3  C   UNL     1      42.333  -8.721   9.239  1.00  0.00     0.246 C 
HETATM    4  C   UNL     1      43.764  -9.276   9.374  1.00  0.00     0.009 C 
HETATM    5  C   UNL     1      43.944 -10.574   8.572  1.00  0.00     0.246 C 
HETATM    6  N   UNL     1      45.418 -10.647   8.244  1.00  0.00    -0.066 N 
HETATM    7  H   UNL     1      45.884 -11.241   8.945  1.00  0.00     0.280 HD
HETATM    8  C   UNL     1      45.989  -9.251   8.377  1.00  0.00     0.236 C 
HETATM    9  C   UNL     1      44.776  -8.369   8.650  1.00  0.00     0.040 C 
HETATM   10  C   UNL     1      44.127  -9.428  10.868  1.00  0.00     0.014 C 
HETATM   11  C   UNL     1      43.056 -10.159  11.685  1.00  0.00     0.029 C 
HETATM   12  C   UNL     1      41.665  -9.561  11.499  1.00  0.00     0.235 C 
ENDROOT
BRANCH   1  13
HETATM   13  C   UNL     1      39.893  -9.142   9.772  1.00  0.00     0.273 C 
BRANCH  13  14
HETATM   14  C   UNL     1      39.499  -9.348   8.330  1.00  0.00    -0.032 A 
HETATM   15  C   UNL     1      39.351  -8.250   7.463  1.00  0.00     0.012 A 
HETATM   16  C   UNL     1      38.899  -8.439   6.156  1.00  0.00     0.043 A 
HETATM   17  C   UNL     1      38.609  -9.722   5.707  1.00  0.00     0.116 A 
HETATM   18  C   UNL     1      38.775 -10.822   6.538  1.00  0.00     0.043 A 
HETATM   19  F   UNL     1      38.160  -9.898   4.460  1.00  0.00    -0.206 F 
HETATM   20  C   UNL     1      39.220 -10.638   7.849  1.00  0.00     0.012 A 
ENDBRANCH  13  14
ENDBRANCH   1  13
BRANCH   6  21
HETATM   21  C   UNL     1      45.730 -11.306   6.907  1.00  0.00     0.280 C 
BRANCH  21  22
HETATM   22  C   UNL     1      44.550 -12.033   6.348  1.00  0.00     0.009 A 
HETATM   23  S   UNL     1      43.520 -11.252   5.216  1.00  0.00    -0.084 SA
HETATM   24  C   UNL     1      42.480 -12.599   5.118  1.00  0.00     0.058 A 
HETATM   25  C   UNL     1      42.925 -13.644   5.896  1.00  0.00     0.029 A 
HETATM   26  C   UNL     1      44.122 -13.321   6.604  1.00  0.00     0.018 A 
BRANCH  24  27
HETATM   27  C   UNL     1      41.295 -12.612   4.325  1.00  0.00    -0.057 C 
BRANCH  27  28
HETATM   28  C   UNL     1      40.301 -12.659   3.653  1.00  0.00    -0.075 C 
BRANCH  28  29
HETATM   29  C   UNL     1      39.102 -12.682   2.816  1.00  0.00     0.258 C 
BRANCH  29  30
HETATM   30  O   UNL     1      38.673 -14.026   2.658  1.00  0.00    -0.389 OA
HETATM   31  H   UNL     1      37.737 -14.052   2.919  1.00  0.00     0.210 HD
ENDBRANCH  29  30
ENDBRANCH  28  29
ENDBRANCH  27  28
ENDBRANCH  24  27
ENDBRANCH  21  22
ENDBRANCH   6  21
TORSDOF 8
ENDMDL
MODEL 7
REMARK VINA RESULT:      -7.4      2.499      3.238
REMARK  8 active torsions:
REMARK  status: ('A' for Active; 'I' for Inactive)
REMARK    1  A    between atoms: C_2  and  C_3 
REMARK    2  A    between atoms: C_3  and  N_4 
REMARK    3  A    between atoms: N_9  and  C_11 
REMARK    4  A    between atoms: C_11  and  C_12 
REMARK    5  A    between atoms: C_14  and  C_15 
REMARK    6  A    between atoms: C_15  and  C_16 
REMARK    7  A    between atoms: C_16  and  C_17 
REMARK    8  A    between atoms: C_17  and  O_18 
ROOT
HETATM    1  N   UNL     1      42.321 -15.750   2.421  1.00  0.00    -0.066 N 
HETATM    2  H   UNL     1      42.775 -15.451   3.292  1.00  0.00     0.280 HD
HETATM    3  C   UNL     1      42.076 -14.565   1.509  1.00  0.00     0.246 C 
HETATM    4  C   UNL     1      41.207 -13.500   2.203  1.00  0.00     0.009 C 
HETATM    5  C   UNL     1      41.995 -12.744   3.283  1.00  0.00     0.246 C 
HETATM    6  N   UNL     1      41.325 -11.394   3.404  1.00  0.00    -0.066 N 
HETATM    7  H   UNL     1      40.655 -11.426   4.187  1.00  0.00     0.280 HD
HETATM    8  C   UNL     1      40.533 -11.157   2.136  1.00  0.00     0.236 C 
HETATM    9  C   UNL     1      40.885 -12.341   1.242  1.00  0.00     0.040 C 
HETATM   10  C   UNL     1      39.910 -14.150   2.737  1.00  0.00     0.014 C 
HETATM   11  C   UNL     1      40.158 -15.428   3.545  1.00  0.00     0.029 C 
HETATM   12  C   UNL     1      41.029 -16.435   2.802  1.00  0.00     0.235 C 
ENDROOT
BRANCH   1  13
HETATM   13  C   UNL     1      43.323 -16.747   1.830  1.00  0.00     0.273 C 
BRANCH  13  14
HETATM   14  C   UNL     1      43.533 -17.929   2.744  1.00  0.00    -0.032 A 
HETATM   15  C   UNL     1      43.923 -17.739   4.083  1.00  0.00     0.012 A 
HETATM   16  C   UNL     1      44.203 -18.838   4.898  1.00  0.00     0.043 A 
HETATM   17  C   UNL     1      44.081 -20.124   4.385  1.00  0.00     0.116 A 
HETATM   18  C   UNL     1      43.672 -20.333   3.075  1.00  0.00     0.043 A 
HETATM   19  F   UNL     1      44.368 -21.173   5.163  1.00  0.00    -0.206 F 
HETATM   20  C   UNL     1      43.396 -19.238   2.253  1.00  0.00     0.012 A 
ENDBRANCH  13  14
ENDBRANCH   1  13
BRANCH   6  21
HETATM   21  C   UNL     1      42.272 -10.253   3.751  1.00  0.00     0.280 C 
BRANCH  21  22
HETATM   22  C   UNL     1      42.215  -9.894   5.201  1.00  0.00     0.009 A 
HETATM   23  S   UNL     1      43.223 -10.711   6.327  1.00  0.00    -0.084 SA
HETATM   24  C   UNL     1      42.578  -9.847   7.647  1.00  0.00     0.058 A 
HETATM   25  C   UNL     1      41.643  -8.921   7.242  1.00  0.00     0.029 A 
HETATM   26  C   UNL     1      41.434  -8.943   5.830  1.00  0.00     0.018 A 
BRANCH  24  27
HETATM   27  C   UNL     1      42.971 -10.081   8.997  1.00  0.00    -0.057 C 
BRANCH  27  28
HETATM   28  C   UNL     1      43.329 -10.254  10.130  1.00  0.00    -0.075 C 
BRANCH  28  29
HETATM   29  C   UNL     1      43.801 -10.476  11.496  1.00  0.00     0.258 C 
BRANCH  29  30
HETATM   30  O   UNL     1      43.788 -11.868  11.771  1.00  0.00    -0.389 OA
HETATM   31  H   UNL     1      42.907 -12.075  12.127  1.00  0.00     0.210 HD
ENDBRANCH  29  30
ENDBRANCH  28  29
ENDBRANCH  27  28
ENDBRANCH  24  27
ENDBRANCH  21  22
ENDBRANCH   6  21
TORSDOF 8
ENDMDL
MODEL 8
REMARK VINA RESULT:      -7.2      2.064      3.437
REMARK  8 active torsions:
REMARK  status: ('A' for Active; 'I' for Inactive)
REMARK    1  A    between atoms: C_2  and  C_3 
REMARK    2  A    between atoms: C_3  and  N_4 
REMARK    3  A    between atoms: N_9  and  C_11 
REMARK    4  A    between atoms: C_11  and  C_12 
REMARK    5  A    between atoms: C_14  and  C_15 
REMARK    6  A    between atoms: C_15  and  C_16 
REMARK    7  A    between atoms: C_16  and  C_17 
REMARK    8  A    between atoms: C_17  and  O_18 
ROOT
HETATM    1  N   UNL     1      42.202 -13.476   6.664  1.00  0.00    -0.066 N 
HETATM    2  H   UNL     1      41.785 -13.097   7.522  1.00  0.00     0.280 HD
HETATM    3  C   UNL     1      43.704 -13.285   6.667  1.00  0.00     0.246 C 
HETATM    4  C   UNL     1      44.075 -11.797   6.803  1.00  0.00     0.009 C 
HETATM    5  C   UNL     1      43.819 -11.279   8.226  1.00  0.00     0.246 C 
HETATM    6  N   UNL     1      44.771 -10.120   8.414  1.00  0.00    -0.066 N 
HETATM    7  H   UNL     1      44.268  -9.243   8.212  1.00  0.00     0.280 HD
HETATM    8  C   UNL     1      45.876 -10.260   7.389  1.00  0.00     0.236 C 
HETATM    9  C   UNL     1      45.599 -11.598   6.714  1.00  0.00     0.040 C 
HETATM   10  C   UNL     1      43.346 -10.975   5.716  1.00  0.00     0.014 C 
HETATM   11  C   UNL     1      41.847 -11.275   5.627  1.00  0.00     0.029 C 
HETATM   12  C   UNL     1      41.553 -12.766   5.499  1.00  0.00     0.235 C 
ENDROOT
BRANCH   1  13
HETATM   13  C   UNL     1      41.799 -14.954   6.705  1.00  0.00     0.273 C 
BRANCH  13  14
HETATM   14  C   UNL     1      42.089 -15.644   5.395  1.00  0.00    -0.032 A 
HETATM   15  C   UNL     1      41.079 -15.798   4.427  1.00  0.00     0.012 A 
HETATM   16  C   UNL     1      41.329 -16.516   3.256  1.00  0.00     0.043 A 
HETATM   17  C   UNL     1      42.587 -17.067   3.041  1.00  0.00     0.116 A 
HETATM   18  C   UNL     1      43.604 -16.903   3.971  1.00  0.00     0.043 A 
HETATM   19  F   UNL     1      42.817 -17.769   1.927  1.00  0.00    -0.206 F 
HETATM   20  C   UNL     1      43.359 -16.191   5.148  1.00  0.00     0.012 A 
ENDBRANCH  13  14
ENDBRANCH   1  13
BRANCH   6  21
HETATM   21  C   UNL     1      45.282  -9.953   9.839  1.00  0.00     0.280 C 
BRANCH  21  22
HETATM   22  C   UNL     1      44.167  -9.827  10.826  1.00  0.00     0.009 A 
HETATM   23  S   UNL     1      43.293  -8.352  10.949  1.00  0.00    -0.084 SA
HETATM   24  C   UNL     1      42.323  -8.945  12.219  1.00  0.00     0.058 A 
HETATM   25  C   UNL     1      42.622 -10.255  12.520  1.00  0.00     0.029 A 
HETATM   26  C   UNL     1      43.683 -10.767  11.715  1.00  0.00     0.018 A 
BRANCH  24  27
HETATM   27  C   UNL     1      41.334  -8.156  12.877  1.00  0.00    -0.057 C 
BRANCH  27  28
HETATM   28  C   UNL     1      40.524  -7.489  13.460  1.00  0.00    -0.075 C 
BRANCH  28  29
HETATM   29  C   UNL     1      39.534  -6.705  14.198  1.00  0.00     0.258 C 
BRANCH  29  30
HETATM   30  O   UNL     1      39.988  -5.365  14.303  1.00  0.00    -0.389 OA
HETATM   31  H   UNL     1      39.476  -4.845  13.660  1.00  0.00     0.210 HD
ENDBRANCH  29  30
ENDBRANCH  28  29
ENDBRANCH  27  28
ENDBRANCH  24  27
ENDBRANCH  21  22
ENDBRANCH   6  21
TORSDOF 8
ENDMDL
MODEL 9
REMARK VINA RESULT:      -7.2      5.444     10.608
REMARK  8 active torsions:
REMARK  status: ('A' for Active; 'I' for Inactive)
REMARK    1  A    between atoms: C_2  and  C_3 
REMARK    2  A    between atoms: C_3  and  N_4 
REMARK    3  A    between atoms: N_9  and  C_11 
REMARK    4  A    between atoms: C_11  and  C_12 
REMARK    5  A    between atoms: C_14  and  C_15 
REMARK    6  A    between atoms: C_15  and  C_16 
REMARK    7  A    between atoms: C_16  and  C_17 
REMARK    8  A    between atoms: C_17  and  O_18 
ROOT
HETATM    1  N   UNL     1      39.773  -9.026   7.632  1.00  0.00    -0.066 N 
HETATM    2  H   UNL     1      40.791  -8.929   7.548  1.00  0.00     0.280 HD
HETATM    3  C   UNL     1      39.352 -10.466   7.420  1.00  0.00     0.246 C 
HETATM    4  C   UNL     1      39.804 -10.980   6.041  1.00  0.00     0.009 C 
HETATM    5  C   UNL     1      41.321 -11.221   5.998  1.00  0.00     0.246 C 
HETATM    6  N   UNL     1      41.534 -12.275   4.935  1.00  0.00    -0.066 N 
HETATM    7  H   UNL     1      41.777 -11.807   4.050  1.00  0.00     0.280 HD
HETATM    8  C   UNL     1      40.217 -12.992   4.726  1.00  0.00     0.236 C 
HETATM    9  C   UNL     1      39.296 -12.412   5.793  1.00  0.00     0.040 C 
HETATM   10  C   UNL     1      39.309 -10.019   4.936  1.00  0.00     0.014 C 
HETATM   11  C   UNL     1      39.618  -8.547   5.226  1.00  0.00     0.029 C 
HETATM   12  C   UNL     1      39.148  -8.107   6.608  1.00  0.00     0.235 C 
ENDROOT
BRANCH   1  13
HETATM   13  C   UNL     1      39.493  -8.538   9.058  1.00  0.00     0.273 C 
BRANCH  13  14
HETATM   14  C   UNL     1      40.754  -8.490   9.884  1.00  0.00    -0.032 A 
HETATM   15  C   UNL     1      41.164  -9.609  10.632  1.00  0.00     0.012 A 
HETATM   16  C   UNL     1      42.282  -9.530  11.465  1.00  0.00     0.043 A 
HETATM   17  C   UNL     1      43.000  -8.342  11.541  1.00  0.00     0.116 A 
HETATM   18  C   UNL     1      42.628  -7.235  10.791  1.00  0.00     0.043 A 
HETATM   19  F   UNL     1      44.060  -8.263  12.353  1.00  0.00    -0.206 F 
HETATM   20  C   UNL     1      41.507  -7.306   9.961  1.00  0.00     0.012 A 
ENDBRANCH  13  14
ENDBRANCH   1  13
BRANCH   6  21
HETATM   21  C   UNL     1      42.701 -13.215   5.209  1.00  0.00     0.280 C 
BRANCH  21  22
HETATM   22  C   UNL     1      42.834 -14.268   4.157  1.00  0.00     0.009 A 
HETATM   23  S   UNL     1      42.810 -15.929   4.598  1.00  0.00    -0.084 SA
HETATM   24  C   UNL     1      43.051 -16.438   2.990  1.00  0.00     0.058 A 
HETATM   25  C   UNL     1      43.106 -15.372   2.121  1.00  0.00     0.029 A 
HETATM   26  C   UNL     1      42.976 -14.118   2.791  1.00  0.00     0.018 A 
BRANCH  24  27
HETATM   27  C   UNL     1      43.185 -17.808   2.619  1.00  0.00    -0.057 C 
BRANCH  27  28
HETATM   28  C   UNL     1      43.334 -18.958   2.308  1.00  0.00    -0.075 C 
BRANCH  28  29
HETATM   29  C   UNL     1      43.502 -20.351   1.894  1.00  0.00     0.258 C 
BRANCH  29  30
HETATM   30  O   UNL     1      43.790 -21.143   3.035  1.00  0.00    -0.389 OA
HETATM   31  H   UNL     1      44.616 -20.797   3.414  1.00  0.00     0.210 HD
ENDBRANCH  29  30
ENDBRANCH  28  29
ENDBRANCH  27  28
ENDBRANCH  24  27
ENDBRANCH  21  22
ENDBRANCH   6  21
TORSDOF 8
ENDMDL
MODEL 10
REMARK VINA RESULT:      -7.0      2.509      3.255
REMARK  8 active torsions:
REMARK  status: ('A' for Active; 'I' for Inactive)
REMARK    1  A    between atoms: C_2  and  C_3 
REMARK    2  A    between atoms: C_3  and  N_4 
REMARK    3  A    between atoms: N_9  and  C_11 
REMARK    4  A    between atoms: C_11  and  C_12 
REMARK    5  A    between atoms: C_14  and  C_15 
REMARK    6  A    between atoms: C_15  and  C_16 
REMARK    7  A    between atoms: C_16  and  C_17 
REMARK    8  A    between atoms: C_17  and  O_18 
ROOT
HETATM    1  N   UNL     1      41.865 -13.647   4.106  1.00  0.00    -0.066 N 
HETATM    2  H   UNL     1      41.109 -13.032   4.428  1.00  0.00     0.280 HD
HETATM    3  C   UNL     1      42.987 -13.696   5.122  1.00  0.00     0.246 C 
HETATM    4  C   UNL     1      43.551 -12.289   5.395  1.00  0.00     0.009 C 
HETATM    5  C   UNL     1      42.579 -11.444   6.232  1.00  0.00     0.246 C 
HETATM    6  N   UNL     1      43.439 -10.434   6.956  1.00  0.00    -0.066 N 
HETATM    7  H   UNL     1      43.440  -9.554   6.420  1.00  0.00     0.280 HD
HETATM    8  C   UNL     1      44.858 -10.962   6.969  1.00  0.00     0.236 C 
HETATM    9  C   UNL     1      44.750 -12.355   6.359  1.00  0.00     0.040 C 
HETATM   10  C   UNL     1      43.950 -11.617   4.062  1.00  0.00     0.014 C 
HETATM   11  C   UNL     1      42.857 -11.693   2.991  1.00  0.00     0.029 C 
HETATM   12  C   UNL     1      42.342 -13.112   2.776  1.00  0.00     0.235 C 
ENDROOT
BRANCH   1  13
HETATM   13  C   UNL     1      41.166 -15.000   3.940  1.00  0.00     0.273 C 
BRANCH  13  14
HETATM   14  C   UNL     1      42.156 -16.139   3.936  1.00  0.00    -0.032 A 
HETATM   15  C   UNL     1      42.702 -16.610   2.728  1.00  0.00     0.012 A 
HETATM   16  C   UNL     1      43.548 -17.721   2.723  1.00  0.00     0.043 A 
HETATM   17  C   UNL     1      43.862 -18.353   3.921  1.00  0.00     0.116 A 
HETATM   18  C   UNL     1      43.355 -17.887   5.126  1.00  0.00     0.043 A 
HETATM   19  F   UNL     1      44.657 -19.428   3.910  1.00  0.00    -0.206 F 
HETATM   20  C   UNL     1      42.504 -16.780   5.137  1.00  0.00     0.012 A 
ENDBRANCH  13  14
ENDBRANCH   1  13
BRANCH   6  21
HETATM   21  C   UNL     1      42.923 -10.046   8.336  1.00  0.00     0.280 C 
BRANCH  21  22
HETATM   22  C   UNL     1      42.741  -8.569   8.474  1.00  0.00     0.009 A 
HETATM   23  S   UNL     1      43.207  -7.779   9.927  1.00  0.00    -0.084 SA
HETATM   24  C   UNL     1      42.673  -6.262   9.363  1.00  0.00     0.058 A 
HETATM   25  C   UNL     1      42.188  -6.338   8.077  1.00  0.00     0.029 A 
HETATM   26  C   UNL     1      42.230  -7.668   7.559  1.00  0.00     0.018 A 
BRANCH  24  27
HETATM   27  C   UNL     1      42.726  -5.075  10.152  1.00  0.00    -0.057 C 
BRANCH  27  28
HETATM   28  C   UNL     1      42.769  -4.056  10.786  1.00  0.00    -0.075 C 
BRANCH  28  29
HETATM   29  C   UNL     1      42.856  -2.808  11.542  1.00  0.00     0.258 C 
BRANCH  29  30
HETATM   30  O   UNL     1      43.960  -2.053  11.066  1.00  0.00    -0.389 OA
HETATM   31  H   UNL     1      44.654  -2.117  11.744  1.00  0.00     0.210 HD
ENDBRANCH  29  30
ENDBRANCH  28  29
ENDBRANCH  27  28
ENDBRANCH  24  27
ENDBRANCH  21  22
ENDBRANCH   6  21
TORSDOF 8
ENDMDL
