MODEL 1
REMARK VINA RESULT:      -8.3      0.000      0.000
REMARK  2 active torsions:
REMARK  status: ('A' for Active; 'I' for Inactive)
REMARK    1  A    between atoms: C_5  and  O_6 
REMARK    2  A    between atoms: C_5  and  C_7 
ROOT
HETATM    1  C   UNL     1      39.209 -12.381   2.357  1.00  0.00     0.050 C 
HETATM    2  C   UNL     1      40.561 -12.578   2.970  1.00  0.00    -0.035 A 
HETATM    3  C   UNL     1      40.787 -13.340   4.106  1.00  0.00     0.051 A 
HETATM    4  C   UNL     1      42.067 -13.519   4.652  1.00  0.00     0.018 A 
HETATM    5  C   UNL     1      41.973 -14.368   5.895  1.00  0.00     0.199 A 
HETATM    6  C   UNL     1      40.432 -14.629   5.975  1.00  0.00     0.266 A 
HETATM    7  O   UNL     1      39.826 -15.194   6.874  1.00  0.00    -0.269 OA
HETATM    8  N   UNL     1      39.844 -14.013   4.875  1.00  0.00    -0.323 N 
HETATM    9  C   UNL     1      43.171 -12.909   4.074  1.00  0.00     0.013 A 
HETATM   10  C   UNL     1      42.974 -12.148   2.920  1.00  0.00     0.001 A 
HETATM   11  C   UNL     1      41.687 -11.988   2.374  1.00  0.00     0.009 A 
HETATM   12  H   UNL     1      38.848 -14.017   4.725  1.00  0.00     0.169 HD
ENDROOT
BRANCH   5  13
HETATM   13  O   UNL     1      42.423 -13.575   6.990  1.00  0.00    -0.371 OA
HETATM   14  H   UNL     1      43.127 -14.102   7.404  1.00  0.00     0.212 HD
ENDBRANCH   5  13
BRANCH   5  15
HETATM   15  C   UNL     1      42.746 -15.666   5.733  1.00  0.00     0.025 A 
HETATM   16  C   UNL     1      42.942 -16.483   4.547  1.00  0.00     0.003 A 
HETATM   17  C   UNL     1      43.718 -17.585   4.913  1.00  0.00     0.043 A 
HETATM   18  C   UNL     1      42.542 -16.408   3.191  1.00  0.00     0.014 A 
HETATM   19  C   UNL     1      44.122 -18.581   4.015  1.00  0.00     0.030 A 
HETATM   20  N   UNL     1      43.963 -17.480   6.255  1.00  0.00    -0.359 N 
HETATM   21  C   UNL     1      43.724 -18.462   2.683  1.00  0.00     0.002 A 
HETATM   22  C   UNL     1      42.942 -17.390   2.274  1.00  0.00     0.001 A 
HETATM   23  H   UNL     1      44.489 -18.159   6.789  1.00  0.00     0.166 HD
HETATM   24  C   UNL     1      43.367 -16.363   6.775  1.00  0.00     0.016 A 
HETATM   25  C   UNL     1      43.447 -16.091   8.236  1.00  0.00     0.069 C 
ENDBRANCH   5  15
TORSDOF 2
ENDMDL
MODEL 2
REMARK VINA RESULT:      -8.2      2.030      2.501
REMARK  2 active torsions:
REMARK  status: ('A' for Active; 'I' for Inactive)
REMARK    1  A    between atoms: C_5  and  O_6 
REMARK    2  A    between atoms: C_5  and  C_7 
ROOT
HETATM    1  C   UNL     1      40.938 -10.735   6.138  1.00  0.00     0.050 C 
HETATM    2  C   UNL     1      42.056 -11.718   6.295  1.00  0.00    -0.035 A 
HETATM    3  C   UNL     1      41.865 -13.084   6.436  1.00  0.00     0.051 A 
HETATM    4  C   UNL     1      42.932 -13.985   6.569  1.00  0.00     0.018 A 
HETATM    5  C   UNL     1      42.396 -15.384   6.735  1.00  0.00     0.199 A 
HETATM    6  C   UNL     1      40.853 -15.130   6.692  1.00  0.00     0.266 A 
HETATM    7  O   UNL     1      39.965 -15.949   6.886  1.00  0.00    -0.269 OA
HETATM    8  N   UNL     1      40.656 -13.769   6.487  1.00  0.00    -0.323 N 
HETATM    9  C   UNL     1      44.243 -13.528   6.584  1.00  0.00     0.013 A 
HETATM   10  C   UNL     1      44.464 -12.158   6.428  1.00  0.00     0.001 A 
HETATM   11  C   UNL     1      43.386 -11.266   6.281  1.00  0.00     0.009 A 
HETATM   12  H   UNL     1      39.738 -13.357   6.454  1.00  0.00     0.169 HD
ENDROOT
BRANCH   5  13
HETATM   13  O   UNL     1      42.809 -15.852   8.016  1.00  0.00    -0.371 OA
HETATM   14  H   UNL     1      43.049 -16.783   7.873  1.00  0.00     0.212 HD
ENDBRANCH   5  13
BRANCH   5  15
HETATM   15  C   UNL     1      42.841 -16.282   5.593  1.00  0.00     0.025 A 
HETATM   16  C   UNL     1      42.877 -16.013   4.165  1.00  0.00     0.003 A 
HETATM   17  C   UNL     1      43.353 -17.160   3.527  1.00  0.00     0.043 A 
HETATM   18  C   UNL     1      42.554 -14.911   3.337  1.00  0.00     0.014 A 
HETATM   19  C   UNL     1      43.538 -17.256   2.142  1.00  0.00     0.030 A 
HETATM   20  N   UNL     1      43.569 -18.102   4.496  1.00  0.00    -0.359 N 
HETATM   21  C   UNL     1      43.227 -16.143   1.361  1.00  0.00     0.002 A 
HETATM   22  C   UNL     1      42.739 -14.984   1.949  1.00  0.00     0.001 A 
HETATM   23  H   UNL     1      43.898 -19.040   4.309  1.00  0.00     0.166 HD
HETATM   24  C   UNL     1      43.240 -17.616   5.732  1.00  0.00     0.016 A 
HETATM   25  C   UNL     1      43.331 -18.501   6.926  1.00  0.00     0.069 C 
ENDBRANCH   5  15
TORSDOF 2
ENDMDL
MODEL 3
REMARK VINA RESULT:      -8.1      1.619      5.384
REMARK  2 active torsions:
REMARK  status: ('A' for Active; 'I' for Inactive)
REMARK    1  A    between atoms: C_5  and  O_6 
REMARK    2  A    between atoms: C_5  and  C_7 
ROOT
HETATM    1  C   UNL     1      44.567 -19.253   4.902  1.00  0.00     0.050 C 
HETATM    2  C   UNL     1      43.753 -18.300   4.083  1.00  0.00    -0.035 A 
HETATM    3  C   UNL     1      42.863 -17.386   4.625  1.00  0.00     0.051 A 
HETATM    4  C   UNL     1      42.121 -16.495   3.834  1.00  0.00     0.018 A 
HETATM    5  C   UNL     1      41.227 -15.660   4.714  1.00  0.00     0.199 A 
HETATM    6  C   UNL     1      41.567 -16.232   6.131  1.00  0.00     0.266 A 
HETATM    7  O   UNL     1      41.025 -15.950   7.190  1.00  0.00    -0.269 OA
HETATM    8  N   UNL     1      42.546 -17.206   5.966  1.00  0.00    -0.323 N 
HETATM    9  C   UNL     1      42.241 -16.512   2.451  1.00  0.00     0.013 A 
HETATM   10  C   UNL     1      43.143 -17.413   1.880  1.00  0.00     0.001 A 
HETATM   11  C   UNL     1      43.892 -18.291   2.685  1.00  0.00     0.009 A 
HETATM   12  H   UNL     1      42.907 -17.742   6.739  1.00  0.00     0.169 HD
ENDROOT
BRANCH   5  13
HETATM   13  O   UNL     1      39.879 -15.946   4.350  1.00  0.00    -0.371 OA
HETATM   14  H   UNL     1      39.749 -16.877   4.597  1.00  0.00     0.212 HD
ENDBRANCH   5  13
BRANCH   5  15
HETATM   15  C   UNL     1      41.578 -14.185   4.614  1.00  0.00     0.025 A 
HETATM   16  C   UNL     1      42.610 -13.431   5.307  1.00  0.00     0.003 A 
HETATM   17  C   UNL     1      42.525 -12.104   4.883  1.00  0.00     0.043 A 
HETATM   18  C   UNL     1      43.615 -13.734   6.258  1.00  0.00     0.014 A 
HETATM   19  C   UNL     1      43.382 -11.091   5.331  1.00  0.00     0.030 A 
HETATM   20  N   UNL     1      41.480 -12.026   4.003  1.00  0.00    -0.359 N 
HETATM   21  C   UNL     1      44.373 -11.432   6.253  1.00  0.00     0.002 A 
HETATM   22  C   UNL     1      44.488 -12.736   6.713  1.00  0.00     0.001 A 
HETATM   23  H   UNL     1      41.180 -11.170   3.555  1.00  0.00     0.166 HD
HETATM   24  C   UNL     1      40.877 -13.245   3.851  1.00  0.00     0.016 A 
HETATM   25  C   UNL     1      39.670 -13.374   2.989  1.00  0.00     0.069 C 
ENDBRANCH   5  15
TORSDOF 2
ENDMDL
MODEL 4
REMARK VINA RESULT:      -7.9      3.029      5.818
REMARK  2 active torsions:
REMARK  status: ('A' for Active; 'I' for Inactive)
REMARK    1  A    between atoms: C_5  and  O_6 
REMARK    2  A    between atoms: C_5  and  C_7 
ROOT
HETATM    1  C   UNL     1      43.592 -15.383   6.042  1.00  0.00     0.050 C 
HETATM    2  C   UNL     1      42.990 -15.739   4.718  1.00  0.00    -0.035 A 
HETATM    3  C   UNL     1      41.934 -15.050   4.143  1.00  0.00     0.051 A 
HETATM    4  C   UNL     1      41.397 -15.397   2.894  1.00  0.00     0.018 A 
HETATM    5  C   UNL     1      40.246 -14.481   2.564  1.00  0.00     0.199 A 
HETATM    6  C   UNL     1      40.204 -13.569   3.835  1.00  0.00     0.266 A 
HETATM    7  O   UNL     1      39.370 -12.716   4.104  1.00  0.00    -0.269 OA
HETATM    8  N   UNL     1      41.242 -13.966   4.671  1.00  0.00    -0.323 N 
HETATM    9  C   UNL     1      41.904 -16.478   2.185  1.00  0.00     0.013 A 
HETATM   10  C   UNL     1      42.978 -17.180   2.734  1.00  0.00     0.001 A 
HETATM   11  C   UNL     1      43.517 -16.812   3.982  1.00  0.00     0.009 A 
HETATM   12  H   UNL     1      41.399 -13.542   5.572  1.00  0.00     0.169 HD
ENDROOT
BRANCH   5  13
HETATM   13  O   UNL     1      39.074 -15.285   2.464  1.00  0.00    -0.371 OA
HETATM   14  H   UNL     1      38.885 -15.561   3.377  1.00  0.00     0.212 HD
ENDBRANCH   5  13
BRANCH   5  15
HETATM   15  C   UNL     1      40.529 -13.671   1.311  1.00  0.00     0.025 A 
HETATM   16  C   UNL     1      40.153 -13.937  -0.068  1.00  0.00     0.003 A 
HETATM   17  C   UNL     1      40.659 -12.901  -0.855  1.00  0.00     0.043 A 
HETATM   18  C   UNL     1      39.432 -14.955  -0.739  1.00  0.00     0.014 A 
HETATM   19  C   UNL     1      40.471 -12.818  -2.241  1.00  0.00     0.030 A 
HETATM   20  N   UNL     1      41.340 -12.055  -0.023  1.00  0.00    -0.359 N 
HETATM   21  C   UNL     1      39.739 -13.830  -2.864  1.00  0.00     0.002 A 
HETATM   22  C   UNL     1      39.226 -14.887  -2.124  1.00  0.00     0.001 A 
HETATM   23  H   UNL     1      41.827 -11.226  -0.335  1.00  0.00     0.166 HD
HETATM   24  C   UNL     1      41.308 -12.509   1.268  1.00  0.00     0.016 A 
HETATM   25  C   UNL     1      42.048 -11.775   2.331  1.00  0.00     0.069 C 
ENDBRANCH   5  15
TORSDOF 2
ENDMDL
MODEL 5
REMARK VINA RESULT:      -7.9      2.839      4.053
REMARK  2 active torsions:
REMARK  status: ('A' for Active; 'I' for Inactive)
REMARK    1  A    between atoms: C_5  and  O_6 
REMARK    2  A    between atoms: C_5  and  C_7 
ROOT
HETATM    1  C   UNL     1      42.761  -8.647   7.712  1.00  0.00     0.050 C 
HETATM    2  C   UNL     1      43.394  -9.964   7.385  1.00  0.00    -0.035 A 
HETATM    3  C   UNL     1      42.707 -11.031   6.828  1.00  0.00     0.051 A 
HETATM    4  C   UNL     1      43.328 -12.250   6.519  1.00  0.00     0.018 A 
HETATM    5  C   UNL     1      42.310 -13.211   5.960  1.00  0.00     0.199 A 
HETATM    6  C   UNL     1      41.007 -12.346   6.016  1.00  0.00     0.266 A 
HETATM    7  O   UNL     1      39.868 -12.711   5.760  1.00  0.00    -0.269 OA
HETATM    8  N   UNL     1      41.355 -11.093   6.507  1.00  0.00    -0.323 N 
HETATM    9  C   UNL     1      44.677 -12.441   6.786  1.00  0.00     0.013 A 
HETATM   10  C   UNL     1      45.397 -11.377   7.333  1.00  0.00     0.001 A 
HETATM   11  C   UNL     1      44.765 -10.154   7.624  1.00  0.00     0.009 A 
HETATM   12  H   UNL     1      40.674 -10.367   6.663  1.00  0.00     0.169 HD
ENDROOT
BRANCH   5  13
HETATM   13  O   UNL     1      42.234 -14.321   6.849  1.00  0.00    -0.371 OA
HETATM   14  H   UNL     1      41.707 -14.984   6.372  1.00  0.00     0.212 HD
ENDBRANCH   5  13
BRANCH   5  15
HETATM   15  C   UNL     1      42.652 -13.604   4.532  1.00  0.00     0.025 A 
HETATM   16  C   UNL     1      42.820 -14.927   3.953  1.00  0.00     0.003 A 
HETATM   17  C   UNL     1      43.143 -14.763   2.604  1.00  0.00     0.043 A 
HETATM   18  C   UNL     1      42.735 -16.257   4.430  1.00  0.00     0.014 A 
HETATM   19  C   UNL     1      43.359 -15.830   1.723  1.00  0.00     0.030 A 
HETATM   20  N   UNL     1      43.206 -13.417   2.363  1.00  0.00    -0.359 N 
HETATM   21  C   UNL     1      43.247 -17.127   2.227  1.00  0.00     0.002 A 
HETATM   22  C   UNL     1      42.940 -17.339   3.564  1.00  0.00     0.001 A 
HETATM   23  H   UNL     1      43.441 -13.013   1.467  1.00  0.00     0.166 HD
HETATM   24  C   UNL     1      42.951 -12.704   3.504  1.00  0.00     0.016 A 
HETATM   25  C   UNL     1      43.036 -11.218   3.485  1.00  0.00     0.069 C 
ENDBRANCH   5  15
TORSDOF 2
ENDMDL
MODEL 6
REMARK VINA RESULT:      -7.8      1.780      2.615
REMARK  2 active torsions:
REMARK  status: ('A' for Active; 'I' for Inactive)
REMARK    1  A    between atoms: C_5  and  O_6 
REMARK    2  A    between atoms: C_5  and  C_7 
ROOT
HETATM    1  C   UNL     1      39.730 -10.189   5.391  1.00  0.00     0.050 C 
HETATM    2  C   UNL     1      40.917 -11.043   5.072  1.00  0.00    -0.035 A 
HETATM    3  C   UNL     1      40.984 -12.401   5.345  1.00  0.00     0.051 A 
HETATM    4  C   UNL     1      42.105 -13.181   5.023  1.00  0.00     0.018 A 
HETATM    5  C   UNL     1      41.881 -14.602   5.475  1.00  0.00     0.199 A 
HETATM    6  C   UNL     1      40.459 -14.499   6.120  1.00  0.00     0.266 A 
HETATM    7  O   UNL     1      39.860 -15.375   6.729  1.00  0.00    -0.269 OA
HETATM    8  N   UNL     1      40.020 -13.189   5.965  1.00  0.00    -0.323 N 
HETATM    9  C   UNL     1      43.217 -12.604   4.426  1.00  0.00     0.013 A 
HETATM   10  C   UNL     1      43.170 -11.241   4.126  1.00  0.00     0.001 A 
HETATM   11  C   UNL     1      42.034 -10.473   4.440  1.00  0.00     0.009 A 
HETATM   12  H   UNL     1      39.137 -12.869   6.330  1.00  0.00     0.169 HD
ENDROOT
BRANCH   5  13
HETATM   13  O   UNL     1      42.873 -14.902   6.452  1.00  0.00    -0.371 OA
HETATM   14  H   UNL     1      43.717 -14.678   6.024  1.00  0.00     0.212 HD
ENDBRANCH   5  13
BRANCH   5  15
HETATM   15  C   UNL     1      41.885 -15.561   4.297  1.00  0.00     0.025 A 
HETATM   16  C   UNL     1      42.735 -16.713   4.046  1.00  0.00     0.003 A 
HETATM   17  C   UNL     1      42.357 -17.262   2.819  1.00  0.00     0.043 A 
HETATM   18  C   UNL     1      43.793 -17.356   4.732  1.00  0.00     0.014 A 
HETATM   19  C   UNL     1      42.951 -18.402   2.263  1.00  0.00     0.030 A 
HETATM   20  N   UNL     1      41.354 -16.478   2.316  1.00  0.00    -0.359 N 
HETATM   21  C   UNL     1      43.978 -19.019   2.979  1.00  0.00     0.002 A 
HETATM   22  C   UNL     1      44.397 -18.503   4.198  1.00  0.00     0.001 A 
HETATM   23  H   UNL     1      40.906 -16.636   1.424  1.00  0.00     0.166 HD
HETATM   24  C   UNL     1      41.077 -15.437   3.161  1.00  0.00     0.016 A 
HETATM   25  C   UNL     1      40.063 -14.418   2.776  1.00  0.00     0.069 C 
ENDBRANCH   5  15
TORSDOF 2
ENDMDL
MODEL 7
REMARK VINA RESULT:      -7.7      2.479      5.069
REMARK  2 active torsions:
REMARK  status: ('A' for Active; 'I' for Inactive)
REMARK    1  A    between atoms: C_5  and  O_6 
REMARK    2  A    between atoms: C_5  and  C_7 
ROOT
HETATM    1  C   UNL     1      43.378 -17.604   3.644  1.00  0.00     0.050 C 
HETATM    2  C   UNL     1      42.905 -16.213   3.356  1.00  0.00    -0.035 A 
HETATM    3  C   UNL     1      42.023 -15.516   4.168  1.00  0.00     0.051 A 
HETATM    4  C   UNL     1      41.607 -14.207   3.881  1.00  0.00     0.018 A 
HETATM    5  C   UNL     1      40.629 -13.745   4.931  1.00  0.00     0.199 A 
HETATM    6  C   UNL     1      40.545 -15.008   5.851  1.00  0.00     0.266 A 
HETATM    7  O   UNL     1      39.798 -15.177   6.805  1.00  0.00    -0.269 OA
HETATM    8  N   UNL     1      41.413 -15.963   5.334  1.00  0.00    -0.323 N 
HETATM    9  C   UNL     1      42.057 -13.559   2.739  1.00  0.00     0.013 A 
HETATM   10  C   UNL     1      42.959 -14.232   1.912  1.00  0.00     0.001 A 
HETATM   11  C   UNL     1      43.380 -15.539   2.219  1.00  0.00     0.009 A 
HETATM   12  H   UNL     1      41.509 -16.880   5.742  1.00  0.00     0.169 HD
ENDROOT
BRANCH   5  13
HETATM   13  O   UNL     1      39.387 -13.494   4.280  1.00  0.00    -0.371 OA
HETATM   14  H   UNL     1      38.809 -13.142   4.977  1.00  0.00     0.212 HD
ENDBRANCH   5  13
BRANCH   5  15
HETATM   15  C   UNL     1      41.165 -12.542   5.690  1.00  0.00     0.025 A 
HETATM   16  C   UNL     1      42.518 -12.265   6.146  1.00  0.00     0.003 A 
HETATM   17  C   UNL     1      42.500 -11.035   6.807  1.00  0.00     0.043 A 
HETATM   18  C   UNL     1      43.765 -12.930   6.071  1.00  0.00     0.014 A 
HETATM   19  C   UNL     1      43.638 -10.439   7.365  1.00  0.00     0.030 A 
HETATM   20  N   UNL     1      41.207 -10.587   6.794  1.00  0.00    -0.359 N 
HETATM   21  C   UNL     1      44.853 -11.116   7.254  1.00  0.00     0.002 A 
HETATM   22  C   UNL     1      44.917 -12.347   6.616  1.00  0.00     0.001 A 
HETATM   23  H   UNL     1      40.903  -9.723   7.224  1.00  0.00     0.166 HD
HETATM   24  C   UNL     1      40.385 -11.482   6.164  1.00  0.00     0.016 A 
HETATM   25  C   UNL     1      38.920 -11.226   6.098  1.00  0.00     0.069 C 
ENDBRANCH   5  15
TORSDOF 2
ENDMDL
MODEL 8
REMARK VINA RESULT:      -7.4      7.332      9.461
REMARK  2 active torsions:
REMARK  status: ('A' for Active; 'I' for Inactive)
REMARK    1  A    between atoms: C_5  and  O_6 
REMARK    2  A    between atoms: C_5  and  C_7 
ROOT
HETATM    1  C   UNL     1      43.998 -12.417   7.134  1.00  0.00     0.050 C 
HETATM    2  C   UNL     1      44.407 -11.054   7.599  1.00  0.00    -0.035 A 
HETATM    3  C   UNL     1      43.510 -10.038   7.886  1.00  0.00     0.051 A 
HETATM    4  C   UNL     1      43.921  -8.773   8.333  1.00  0.00     0.018 A 
HETATM    5  C   UNL     1      42.716  -7.886   8.524  1.00  0.00     0.199 A 
HETATM    6  C   UNL     1      41.556  -8.847   8.097  1.00  0.00     0.266 A 
HETATM    7  O   UNL     1      40.372  -8.566   7.979  1.00  0.00    -0.269 OA
HETATM    8  N   UNL     1      42.125 -10.074   7.774  1.00  0.00    -0.323 N 
HETATM    9  C   UNL     1      45.269  -8.484   8.488  1.00  0.00     0.013 A 
HETATM   10  C   UNL     1      46.194  -9.495   8.221  1.00  0.00     0.001 A 
HETATM   11  C   UNL     1      45.768 -10.764   7.787  1.00  0.00     0.009 A 
HETATM   12  H   UNL     1      41.576 -10.850   7.438  1.00  0.00     0.169 HD
ENDROOT
BRANCH   5  13
HETATM   13  O   UNL     1      42.842  -6.792   7.621  1.00  0.00    -0.371 OA
HETATM   14  H   UNL     1      42.013  -6.794   7.113  1.00  0.00     0.212 HD
ENDBRANCH   5  13
BRANCH   5  15
HETATM   15  C   UNL     1      42.573  -7.458   9.975  1.00  0.00     0.025 A 
HETATM   16  C   UNL     1      42.546  -8.270  11.180  1.00  0.00     0.003 A 
HETATM   17  C   UNL     1      42.383  -7.410  12.269  1.00  0.00     0.043 A 
HETATM   18  C   UNL     1      42.643  -9.652  11.469  1.00  0.00     0.014 A 
HETATM   19  C   UNL     1      42.333  -7.845  13.599  1.00  0.00     0.030 A 
HETATM   20  N   UNL     1      42.280  -6.140  11.770  1.00  0.00    -0.359 N 
HETATM   21  C   UNL     1      42.452  -9.214  13.845  1.00  0.00     0.002 A 
HETATM   22  C   UNL     1      42.603 -10.108  12.794  1.00  0.00     0.001 A 
HETATM   23  H   UNL     1      42.135  -5.318  12.341  1.00  0.00     0.166 HD
HETATM   24  C   UNL     1      42.355  -6.144  10.403  1.00  0.00     0.016 A 
HETATM   25  C   UNL     1      42.195  -4.871   9.647  1.00  0.00     0.069 C 
ENDBRANCH   5  15
TORSDOF 2
ENDMDL
MODEL 9
REMARK VINA RESULT:      -7.4      1.890      3.215
REMARK  2 active torsions:
REMARK  status: ('A' for Active; 'I' for Inactive)
REMARK    1  A    between atoms: C_5  and  O_6 
REMARK    2  A    between atoms: C_5  and  C_7 
ROOT
HETATM    1  C   UNL     1      42.579 -10.671   3.911  1.00  0.00     0.050 C 
HETATM    2  C   UNL     1      42.871 -11.915   4.691  1.00  0.00    -0.035 A 
HETATM    3  C   UNL     1      42.266 -13.137   4.444  1.00  0.00     0.051 A 
HETATM    4  C   UNL     1      42.569 -14.292   5.183  1.00  0.00     0.018 A 
HETATM    5  C   UNL     1      41.724 -15.442   4.694  1.00  0.00     0.199 A 
HETATM    6  C   UNL     1      40.882 -14.750   3.571  1.00  0.00     0.266 A 
HETATM    7  O   UNL     1      39.964 -15.242   2.929  1.00  0.00    -0.269 OA
HETATM    8  N   UNL     1      41.296 -13.425   3.491  1.00  0.00    -0.323 N 
HETATM    9  C   UNL     1      43.489 -14.243   6.220  1.00  0.00     0.013 A 
HETATM   10  C   UNL     1      44.125 -13.028   6.480  1.00  0.00     0.001 A 
HETATM   11  C   UNL     1      43.824 -11.881   5.723  1.00  0.00     0.009 A 
HETATM   12  H   UNL     1      40.873 -12.767   2.856  1.00  0.00     0.169 HD
ENDROOT
BRANCH   5  13
HETATM   13  O   UNL     1      40.900 -15.858   5.779  1.00  0.00    -0.371 OA
HETATM   14  H   UNL     1      40.204 -16.397   5.367  1.00  0.00     0.212 HD
ENDBRANCH   5  13
BRANCH   5  15
HETATM   15  C   UNL     1      42.588 -16.557   4.130  1.00  0.00     0.025 A 
HETATM   16  C   UNL     1      43.069 -17.769   4.773  1.00  0.00     0.003 A 
HETATM   17  C   UNL     1      43.838 -18.469   3.841  1.00  0.00     0.043 A 
HETATM   18  C   UNL     1      42.937 -18.352   6.056  1.00  0.00     0.014 A 
HETATM   19  C   UNL     1      44.448 -19.701   4.108  1.00  0.00     0.030 A 
HETATM   20  N   UNL     1      43.863 -17.722   2.694  1.00  0.00    -0.359 N 
HETATM   21  C   UNL     1      44.278 -20.253   5.379  1.00  0.00     0.002 A 
HETATM   22  C   UNL     1      43.533 -19.588   6.343  1.00  0.00     0.001 A 
HETATM   23  H   UNL     1      44.368 -17.986   1.858  1.00  0.00     0.166 HD
HETATM   24  C   UNL     1      43.155 -16.562   2.851  1.00  0.00     0.016 A 
HETATM   25  C   UNL     1      43.109 -15.565   1.747  1.00  0.00     0.069 C 
ENDBRANCH   5  15
TORSDOF 2
ENDMDL
MODEL 10
REMARK VINA RESULT:      -7.4      2.443      5.031
REMARK  2 active torsions:
REMARK  status: ('A' for Active; 'I' for Inactive)
REMARK    1  A    between atoms: C_5  and  O_6 
REMARK    2  A    between atoms: C_5  and  C_7 
ROOT
HETATM    1  C   UNL     1      43.299 -18.492   2.954  1.00  0.00     0.050 C 
HETATM    2  C   UNL     1      43.004 -17.027   2.859  1.00  0.00    -0.035 A 
HETATM    3  C   UNL     1      42.304 -16.319   3.824  1.00  0.00     0.051 A 
HETATM    4  C   UNL     1      42.053 -14.943   3.716  1.00  0.00     0.018 A 
HETATM    5  C   UNL     1      41.247 -14.480   4.903  1.00  0.00     0.199 A 
HETATM    6  C   UNL     1      41.066 -15.819   5.694  1.00  0.00     0.266 A 
HETATM    7  O   UNL     1      40.389 -15.997   6.697  1.00  0.00    -0.269 OA
HETATM    8  N   UNL     1      41.742 -16.814   4.995  1.00  0.00    -0.323 N 
HETATM    9  C   UNL     1      42.489 -14.232   2.607  1.00  0.00     0.013 A 
HETATM   10  C   UNL     1      43.210 -14.917   1.627  1.00  0.00     0.001 A 
HETATM   11  C   UNL     1      43.468 -16.295   1.754  1.00  0.00     0.009 A 
HETATM   12  H   UNL     1      41.743 -17.775   5.295  1.00  0.00     0.169 HD
ENDROOT
BRANCH   5  13
HETATM   13  O   UNL     1      40.001 -13.996   4.412  1.00  0.00    -0.371 OA
HETATM   14  H   UNL     1      40.147 -13.047   4.262  1.00  0.00     0.212 HD
ENDBRANCH   5  13
BRANCH   5  15
HETATM   15  C   UNL     1      42.012 -13.454   5.721  1.00  0.00     0.025 A 
HETATM   16  C   UNL     1      41.809 -12.018   5.828  1.00  0.00     0.003 A 
HETATM   17  C   UNL     1      42.779 -11.514   6.696  1.00  0.00     0.043 A 
HETATM   18  C   UNL     1      40.900 -11.083   5.276  1.00  0.00     0.014 A 
HETATM   19  C   UNL     1      42.875 -10.162   7.051  1.00  0.00     0.030 A 
HETATM   20  N   UNL     1      43.563 -12.567   7.083  1.00  0.00    -0.359 N 
HETATM   21  C   UNL     1      41.949  -9.275   6.501  1.00  0.00     0.002 A 
HETATM   22  C   UNL     1      40.974  -9.727   5.623  1.00  0.00     0.001 A 
HETATM   23  H   UNL     1      44.360 -12.483   7.700  1.00  0.00     0.166 HD
HETATM   24  C   UNL     1      43.149 -13.729   6.490  1.00  0.00     0.016 A 
HETATM   25  C   UNL     1      43.907 -14.990   6.717  1.00  0.00     0.069 C 
ENDBRANCH   5  15
TORSDOF 2
ENDMDL
