MODEL 1
REMARK VINA RESULT:      -9.8      0.000      0.000
REMARK  7 active torsions:
REMARK  status: ('A' for Active; 'I' for Inactive)
REMARK    1  A    between atoms: O_2  and  C_3 
REMARK    2  A    between atoms: C_6  and  C_11 
REMARK    3  A    between atoms: C_8  and  O_9 
REMARK       I    between atoms: C_11  and  N_13 
REMARK    4  A    between atoms: N_13  and  C_14 
REMARK    5  A    between atoms: C_14  and  C_16 
REMARK    6  A    between atoms: C_20  and  C_22 
REMARK       I    between atoms: C_22  and  N_24 
REMARK    7  A    between atoms: N_24  and  C_25 
ROOT
HETATM    1  C   UNL     1      43.491 -10.621   7.335  1.00  0.00    -0.035 A 
HETATM    2  C   UNL     1      42.812  -9.591   6.660  1.00  0.00     0.009 A 
HETATM    3  C   UNL     1      41.945  -9.876   5.607  1.00  0.00     0.002 A 
HETATM    4  C   UNL     1      41.758 -11.194   5.198  1.00  0.00     0.017 A 
HETATM    5  C   UNL     1      42.442 -12.237   5.835  1.00  0.00     0.033 A 
HETATM    6  C   UNL     1      43.296 -11.946   6.909  1.00  0.00     0.026 A 
ENDROOT
BRANCH   1   7
HETATM    7  C   UNL     1      44.446 -10.269   8.463  1.00  0.00     0.114 C 
HETATM    8  C   UNL     1      45.637  -9.395   8.065  1.00  0.00     0.037 C 
BRANCH   7   9
HETATM    9  N   UNL     1      43.712  -9.783   9.626  1.00  0.00    -0.349 N 
HETATM   10  C   UNL     1      43.895 -10.242  10.913  1.00  0.00     0.252 C 
HETATM   11  O   UNL     1      44.662 -11.155  11.205  1.00  0.00    -0.268 OA
HETATM   12  H   UNL     1      43.264  -8.889   9.498  1.00  0.00     0.163 HD
BRANCH  10  13
HETATM   13  C   UNL     1      43.126  -9.554  11.998  1.00  0.00     0.034 A 
HETATM   14  C   UNL     1      43.620  -8.340  12.485  1.00  0.00     0.020 A 
HETATM   15  C   UNL     1      42.948  -7.650  13.500  1.00  0.00     0.040 A 
HETATM   16  C   UNL     1      41.759  -8.150  14.046  1.00  0.00     0.101 A 
HETATM   17  C   UNL     1      41.255  -9.369  13.558  1.00  0.00     0.102 A 
HETATM   18  C   UNL     1      41.954 -10.070  12.560  1.00  0.00     0.056 A 
BRANCH  16  19
HETATM   19  O   UNL     1      41.082  -7.533  15.062  1.00  0.00    -0.353 OA
HETATM   20  C   UNL     1      40.915  -6.122  14.997  1.00  0.00     0.210 C 
ENDBRANCH  16  19
BRANCH  17  21
HETATM   21  O   UNL     1      40.123 -10.032  13.964  1.00  0.00    -0.353 OA
HETATM   22  C   UNL     1      39.373 -10.724  12.974  1.00  0.00     0.210 C 
ENDBRANCH  17  21
ENDBRANCH  10  13
ENDBRANCH   7   9
ENDBRANCH   1   7
BRANCH   5  23
HETATM   23  C   UNL     1      42.203 -13.629   5.349  1.00  0.00     0.256 C 
HETATM   24  O   UNL     1      41.238 -14.233   5.806  1.00  0.00    -0.267 OA
HETATM   25  N   UNL     1      43.087 -14.096   4.390  1.00  0.00    -0.323 N 
HETATM   26  H   UNL     1      43.781 -13.447   4.040  1.00  0.00     0.169 HD
BRANCH  25  27
HETATM   27  C   UNL     1      43.088 -15.372   3.782  1.00  0.00     0.035 A 
HETATM   28  C   UNL     1      42.678 -15.610   2.470  1.00  0.00     0.030 A 
HETATM   29  C   UNL     1      42.718 -16.901   1.934  1.00  0.00     0.010 A 
HETATM   30  C   UNL     1      43.170 -17.976   2.704  1.00  0.00    -0.048 A 
HETATM   31  C   UNL     1      43.175 -19.370   2.130  1.00  0.00     0.069 C 
HETATM   32  C   UNL     1      43.559 -17.760   4.035  1.00  0.00    -0.022 A 
HETATM   33  C   UNL     1      44.034 -20.340   2.951  1.00  0.00     0.277 C 
HETATM   34  N   UNL     1      43.706 -20.236   4.379  1.00  0.00     0.088 N 
HETATM   35  C   UNL     1      44.381 -21.281   5.146  1.00  0.00     0.310 C 
HETATM   36  C   UNL     1      44.079 -18.903   4.885  1.00  0.00     0.311 C 
HETATM   37  C   UNL     1      43.526 -16.455   4.559  1.00  0.00     0.039 A 
ENDBRANCH  25  27
ENDBRANCH   5  23
TORSDOF 7
ENDMDL
MODEL 2
REMARK VINA RESULT:      -9.5      2.247     11.943
REMARK  7 active torsions:
REMARK  status: ('A' for Active; 'I' for Inactive)
REMARK    1  A    between atoms: O_2  and  C_3 
REMARK    2  A    between atoms: C_6  and  C_11 
REMARK    3  A    between atoms: C_8  and  O_9 
REMARK       I    between atoms: C_11  and  N_13 
REMARK    4  A    between atoms: N_13  and  C_14 
REMARK    5  A    between atoms: C_14  and  C_16 
REMARK    6  A    between atoms: C_20  and  C_22 
REMARK       I    between atoms: C_22  and  N_24 
REMARK    7  A    between atoms: N_24  and  C_25 
ROOT
HETATM    1  C   UNL     1      43.868 -11.676   6.515  1.00  0.00    -0.035 A 
HETATM    2  C   UNL     1      45.159 -11.625   5.960  1.00  0.00     0.009 A 
HETATM    3  C   UNL     1      46.222 -11.070   6.670  1.00  0.00     0.002 A 
HETATM    4  C   UNL     1      46.008 -10.540   7.940  1.00  0.00     0.017 A 
HETATM    5  C   UNL     1      44.727 -10.554   8.507  1.00  0.00     0.033 A 
HETATM    6  C   UNL     1      43.666 -11.133   7.796  1.00  0.00     0.026 A 
ENDROOT
BRANCH   1   7
HETATM    7  C   UNL     1      42.730 -12.267   5.701  1.00  0.00     0.114 C 
HETATM    8  C   UNL     1      42.102 -11.325   4.671  1.00  0.00     0.037 C 
BRANCH   7   9
HETATM    9  N   UNL     1      43.103 -13.571   5.165  1.00  0.00    -0.349 N 
HETATM   10  C   UNL     1      42.268 -14.667   5.125  1.00  0.00     0.252 C 
HETATM   11  O   UNL     1      41.132 -14.672   5.590  1.00  0.00    -0.268 OA
HETATM   12  H   UNL     1      43.909 -13.563   4.559  1.00  0.00     0.163 HD
BRANCH  10  13
HETATM   13  C   UNL     1      42.787 -15.895   4.444  1.00  0.00     0.034 A 
HETATM   14  C   UNL     1      42.667 -15.978   3.054  1.00  0.00     0.020 A 
HETATM   15  C   UNL     1      43.131 -17.101   2.360  1.00  0.00     0.040 A 
HETATM   16  C   UNL     1      43.738 -18.166   3.037  1.00  0.00     0.101 A 
HETATM   17  C   UNL     1      43.866 -18.088   4.436  1.00  0.00     0.102 A 
HETATM   18  C   UNL     1      43.368 -16.969   5.127  1.00  0.00     0.056 A 
BRANCH  16  19
HETATM   19  O   UNL     1      44.178 -19.301   2.413  1.00  0.00    -0.353 OA
HETATM   20  C   UNL     1      43.213 -20.275   2.036  1.00  0.00     0.210 C 
ENDBRANCH  16  19
BRANCH  17  21
HETATM   21  O   UNL     1      44.413 -19.021   5.282  1.00  0.00    -0.353 OA
HETATM   22  C   UNL     1      43.530 -19.945   5.905  1.00  0.00     0.210 C 
ENDBRANCH  17  21
ENDBRANCH  10  13
ENDBRANCH   7   9
ENDBRANCH   1   7
BRANCH   5  23
HETATM   23  C   UNL     1      44.559  -9.968   9.870  1.00  0.00     0.256 C 
HETATM   24  O   UNL     1      45.575  -9.665  10.488  1.00  0.00    -0.267 OA
HETATM   25  N   UNL     1      43.253  -9.787  10.296  1.00  0.00    -0.323 N 
HETATM   26  H   UNL     1      42.514  -9.999   9.636  1.00  0.00     0.169 HD
BRANCH  25  27
HETATM   27  C   UNL     1      42.827  -9.268  11.539  1.00  0.00     0.035 A 
HETATM   28  C   UNL     1      42.555 -10.054  12.659  1.00  0.00     0.030 A 
HETATM   29  C   UNL     1      42.147  -9.467  13.860  1.00  0.00     0.010 A 
HETATM   30  C   UNL     1      42.005  -8.080  13.961  1.00  0.00    -0.048 A 
HETATM   31  C   UNL     1      41.529  -7.458  15.249  1.00  0.00     0.069 C 
HETATM   32  C   UNL     1      42.245  -7.276  12.836  1.00  0.00    -0.022 A 
HETATM   33  C   UNL     1      41.788  -5.947  15.302  1.00  0.00     0.277 C 
HETATM   34  N   UNL     1      41.323  -5.301  14.068  1.00  0.00     0.088 N 
HETATM   35  C   UNL     1      41.394  -3.846  14.183  1.00  0.00     0.310 C 
HETATM   36  C   UNL     1      42.125  -5.767  12.922  1.00  0.00     0.311 C 
HETATM   37  C   UNL     1      42.667  -7.878  11.636  1.00  0.00     0.039 A 
ENDBRANCH  25  27
ENDBRANCH   5  23
TORSDOF 7
ENDMDL
MODEL 3
REMARK VINA RESULT:      -9.3      3.558     10.334
REMARK  7 active torsions:
REMARK  status: ('A' for Active; 'I' for Inactive)
REMARK    1  A    between atoms: O_2  and  C_3 
REMARK    2  A    between atoms: C_6  and  C_11 
REMARK    3  A    between atoms: C_8  and  O_9 
REMARK       I    between atoms: C_11  and  N_13 
REMARK    4  A    between atoms: N_13  and  C_14 
REMARK    5  A    between atoms: C_14  and  C_16 
REMARK    6  A    between atoms: C_20  and  C_22 
REMARK       I    between atoms: C_22  and  N_24 
REMARK    7  A    between atoms: N_24  and  C_25 
ROOT
HETATM    1  C   UNL     1      40.941 -12.778   1.078  1.00  0.00    -0.035 A 
HETATM    2  C   UNL     1      40.854 -11.860   0.017  1.00  0.00     0.009 A 
HETATM    3  C   UNL     1      41.248 -10.534   0.186  1.00  0.00     0.002 A 
HETATM    4  C   UNL     1      41.717 -10.099   1.423  1.00  0.00     0.017 A 
HETATM    5  C   UNL     1      41.788 -10.987   2.505  1.00  0.00     0.033 A 
HETATM    6  C   UNL     1      41.411 -12.325   2.323  1.00  0.00     0.026 A 
ENDROOT
BRANCH   1   7
HETATM    7  C   UNL     1      40.481 -14.210   0.864  1.00  0.00     0.114 C 
HETATM    8  C   UNL     1      40.159 -14.585  -0.585  1.00  0.00     0.037 C 
BRANCH   7   9
HETATM    9  N   UNL     1      41.376 -15.145   1.535  1.00  0.00    -0.349 N 
HETATM   10  C   UNL     1      41.117 -15.736   2.754  1.00  0.00     0.252 C 
HETATM   11  O   UNL     1      40.122 -15.490   3.429  1.00  0.00    -0.268 OA
HETATM   12  H   UNL     1      42.069 -15.568   0.938  1.00  0.00     0.163 HD
BRANCH  10  13
HETATM   13  C   UNL     1      42.104 -16.750   3.243  1.00  0.00     0.034 A 
HETATM   14  C   UNL     1      42.552 -17.720   2.342  1.00  0.00     0.020 A 
HETATM   15  C   UNL     1      43.472 -18.697   2.739  1.00  0.00     0.040 A 
HETATM   16  C   UNL     1      43.977 -18.721   4.045  1.00  0.00     0.101 A 
HETATM   17  C   UNL     1      43.533 -17.745   4.957  1.00  0.00     0.102 A 
HETATM   18  C   UNL     1      42.585 -16.788   4.556  1.00  0.00     0.056 A 
BRANCH  16  19
HETATM   19  O   UNL     1      44.851 -19.673   4.495  1.00  0.00    -0.353 OA
HETATM   20  C   UNL     1      44.316 -20.825   5.136  1.00  0.00     0.210 C 
ENDBRANCH  16  19
BRANCH  17  21
HETATM   21  O   UNL     1      43.891 -17.603   6.274  1.00  0.00    -0.353 OA
HETATM   22  C   UNL     1      44.524 -16.390   6.660  1.00  0.00     0.210 C 
ENDBRANCH  17  21
ENDBRANCH  10  13
ENDBRANCH   7   9
ENDBRANCH   1   7
BRANCH   5  23
HETATM   23  C   UNL     1      42.295 -10.461   3.807  1.00  0.00     0.256 C 
HETATM   24  O   UNL     1      41.933  -9.339   4.147  1.00  0.00    -0.267 OA
HETATM   25  N   UNL     1      43.108 -11.318   4.531  1.00  0.00    -0.323 N 
HETATM   26  H   UNL     1      43.244 -12.252   4.165  1.00  0.00     0.169 HD
BRANCH  25  27
HETATM   27  C   UNL     1      43.723 -11.058   5.777  1.00  0.00     0.035 A 
HETATM   28  C   UNL     1      45.064 -11.324   6.055  1.00  0.00     0.030 A 
HETATM   29  C   UNL     1      45.604 -11.030   7.309  1.00  0.00     0.010 A 
HETATM   30  C   UNL     1      44.810 -10.462   8.309  1.00  0.00    -0.048 A 
HETATM   31  C   UNL     1      45.392 -10.181   9.671  1.00  0.00     0.069 C 
HETATM   32  C   UNL     1      43.452 -10.215   8.059  1.00  0.00    -0.022 A 
HETATM   33  C   UNL     1      44.515  -9.235  10.502  1.00  0.00     0.277 C 
HETATM   34  N   UNL     1      43.116  -9.681  10.482  1.00  0.00     0.088 N 
HETATM   35  C   UNL     1      42.306  -8.900  11.415  1.00  0.00     0.310 C 
HETATM   36  C   UNL     1      42.572  -9.575   9.115  1.00  0.00     0.311 C 
HETATM   37  C   UNL     1      42.923 -10.504   6.787  1.00  0.00     0.039 A 
ENDBRANCH  25  27
ENDBRANCH   5  23
TORSDOF 7
ENDMDL
MODEL 4
REMARK VINA RESULT:      -9.0      2.356     11.873
REMARK  7 active torsions:
REMARK  status: ('A' for Active; 'I' for Inactive)
REMARK    1  A    between atoms: O_2  and  C_3 
REMARK    2  A    between atoms: C_6  and  C_11 
REMARK    3  A    between atoms: C_8  and  O_9 
REMARK       I    between atoms: C_11  and  N_13 
REMARK    4  A    between atoms: N_13  and  C_14 
REMARK    5  A    between atoms: C_14  and  C_16 
REMARK    6  A    between atoms: C_20  and  C_22 
REMARK       I    between atoms: C_22  and  N_24 
REMARK    7  A    between atoms: N_24  and  C_25 
ROOT
HETATM    1  C   UNL     1      44.054 -11.339   6.920  1.00  0.00    -0.035 A 
HETATM    2  C   UNL     1      45.419 -11.080   6.707  1.00  0.00     0.009 A 
HETATM    3  C   UNL     1      46.203 -10.510   7.708  1.00  0.00     0.002 A 
HETATM    4  C   UNL     1      45.631 -10.171   8.931  1.00  0.00     0.017 A 
HETATM    5  C   UNL     1      44.267 -10.393   9.161  1.00  0.00     0.033 A 
HETATM    6  C   UNL     1      43.488 -10.987   8.157  1.00  0.00     0.026 A 
ENDROOT
BRANCH   1   7
HETATM    7  C   UNL     1      43.226 -11.940   5.797  1.00  0.00     0.114 C 
HETATM    8  C   UNL     1      43.234 -11.154   4.483  1.00  0.00     0.037 C 
BRANCH   7   9
HETATM    9  N   UNL     1      43.521 -13.360   5.643  1.00  0.00    -0.349 N 
HETATM   10  C   UNL     1      42.661 -14.378   5.996  1.00  0.00     0.252 C 
HETATM   11  O   UNL     1      41.572 -14.193   6.531  1.00  0.00    -0.268 OA
HETATM   12  H   UNL     1      44.268 -13.568   4.999  1.00  0.00     0.163 HD
BRANCH  10  13
HETATM   13  C   UNL     1      43.090 -15.775   5.670  1.00  0.00     0.034 A 
HETATM   14  C   UNL     1      43.276 -16.670   6.729  1.00  0.00     0.020 A 
HETATM   15  C   UNL     1      43.677 -17.989   6.490  1.00  0.00     0.040 A 
HETATM   16  C   UNL     1      43.892 -18.451   5.185  1.00  0.00     0.101 A 
HETATM   17  C   UNL     1      43.704 -17.557   4.115  1.00  0.00     0.102 A 
HETATM   18  C   UNL     1      43.330 -16.226   4.368  1.00  0.00     0.056 A 
BRANCH  16  19
HETATM   19  O   UNL     1      44.318 -19.719   4.898  1.00  0.00    -0.353 OA
HETATM   20  C   UNL     1      43.748 -20.799   5.627  1.00  0.00     0.210 C 
ENDBRANCH  16  19
BRANCH  17  21
HETATM   21  O   UNL     1      43.873 -17.805   2.775  1.00  0.00    -0.353 OA
HETATM   22  C   UNL     1      42.949 -18.681   2.144  1.00  0.00     0.210 C 
ENDBRANCH  17  21
ENDBRANCH  10  13
ENDBRANCH   7   9
ENDBRANCH   1   7
BRANCH   5  23
HETATM   23  C   UNL     1      43.710 -10.005  10.491  1.00  0.00     0.256 C 
HETATM   24  O   UNL     1      43.595 -10.885  11.338  1.00  0.00    -0.267 OA
HETATM   25  N   UNL     1      43.405  -8.663  10.652  1.00  0.00    -0.323 N 
HETATM   26  H   UNL     1      43.643  -8.037   9.893  1.00  0.00     0.169 HD
BRANCH  25  27
HETATM   27  C   UNL     1      42.858  -8.046  11.800  1.00  0.00     0.035 A 
HETATM   28  C   UNL     1      43.531  -7.926  13.016  1.00  0.00     0.030 A 
HETATM   29  C   UNL     1      42.927  -7.292  14.105  1.00  0.00     0.010 A 
HETATM   30  C   UNL     1      41.637  -6.766  13.996  1.00  0.00    -0.048 A 
HETATM   31  C   UNL     1      40.979  -6.117  15.186  1.00  0.00     0.069 C 
HETATM   32  C   UNL     1      40.933  -6.904  12.789  1.00  0.00    -0.022 A 
HETATM   33  C   UNL     1      39.753  -5.281  14.797  1.00  0.00     0.277 C 
HETATM   34  N   UNL     1      38.866  -6.049  13.914  1.00  0.00     0.088 N 
HETATM   35  C   UNL     1      37.611  -5.334  13.688  1.00  0.00     0.310 C 
HETATM   36  C   UNL     1      39.543  -6.320  12.632  1.00  0.00     0.311 C 
HETATM   37  C   UNL     1      41.557  -7.534  11.696  1.00  0.00     0.039 A 
ENDBRANCH  25  27
ENDBRANCH   5  23
TORSDOF 7
ENDMDL
MODEL 5
REMARK VINA RESULT:      -9.0      2.360      3.800
REMARK  7 active torsions:
REMARK  status: ('A' for Active; 'I' for Inactive)
REMARK    1  A    between atoms: O_2  and  C_3 
REMARK    2  A    between atoms: C_6  and  C_11 
REMARK    3  A    between atoms: C_8  and  O_9 
REMARK       I    between atoms: C_11  and  N_13 
REMARK    4  A    between atoms: N_13  and  C_14 
REMARK    5  A    between atoms: C_14  and  C_16 
REMARK    6  A    between atoms: C_20  and  C_22 
REMARK       I    between atoms: C_22  and  N_24 
REMARK    7  A    between atoms: N_24  and  C_25 
ROOT
HETATM    1  C   UNL     1      42.831  -9.223   9.779  1.00  0.00    -0.035 A 
HETATM    2  C   UNL     1      43.948  -8.967  10.593  1.00  0.00     0.009 A 
HETATM    3  C   UNL     1      45.175  -9.575  10.335  1.00  0.00     0.002 A 
HETATM    4  C   UNL     1      45.301 -10.462   9.269  1.00  0.00     0.017 A 
HETATM    5  C   UNL     1      44.197 -10.755   8.457  1.00  0.00     0.033 A 
HETATM    6  C   UNL     1      42.970 -10.125   8.710  1.00  0.00     0.026 A 
ENDROOT
BRANCH   1   7
HETATM    7  C   UNL     1      41.504  -8.560  10.106  1.00  0.00     0.114 C 
HETATM    8  C   UNL     1      40.266  -9.251   9.527  1.00  0.00     0.037 C 
BRANCH   7   9
HETATM    9  N   UNL     1      41.411  -8.270  11.532  1.00  0.00    -0.349 N 
HETATM   10  C   UNL     1      41.043  -7.050  12.058  1.00  0.00     0.252 C 
HETATM   11  O   UNL     1      40.806  -6.059  11.373  1.00  0.00    -0.268 OA
HETATM   12  H   UNL     1      41.349  -9.083  12.125  1.00  0.00     0.163 HD
BRANCH  10  13
HETATM   13  C   UNL     1      40.902  -6.964  13.546  1.00  0.00     0.034 A 
HETATM   14  C   UNL     1      41.987  -7.362  14.334  1.00  0.00     0.020 A 
HETATM   15  C   UNL     1      41.916  -7.306  15.730  1.00  0.00     0.040 A 
HETATM   16  C   UNL     1      40.763  -6.840  16.375  1.00  0.00     0.101 A 
HETATM   17  C   UNL     1      39.670  -6.435  15.589  1.00  0.00     0.102 A 
HETATM   18  C   UNL     1      39.739  -6.524  14.188  1.00  0.00     0.056 A 
BRANCH  16  19
HETATM   19  O   UNL     1      40.629  -6.797  17.736  1.00  0.00    -0.353 OA
HETATM   20  C   UNL     1      40.314  -8.006  18.417  1.00  0.00     0.210 C 
ENDBRANCH  16  19
BRANCH  17  21
HETATM   21  O   UNL     1      38.454  -5.964  16.020  1.00  0.00    -0.353 OA
HETATM   22  C   UNL     1      38.023  -4.701  15.530  1.00  0.00     0.210 C 
ENDBRANCH  17  21
ENDBRANCH  10  13
ENDBRANCH   7   9
ENDBRANCH   1   7
BRANCH   5  23
HETATM   23  C   UNL     1      44.393 -11.718   7.333  1.00  0.00     0.256 C 
HETATM   24  O   UNL     1      45.460 -11.678   6.729  1.00  0.00    -0.267 OA
HETATM   25  N   UNL     1      43.349 -12.599   7.100  1.00  0.00    -0.323 N 
HETATM   26  H   UNL     1      42.567 -12.575   7.743  1.00  0.00     0.169 HD
BRANCH  25  27
HETATM   27  C   UNL     1      43.279 -13.591   6.096  1.00  0.00     0.035 A 
HETATM   28  C   UNL     1      42.910 -13.337   4.775  1.00  0.00     0.030 A 
HETATM   29  C   UNL     1      42.874 -14.369   3.833  1.00  0.00     0.010 A 
HETATM   30  C   UNL     1      43.209 -15.676   4.199  1.00  0.00    -0.048 A 
HETATM   31  C   UNL     1      43.132 -16.790   3.186  1.00  0.00     0.069 C 
HETATM   32  C   UNL     1      43.553 -15.956   5.531  1.00  0.00    -0.022 A 
HETATM   33  C   UNL     1      43.877 -18.051   3.643  1.00  0.00     0.277 C 
HETATM   34  N   UNL     1      43.495 -18.406   5.016  1.00  0.00     0.088 N 
HETATM   35  C   UNL     1      44.053 -19.702   5.393  1.00  0.00     0.310 C 
HETATM   36  C   UNL     1      43.946 -17.358   5.951  1.00  0.00     0.311 C 
HETATM   37  C   UNL     1      43.597 -14.905   6.466  1.00  0.00     0.039 A 
ENDBRANCH  25  27
ENDBRANCH   5  23
TORSDOF 7
ENDMDL
MODEL 6
REMARK VINA RESULT:      -8.9      2.575     11.877
REMARK  7 active torsions:
REMARK  status: ('A' for Active; 'I' for Inactive)
REMARK    1  A    between atoms: O_2  and  C_3 
REMARK    2  A    between atoms: C_6  and  C_11 
REMARK    3  A    between atoms: C_8  and  O_9 
REMARK       I    between atoms: C_11  and  N_13 
REMARK    4  A    between atoms: N_13  and  C_14 
REMARK    5  A    between atoms: C_14  and  C_16 
REMARK    6  A    between atoms: C_20  and  C_22 
REMARK       I    between atoms: C_22  and  N_24 
REMARK    7  A    between atoms: N_24  and  C_25 
ROOT
HETATM    1  C   UNL     1      43.234 -11.412   5.663  1.00  0.00    -0.035 A 
HETATM    2  C   UNL     1      44.531 -11.828   6.012  1.00  0.00     0.009 A 
HETATM    3  C   UNL     1      45.152 -11.342   7.161  1.00  0.00     0.002 A 
HETATM    4  C   UNL     1      44.495 -10.418   7.969  1.00  0.00     0.017 A 
HETATM    5  C   UNL     1      43.212  -9.967   7.631  1.00  0.00     0.033 A 
HETATM    6  C   UNL     1      42.583 -10.476   6.485  1.00  0.00     0.026 A 
ENDROOT
BRANCH   1   7
HETATM    7  C   UNL     1      42.598 -11.946   4.390  1.00  0.00     0.114 C 
HETATM    8  C   UNL     1      42.737 -11.044   3.160  1.00  0.00     0.037 C 
BRANCH   7   9
HETATM    9  N   UNL     1      42.990 -13.332   4.160  1.00  0.00    -0.349 N 
HETATM   10  C   UNL     1      42.267 -14.428   4.579  1.00  0.00     0.252 C 
HETATM   11  O   UNL     1      41.238 -14.348   5.243  1.00  0.00    -0.268 OA
HETATM   12  H   UNL     1      43.671 -13.460   3.428  1.00  0.00     0.163 HD
BRANCH  10  13
HETATM   13  C   UNL     1      42.770 -15.775   4.164  1.00  0.00     0.034 A 
HETATM   14  C   UNL     1      43.017 -15.996   2.806  1.00  0.00     0.020 A 
HETATM   15  C   UNL     1      43.487 -17.234   2.355  1.00  0.00     0.040 A 
HETATM   16  C   UNL     1      43.731 -18.282   3.252  1.00  0.00     0.101 A 
HETATM   17  C   UNL     1      43.488 -18.066   4.621  1.00  0.00     0.102 A 
HETATM   18  C   UNL     1      42.987 -16.828   5.060  1.00  0.00     0.056 A 
BRANCH  16  19
HETATM   19  O   UNL     1      44.157 -19.522   2.861  1.00  0.00    -0.353 OA
HETATM   20  C   UNL     1      43.326 -20.269   1.982  1.00  0.00     0.210 C 
ENDBRANCH  16  19
BRANCH  17  21
HETATM   21  O   UNL     1      43.649 -18.957   5.653  1.00  0.00    -0.353 OA
HETATM   22  C   UNL     1      43.493 -18.468   6.978  1.00  0.00     0.210 C 
ENDBRANCH  17  21
ENDBRANCH  10  13
ENDBRANCH   7   9
ENDBRANCH   1   7
BRANCH   5  23
HETATM   23  C   UNL     1      42.560  -8.973   8.534  1.00  0.00     0.256 C 
HETATM   24  O   UNL     1      41.390  -8.681   8.308  1.00  0.00    -0.267 OA
HETATM   25  N   UNL     1      43.339  -8.498   9.576  1.00  0.00    -0.323 N 
HETATM   26  H   UNL     1      44.260  -8.903   9.691  1.00  0.00     0.169 HD
BRANCH  25  27
HETATM   27  C   UNL     1      42.967  -7.549  10.554  1.00  0.00     0.035 A 
HETATM   28  C   UNL     1      42.707  -6.206  10.278  1.00  0.00     0.030 A 
HETATM   29  C   UNL     1      42.333  -5.328  11.299  1.00  0.00     0.010 A 
HETATM   30  C   UNL     1      42.209  -5.780  12.616  1.00  0.00    -0.048 A 
HETATM   31  C   UNL     1      41.840  -4.818  13.716  1.00  0.00     0.069 C 
HETATM   32  C   UNL     1      42.495  -7.121  12.918  1.00  0.00    -0.022 A 
HETATM   33  C   UNL     1      41.389  -5.534  14.995  1.00  0.00     0.277 C 
HETATM   34  N   UNL     1      42.345  -6.588  15.360  1.00  0.00     0.088 N 
HETATM   35  C   UNL     1      42.027  -7.150  16.670  1.00  0.00     0.310 C 
HETATM   36  C   UNL     1      42.344  -7.646  14.332  1.00  0.00     0.311 C 
HETATM   37  C   UNL     1      42.860  -7.997  11.879  1.00  0.00     0.039 A 
ENDBRANCH  25  27
ENDBRANCH   5  23
TORSDOF 7
ENDMDL
MODEL 7
REMARK VINA RESULT:      -8.8      2.756      4.300
REMARK  7 active torsions:
REMARK  status: ('A' for Active; 'I' for Inactive)
REMARK    1  A    between atoms: O_2  and  C_3 
REMARK    2  A    between atoms: C_6  and  C_11 
REMARK    3  A    between atoms: C_8  and  O_9 
REMARK       I    between atoms: C_11  and  N_13 
REMARK    4  A    between atoms: N_13  and  C_14 
REMARK    5  A    between atoms: C_14  and  C_16 
REMARK    6  A    between atoms: C_20  and  C_22 
REMARK       I    between atoms: C_22  and  N_24 
REMARK    7  A    between atoms: N_24  and  C_25 
ROOT
HETATM    1  C   UNL     1      43.051  -9.169   9.723  1.00  0.00    -0.035 A 
HETATM    2  C   UNL     1      44.209  -8.929  10.484  1.00  0.00     0.009 A 
HETATM    3  C   UNL     1      45.403  -9.586  10.195  1.00  0.00     0.002 A 
HETATM    4  C   UNL     1      45.455 -10.509   9.154  1.00  0.00     0.017 A 
HETATM    5  C   UNL     1      44.310 -10.787   8.396  1.00  0.00     0.033 A 
HETATM    6  C   UNL     1      43.117 -10.106   8.677  1.00  0.00     0.026 A 
ENDROOT
BRANCH   1   7
HETATM    7  C   UNL     1      41.762  -8.451  10.082  1.00  0.00     0.114 C 
HETATM    8  C   UNL     1      40.482  -9.088   9.534  1.00  0.00     0.037 C 
BRANCH   7   9
HETATM    9  N   UNL     1      41.716  -8.156  11.510  1.00  0.00    -0.349 N 
HETATM   10  C   UNL     1      41.373  -6.933  12.044  1.00  0.00     0.252 C 
HETATM   11  O   UNL     1      41.120  -5.942  11.364  1.00  0.00    -0.268 OA
HETATM   12  H   UNL     1      41.669  -8.967  12.105  1.00  0.00     0.163 HD
BRANCH  10  13
HETATM   13  C   UNL     1      41.280  -6.842  13.535  1.00  0.00     0.034 A 
HETATM   14  C   UNL     1      42.442  -7.065  14.281  1.00  0.00     0.020 A 
HETATM   15  C   UNL     1      42.420  -6.996  15.679  1.00  0.00     0.040 A 
HETATM   16  C   UNL     1      41.238  -6.691  16.366  1.00  0.00     0.101 A 
HETATM   17  C   UNL     1      40.067  -6.462  15.622  1.00  0.00     0.102 A 
HETATM   18  C   UNL     1      40.092  -6.565  14.220  1.00  0.00     0.056 A 
BRANCH  16  19
HETATM   19  O   UNL     1      41.153  -6.645  17.731  1.00  0.00    -0.353 OA
HETATM   20  C   UNL     1      42.314  -6.970  18.486  1.00  0.00     0.210 C 
ENDBRANCH  16  19
BRANCH  17  21
HETATM   21  O   UNL     1      38.814  -6.166  16.098  1.00  0.00    -0.353 OA
HETATM   22  C   UNL     1      38.212  -4.952  15.665  1.00  0.00     0.210 C 
ENDBRANCH  17  21
ENDBRANCH  10  13
ENDBRANCH   7   9
ENDBRANCH   1   7
BRANCH   5  23
HETATM   23  C   UNL     1      44.426 -11.789   7.295  1.00  0.00     0.256 C 
HETATM   24  O   UNL     1      45.355 -11.659   6.503  1.00  0.00    -0.267 OA
HETATM   25  N   UNL     1      43.483 -12.803   7.296  1.00  0.00    -0.323 N 
HETATM   26  H   UNL     1      42.832 -12.833   8.071  1.00  0.00     0.169 HD
BRANCH  25  27
HETATM   27  C   UNL     1      43.366 -13.859   6.363  1.00  0.00     0.035 A 
HETATM   28  C   UNL     1      43.921 -15.125   6.547  1.00  0.00     0.030 A 
HETATM   29  C   UNL     1      43.754 -16.123   5.583  1.00  0.00     0.010 A 
HETATM   30  C   UNL     1      43.026 -15.870   4.417  1.00  0.00    -0.048 A 
HETATM   31  C   UNL     1      42.881 -16.941   3.366  1.00  0.00     0.069 C 
HETATM   32  C   UNL     1      42.485 -14.593   4.201  1.00  0.00    -0.022 A 
HETATM   33  C   UNL     1      41.765 -16.630   2.360  1.00  0.00     0.277 C 
HETATM   34  N   UNL     1      41.891 -15.255   1.861  1.00  0.00     0.088 N 
HETATM   35  C   UNL     1      40.951 -15.008   0.769  1.00  0.00     0.310 C 
HETATM   36  C   UNL     1      41.667 -14.297   2.960  1.00  0.00     0.311 C 
HETATM   37  C   UNL     1      42.650 -13.601   5.185  1.00  0.00     0.039 A 
ENDBRANCH  25  27
ENDBRANCH   5  23
TORSDOF 7
ENDMDL
MODEL 8
REMARK VINA RESULT:      -8.8      3.547      5.273
REMARK  7 active torsions:
REMARK  status: ('A' for Active; 'I' for Inactive)
REMARK    1  A    between atoms: O_2  and  C_3 
REMARK    2  A    between atoms: C_6  and  C_11 
REMARK    3  A    between atoms: C_8  and  O_9 
REMARK       I    between atoms: C_11  and  N_13 
REMARK    4  A    between atoms: N_13  and  C_14 
REMARK    5  A    between atoms: C_14  and  C_16 
REMARK    6  A    between atoms: C_20  and  C_22 
REMARK       I    between atoms: C_22  and  N_24 
REMARK    7  A    between atoms: N_24  and  C_25 
ROOT
HETATM    1  C   UNL     1      43.431 -13.089   6.845  1.00  0.00    -0.035 A 
HETATM    2  C   UNL     1      43.270 -14.316   7.512  1.00  0.00     0.009 A 
HETATM    3  C   UNL     1      42.418 -15.297   7.009  1.00  0.00     0.002 A 
HETATM    4  C   UNL     1      41.697 -15.059   5.841  1.00  0.00     0.017 A 
HETATM    5  C   UNL     1      41.818 -13.835   5.171  1.00  0.00     0.033 A 
HETATM    6  C   UNL     1      42.694 -12.860   5.670  1.00  0.00     0.026 A 
ENDROOT
BRANCH   1   7
HETATM    7  C   UNL     1      44.352 -12.035   7.436  1.00  0.00     0.114 C 
HETATM    8  C   UNL     1      45.172 -11.236   6.420  1.00  0.00     0.037 C 
BRANCH   7   9
HETATM    9  N   UNL     1      43.637 -11.211   8.404  1.00  0.00    -0.349 N 
HETATM   10  C   UNL     1      44.212 -10.637   9.517  1.00  0.00     0.252 C 
HETATM   11  O   UNL     1      45.384 -10.808   9.840  1.00  0.00    -0.268 OA
HETATM   12  H   UNL     1      42.761 -10.837   8.074  1.00  0.00     0.163 HD
BRANCH  10  13
HETATM   13  C   UNL     1      43.348  -9.737  10.345  1.00  0.00     0.034 A 
HETATM   14  C   UNL     1      43.951  -9.015  11.380  1.00  0.00     0.020 A 
HETATM   15  C   UNL     1      43.196  -8.159  12.189  1.00  0.00     0.040 A 
HETATM   16  C   UNL     1      41.822  -7.993  11.978  1.00  0.00     0.101 A 
HETATM   17  C   UNL     1      41.210  -8.714  10.936  1.00  0.00     0.102 A 
HETATM   18  C   UNL     1      41.970  -9.595  10.148  1.00  0.00     0.056 A 
BRANCH  16  19
HETATM   19  O   UNL     1      41.032  -7.196  12.761  1.00  0.00    -0.353 OA
HETATM   20  C   UNL     1      41.650  -6.470  13.816  1.00  0.00     0.210 C 
ENDBRANCH  16  19
BRANCH  17  21
HETATM   21  O   UNL     1      39.885  -8.704  10.574  1.00  0.00    -0.353 OA
HETATM   22  C   UNL     1      39.565  -9.038   9.230  1.00  0.00     0.210 C 
ENDBRANCH  17  21
ENDBRANCH  10  13
ENDBRANCH   7   9
ENDBRANCH   1   7
BRANCH   5  23
HETATM   23  C   UNL     1      41.017 -13.638   3.926  1.00  0.00     0.256 C 
HETATM   24  O   UNL     1      39.978 -12.991   4.015  1.00  0.00    -0.267 OA
HETATM   25  N   UNL     1      41.550 -14.181   2.769  1.00  0.00    -0.323 N 
HETATM   26  H   UNL     1      42.466 -14.609   2.834  1.00  0.00     0.169 HD
BRANCH  25  27
HETATM   27  C   UNL     1      40.987 -14.147   1.474  1.00  0.00     0.035 A 
HETATM   28  C   UNL     1      40.237 -15.186   0.922  1.00  0.00     0.030 A 
HETATM   29  C   UNL     1      39.702 -15.074  -0.364  1.00  0.00     0.010 A 
HETATM   30  C   UNL     1      39.908 -13.918  -1.121  1.00  0.00    -0.048 A 
HETATM   31  C   UNL     1      39.358 -13.820  -2.522  1.00  0.00     0.069 C 
HETATM   32  C   UNL     1      40.685 -12.874  -0.595  1.00  0.00    -0.022 A 
HETATM   33  C   UNL     1      39.349 -12.380  -3.051  1.00  0.00     0.277 C 
HETATM   34  N   UNL     1      40.653 -11.742  -2.828  1.00  0.00     0.088 N 
HETATM   35  C   UNL     1      40.716 -10.441  -3.491  1.00  0.00     0.310 C 
HETATM   36  C   UNL     1      40.902 -11.597  -1.382  1.00  0.00     0.311 C 
HETATM   37  C   UNL     1      41.207 -12.994   0.706  1.00  0.00     0.039 A 
ENDBRANCH  25  27
ENDBRANCH   5  23
TORSDOF 7
ENDMDL
MODEL 9
REMARK VINA RESULT:      -8.6      4.017     10.536
REMARK  7 active torsions:
REMARK  status: ('A' for Active; 'I' for Inactive)
REMARK    1  A    between atoms: O_2  and  C_3 
REMARK    2  A    between atoms: C_6  and  C_11 
REMARK    3  A    between atoms: C_8  and  O_9 
REMARK       I    between atoms: C_11  and  N_13 
REMARK    4  A    between atoms: N_13  and  C_14 
REMARK    5  A    between atoms: C_14  and  C_16 
REMARK    6  A    between atoms: C_20  and  C_22 
REMARK       I    between atoms: C_22  and  N_24 
REMARK    7  A    between atoms: N_24  and  C_25 
ROOT
HETATM    1  C   UNL     1      43.563 -17.483   4.227  1.00  0.00    -0.035 A 
HETATM    2  C   UNL     1      43.588 -18.650   5.011  1.00  0.00     0.009 A 
HETATM    3  C   UNL     1      43.528 -18.579   6.401  1.00  0.00     0.002 A 
HETATM    4  C   UNL     1      43.460 -17.340   7.032  1.00  0.00     0.017 A 
HETATM    5  C   UNL     1      43.461 -16.160   6.277  1.00  0.00     0.033 A 
HETATM    6  C   UNL     1      43.500 -16.238   4.877  1.00  0.00     0.026 A 
ENDROOT
BRANCH   1   7
HETATM    7  C   UNL     1      43.655 -17.599   2.715  1.00  0.00     0.114 C 
HETATM    8  C   UNL     1      43.121 -18.906   2.124  1.00  0.00     0.037 C 
BRANCH   7   9
HETATM    9  N   UNL     1      43.132 -16.398   2.074  1.00  0.00    -0.349 N 
HETATM   10  C   UNL     1      41.803 -16.032   2.067  1.00  0.00     0.252 C 
HETATM   11  O   UNL     1      40.909 -16.715   2.558  1.00  0.00    -0.268 OA
HETATM   12  H   UNL     1      43.822 -15.690   1.878  1.00  0.00     0.163 HD
BRANCH  10  13
HETATM   13  C   UNL     1      41.462 -14.713   1.448  1.00  0.00     0.034 A 
HETATM   14  C   UNL     1      40.552 -14.699   0.387  1.00  0.00     0.020 A 
HETATM   15  C   UNL     1      40.193 -13.498  -0.235  1.00  0.00     0.040 A 
HETATM   16  C   UNL     1      40.728 -12.277   0.196  1.00  0.00     0.101 A 
HETATM   17  C   UNL     1      41.641 -12.283   1.266  1.00  0.00     0.102 A 
HETATM   18  C   UNL     1      42.018 -13.498   1.863  1.00  0.00     0.056 A 
BRANCH  16  19
HETATM   19  O   UNL     1      40.438 -11.079  -0.398  1.00  0.00    -0.353 OA
HETATM   20  C   UNL     1      39.246 -10.983  -1.168  1.00  0.00     0.210 C 
ENDBRANCH  16  19
BRANCH  17  21
HETATM   21  O   UNL     1      42.284 -11.206   1.826  1.00  0.00    -0.353 OA
HETATM   22  C   UNL     1      41.648 -10.551   2.915  1.00  0.00     0.210 C 
ENDBRANCH  17  21
ENDBRANCH  10  13
ENDBRANCH   7   9
ENDBRANCH   1   7
BRANCH   5  23
HETATM   23  C   UNL     1      43.391 -14.861   7.010  1.00  0.00     0.256 C 
HETATM   24  O   UNL     1      43.219 -14.902   8.224  1.00  0.00    -0.267 OA
HETATM   25  N   UNL     1      43.566 -13.721   6.242  1.00  0.00    -0.323 N 
HETATM   26  H   UNL     1      43.794 -13.849   5.264  1.00  0.00     0.169 HD
BRANCH  25  27
HETATM   27  C   UNL     1      43.532 -12.380   6.688  1.00  0.00     0.035 A 
HETATM   28  C   UNL     1      44.589 -11.751   7.346  1.00  0.00     0.030 A 
HETATM   29  C   UNL     1      44.485 -10.417   7.748  1.00  0.00     0.010 A 
HETATM   30  C   UNL     1      43.320  -9.687   7.496  1.00  0.00    -0.048 A 
HETATM   31  C   UNL     1      43.202  -8.260   7.966  1.00  0.00     0.069 C 
HETATM   32  C   UNL     1      42.235 -10.313   6.862  1.00  0.00    -0.022 A 
HETATM   33  C   UNL     1      42.044  -7.513   7.292  1.00  0.00     0.277 C 
HETATM   34  N   UNL     1      40.813  -8.311   7.353  1.00  0.00     0.088 N 
HETATM   35  C   UNL     1      39.666  -7.537   6.883  1.00  0.00     0.310 C 
HETATM   36  C   UNL     1      40.968  -9.539   6.552  1.00  0.00     0.311 C 
HETATM   37  C   UNL     1      42.357 -11.653   6.451  1.00  0.00     0.039 A 
ENDBRANCH  25  27
ENDBRANCH   5  23
TORSDOF 7
ENDMDL
MODEL 10
REMARK VINA RESULT:      -8.5      1.598      1.896
REMARK  7 active torsions:
REMARK  status: ('A' for Active; 'I' for Inactive)
REMARK    1  A    between atoms: O_2  and  C_3 
REMARK    2  A    between atoms: C_6  and  C_11 
REMARK    3  A    between atoms: C_8  and  O_9 
REMARK       I    between atoms: C_11  and  N_13 
REMARK    4  A    between atoms: N_13  and  C_14 
REMARK    5  A    between atoms: C_14  and  C_16 
REMARK    6  A    between atoms: C_20  and  C_22 
REMARK       I    between atoms: C_22  and  N_24 
REMARK    7  A    between atoms: N_24  and  C_25 
ROOT
HETATM    1  C   UNL     1      41.119  -9.789   6.775  1.00  0.00    -0.035 A 
HETATM    2  C   UNL     1      39.715  -9.869   6.780  1.00  0.00     0.009 A 
HETATM    3  C   UNL     1      39.057 -10.929   6.159  1.00  0.00     0.002 A 
HETATM    4  C   UNL     1      39.791 -11.916   5.506  1.00  0.00     0.017 A 
HETATM    5  C   UNL     1      41.189 -11.847   5.462  1.00  0.00     0.033 A 
HETATM    6  C   UNL     1      41.847 -10.789   6.107  1.00  0.00     0.026 A 
ENDROOT
BRANCH   1   7
HETATM    7  C   UNL     1      41.800  -8.606   7.442  1.00  0.00     0.114 C 
HETATM    8  C   UNL     1      41.440  -7.233   6.869  1.00  0.00     0.037 C 
BRANCH   7   9
HETATM    9  N   UNL     1      41.682  -8.695   8.893  1.00  0.00    -0.349 N 
HETATM   10  C   UNL     1      42.715  -8.463   9.776  1.00  0.00     0.252 C 
HETATM   11  O   UNL     1      43.864  -8.209   9.425  1.00  0.00    -0.268 OA
HETATM   12  H   UNL     1      40.738  -8.654   9.242  1.00  0.00     0.163 HD
BRANCH  10  13
HETATM   13  C   UNL     1      42.385  -8.499  11.236  1.00  0.00     0.034 A 
HETATM   14  C   UNL     1      43.310  -7.956  12.133  1.00  0.00     0.020 A 
HETATM   15  C   UNL     1      43.060  -7.961  13.510  1.00  0.00     0.040 A 
HETATM   16  C   UNL     1      41.874  -8.500  14.024  1.00  0.00     0.101 A 
HETATM   17  C   UNL     1      40.937  -9.045  13.127  1.00  0.00     0.102 A 
HETATM   18  C   UNL     1      41.212  -9.062  11.749  1.00  0.00     0.056 A 
BRANCH  16  19
HETATM   19  O   UNL     1      41.595  -8.561  15.363  1.00  0.00    -0.353 OA
HETATM   20  C   UNL     1      41.087  -7.393  15.996  1.00  0.00     0.210 C 
ENDBRANCH  16  19
BRANCH  17  21
HETATM   21  O   UNL     1      39.731  -9.628  13.425  1.00  0.00    -0.353 OA
HETATM   22  C   UNL     1      39.400 -10.840  12.759  1.00  0.00     0.210 C 
ENDBRANCH  17  21
ENDBRANCH  10  13
ENDBRANCH   7   9
ENDBRANCH   1   7
BRANCH   5  23
HETATM   23  C   UNL     1      41.921 -12.932   4.743  1.00  0.00     0.256 C 
HETATM   24  O   UNL     1      43.075 -12.705   4.394  1.00  0.00    -0.267 OA
HETATM   25  N   UNL     1      41.227 -14.118   4.570  1.00  0.00    -0.323 N 
HETATM   26  H   UNL     1      40.311 -14.189   4.996  1.00  0.00     0.169 HD
BRANCH  25  27
HETATM   27  C   UNL     1      41.684 -15.284   3.915  1.00  0.00     0.035 A 
HETATM   28  C   UNL     1      41.495 -15.540   2.557  1.00  0.00     0.030 A 
HETATM   29  C   UNL     1      41.986 -16.713   1.977  1.00  0.00     0.010 A 
HETATM   30  C   UNL     1      42.677 -17.652   2.749  1.00  0.00    -0.048 A 
HETATM   31  C   UNL     1      43.172 -18.931   2.123  1.00  0.00     0.069 C 
HETATM   32  C   UNL     1      42.851 -17.426   4.123  1.00  0.00    -0.022 A 
HETATM   33  C   UNL     1      44.209 -19.649   2.996  1.00  0.00     0.277 C 
HETATM   34  N   UNL     1      43.732 -19.755   4.381  1.00  0.00     0.088 N 
HETATM   35  C   UNL     1      44.623 -20.596   5.177  1.00  0.00     0.310 C 
HETATM   36  C   UNL     1      43.620 -18.412   4.980  1.00  0.00     0.311 C 
HETATM   37  C   UNL     1      42.362 -16.235   4.692  1.00  0.00     0.039 A 
ENDBRANCH  25  27
ENDBRANCH   5  23
TORSDOF 7
ENDMDL
