MODEL 1
REMARK VINA RESULT:      -9.2      0.000      0.000
REMARK  3 active torsions:
REMARK  status: ('A' for Active; 'I' for Inactive)
REMARK    1  A    between atoms: C_6  and  N_7 
REMARK       I    between atoms: N_7  and  C_8 
REMARK       I    between atoms: C_8  and  N_9 
REMARK    2  A    between atoms: N_9  and  C_10 
REMARK    3  A    between atoms: C_11  and  C_12 
ROOT
HETATM    1  C   UNL     1      43.451 -13.794   6.034  1.00  0.00     0.049 A 
HETATM    2  C   UNL     1      42.396 -13.234   5.288  1.00  0.00     0.021 A 
HETATM    3  C   UNL     1      42.119 -11.861   5.373  1.00  0.00     0.016 A 
HETATM    4  C   UNL     1      42.896 -11.044   6.194  1.00  0.00     0.001 A 
HETATM    5  C   UNL     1      43.967 -11.586   6.902  1.00  0.00     0.002 A 
HETATM    6  C   UNL     1      44.253 -12.952   6.812  1.00  0.00     0.030 A 
ENDROOT
BRANCH   1   7
HETATM    7  N   UNL     1      43.770 -15.170   6.022  1.00  0.00    -0.308 N 
HETATM    8  C   UNL     1      43.253 -16.065   6.922  1.00  0.00     0.325 C 
HETATM    9  N   UNL     1      43.443 -17.389   6.641  1.00  0.00    -0.309 N 
HETATM   10  O   UNL     1      42.742 -15.749   7.995  1.00  0.00    -0.247 OA
HETATM   11  H   UNL     1      43.266 -17.971   7.452  1.00  0.00     0.170 HD
HETATM   12  H   UNL     1      44.676 -15.441   5.667  1.00  0.00     0.170 HD
BRANCH   9  13
HETATM   13  C   UNL     1      43.579 -18.058   5.409  1.00  0.00     0.039 A 
HETATM   14  C   UNL     1      43.304 -17.479   4.171  1.00  0.00     0.072 A 
HETATM   15  C   UNL     1      43.400 -18.245   3.008  1.00  0.00     0.124 A 
HETATM   16  C   UNL     1      43.771 -19.590   3.046  1.00  0.00    -0.023 A 
HETATM   17  F   UNL     1      43.107 -17.667   1.835  1.00  0.00    -0.205 F 
HETATM   18  C   UNL     1      43.815 -20.413   1.796  1.00  0.00     0.051 C 
HETATM   19  C   UNL     1      44.027 -20.174   4.289  1.00  0.00     0.012 A 
HETATM   20  C   UNL     1      43.929 -19.413   5.459  1.00  0.00     0.030 A 
ENDBRANCH   9  13
ENDBRANCH   1   7
BRANCH   2  21
HETATM   21  C   UNL     1      41.683 -14.014   4.248  1.00  0.00     0.089 A 
HETATM   22  N   UNL     1      40.735 -14.829   4.604  1.00  0.00    -0.171 NA
HETATM   23  N   UNL     1      40.111 -15.514   3.602  1.00  0.00    -0.243 N 
HETATM   24  C   UNL     1      40.396 -15.413   2.265  1.00  0.00     0.261 A 
HETATM   25  H   UNL     1      39.362 -16.139   3.878  1.00  0.00     0.192 HD
HETATM   26  O   UNL     1      39.801 -16.046   1.399  1.00  0.00    -0.267 OA
HETATM   27  C   UNL     1      41.486 -14.486   1.904  1.00  0.00     0.078 A 
HETATM   28  C   UNL     1      42.130 -13.801   2.852  1.00  0.00     0.040 A 
ENDBRANCH   2  21
TORSDOF 3
ENDMDL
MODEL 2
REMARK VINA RESULT:      -8.8      2.041      4.295
REMARK  3 active torsions:
REMARK  status: ('A' for Active; 'I' for Inactive)
REMARK    1  A    between atoms: C_6  and  N_7 
REMARK       I    between atoms: N_7  and  C_8 
REMARK       I    between atoms: C_8  and  N_9 
REMARK    2  A    between atoms: N_9  and  C_10 
REMARK    3  A    between atoms: C_11  and  C_12 
ROOT
HETATM    1  C   UNL     1      40.621 -14.212   3.205  1.00  0.00     0.049 A 
HETATM    2  C   UNL     1      40.693 -13.626   4.483  1.00  0.00     0.021 A 
HETATM    3  C   UNL     1      39.914 -12.501   4.792  1.00  0.00     0.016 A 
HETATM    4  C   UNL     1      39.058 -11.962   3.831  1.00  0.00     0.001 A 
HETATM    5  C   UNL     1      38.953 -12.563   2.578  1.00  0.00     0.002 A 
HETATM    6  C   UNL     1      39.720 -13.691   2.270  1.00  0.00     0.030 A 
ENDROOT
BRANCH   1   7
HETATM    7  N   UNL     1      41.396 -15.326   2.813  1.00  0.00    -0.308 N 
HETATM    8  C   UNL     1      42.564 -15.213   2.104  1.00  0.00     0.325 C 
HETATM    9  N   UNL     1      43.334 -16.339   2.015  1.00  0.00    -0.309 N 
HETATM   10  O   UNL     1      42.891 -14.213   1.467  1.00  0.00    -0.247 OA
HETATM   11  H   UNL     1      44.031 -16.256   1.285  1.00  0.00     0.170 HD
HETATM   12  H   UNL     1      40.917 -16.201   2.652  1.00  0.00     0.170 HD
BRANCH   9  13
HETATM   13  C   UNL     1      43.477 -17.428   2.897  1.00  0.00     0.039 A 
HETATM   14  C   UNL     1      43.636 -17.301   4.276  1.00  0.00     0.072 A 
HETATM   15  C   UNL     1      43.843 -18.436   5.060  1.00  0.00     0.124 A 
HETATM   16  C   UNL     1      43.892 -19.713   4.500  1.00  0.00    -0.023 A 
HETATM   17  F   UNL     1      44.017 -18.281   6.380  1.00  0.00    -0.205 F 
HETATM   18  C   UNL     1      44.171 -20.917   5.347  1.00  0.00     0.051 C 
HETATM   19  C   UNL     1      43.751 -19.838   3.115  1.00  0.00     0.012 A 
HETATM   20  C   UNL     1      43.548 -18.703   2.323  1.00  0.00     0.030 A 
ENDBRANCH   9  13
ENDBRANCH   1   7
BRANCH   2  21
HETATM   21  C   UNL     1      41.421 -14.282   5.596  1.00  0.00     0.089 A 
HETATM   22  N   UNL     1      40.963 -15.396   6.086  1.00  0.00    -0.171 NA
HETATM   23  N   UNL     1      41.679 -15.954   7.105  1.00  0.00    -0.243 N 
HETATM   24  C   UNL     1      42.830 -15.445   7.648  1.00  0.00     0.261 A 
HETATM   25  H   UNL     1      41.330 -16.830   7.477  1.00  0.00     0.192 HD
HETATM   26  O   UNL     1      43.443 -15.989   8.560  1.00  0.00    -0.267 OA
HETATM   27  C   UNL     1      43.309 -14.174   7.072  1.00  0.00     0.078 A 
HETATM   28  C   UNL     1      42.636 -13.587   6.079  1.00  0.00     0.040 A 
ENDBRANCH   2  21
TORSDOF 3
ENDMDL
MODEL 3
REMARK VINA RESULT:      -8.5      2.562      6.187
REMARK  3 active torsions:
REMARK  status: ('A' for Active; 'I' for Inactive)
REMARK    1  A    between atoms: C_6  and  N_7 
REMARK       I    between atoms: N_7  and  C_8 
REMARK       I    between atoms: C_8  and  N_9 
REMARK    2  A    between atoms: N_9  and  C_10 
REMARK    3  A    between atoms: C_11  and  C_12 
ROOT
HETATM    1  C   UNL     1      43.311 -15.733   4.352  1.00  0.00     0.049 A 
HETATM    2  C   UNL     1      42.958 -16.278   3.103  1.00  0.00     0.021 A 
HETATM    3  C   UNL     1      43.260 -17.615   2.802  1.00  0.00     0.016 A 
HETATM    4  C   UNL     1      43.905 -18.412   3.748  1.00  0.00     0.001 A 
HETATM    5  C   UNL     1      44.219 -17.889   5.001  1.00  0.00     0.002 A 
HETATM    6  C   UNL     1      43.911 -16.560   5.308  1.00  0.00     0.030 A 
ENDROOT
BRANCH   1   7
HETATM    7  N   UNL     1      43.066 -14.389   4.713  1.00  0.00    -0.308 N 
HETATM    8  C   UNL     1      41.946 -13.989   5.395  1.00  0.00     0.325 C 
HETATM    9  N   UNL     1      41.959 -12.719   5.897  1.00  0.00    -0.309 N 
HETATM   10  O   UNL     1      40.915 -14.654   5.479  1.00  0.00    -0.247 OA
HETATM   11  H   UNL     1      41.030 -12.411   6.158  1.00  0.00     0.170 HD
HETATM   12  H   UNL     1      43.453 -13.664   4.125  1.00  0.00     0.170 HD
BRANCH   9  13
HETATM   13  C   UNL     1      43.030 -11.913   6.332  1.00  0.00     0.039 A 
HETATM   14  C   UNL     1      44.369 -12.163   6.033  1.00  0.00     0.072 A 
HETATM   15  C   UNL     1      45.365 -11.347   6.569  1.00  0.00     0.124 A 
HETATM   16  C   UNL     1      45.061 -10.272   7.405  1.00  0.00    -0.023 A 
HETATM   17  F   UNL     1      46.645 -11.626   6.283  1.00  0.00    -0.205 F 
HETATM   18  C   UNL     1      46.144  -9.440   8.017  1.00  0.00     0.051 C 
HETATM   19  C   UNL     1      43.720 -10.033   7.719  1.00  0.00     0.012 A 
HETATM   20  C   UNL     1      42.716 -10.850   7.188  1.00  0.00     0.030 A 
ENDBRANCH   9  13
ENDBRANCH   1   7
BRANCH   2  21
HETATM   21  C   UNL     1      42.090 -15.542   2.153  1.00  0.00     0.089 A 
HETATM   22  N   UNL     1      42.533 -14.451   1.601  1.00  0.00    -0.171 NA
HETATM   23  N   UNL     1      41.690 -13.821   0.731  1.00  0.00    -0.243 N 
HETATM   24  C   UNL     1      40.430 -14.240   0.392  1.00  0.00     0.261 A 
HETATM   25  H   UNL     1      42.041 -12.979   0.291  1.00  0.00     0.192 HD
HETATM   26  O   UNL     1      39.712 -13.642  -0.402  1.00  0.00    -0.267 OA
HETATM   27  C   UNL     1      39.961 -15.475   1.049  1.00  0.00     0.078 A 
HETATM   28  C   UNL     1      40.748 -16.121   1.914  1.00  0.00     0.040 A 
ENDBRANCH   2  21
TORSDOF 3
ENDMDL
MODEL 4
REMARK VINA RESULT:      -8.5      3.141      6.549
REMARK  3 active torsions:
REMARK  status: ('A' for Active; 'I' for Inactive)
REMARK    1  A    between atoms: C_6  and  N_7 
REMARK       I    between atoms: N_7  and  C_8 
REMARK       I    between atoms: C_8  and  N_9 
REMARK    2  A    between atoms: N_9  and  C_10 
REMARK    3  A    between atoms: C_11  and  C_12 
ROOT
HETATM    1  C   UNL     1      42.444 -16.937   2.562  1.00  0.00     0.049 A 
HETATM    2  C   UNL     1      43.122 -16.285   3.610  1.00  0.00     0.021 A 
HETATM    3  C   UNL     1      44.050 -16.985   4.397  1.00  0.00     0.016 A 
HETATM    4  C   UNL     1      44.309 -18.330   4.136  1.00  0.00     0.001 A 
HETATM    5  C   UNL     1      43.670 -18.969   3.075  1.00  0.00     0.002 A 
HETATM    6  C   UNL     1      42.753 -18.272   2.282  1.00  0.00     0.030 A 
ENDROOT
BRANCH   1   7
HETATM    7  N   UNL     1      41.476 -16.306   1.749  1.00  0.00    -0.308 N 
HETATM    8  C   UNL     1      40.308 -15.785   2.243  1.00  0.00     0.325 C 
HETATM    9  N   UNL     1      39.591 -14.988   1.396  1.00  0.00    -0.309 N 
HETATM   10  O   UNL     1      39.829 -16.080   3.337  1.00  0.00    -0.247 OA
HETATM   11  H   UNL     1      38.644 -14.850   1.727  1.00  0.00     0.170 HD
HETATM   12  H   UNL     1      41.402 -16.604   0.786  1.00  0.00     0.170 HD
BRANCH   9  13
HETATM   13  C   UNL     1      40.010 -14.159   0.337  1.00  0.00     0.039 A 
HETATM   14  C   UNL     1      40.635 -12.925   0.509  1.00  0.00     0.072 A 
HETATM   15  C   UNL     1      40.949 -12.143  -0.602  1.00  0.00     0.124 A 
HETATM   16  C   UNL     1      40.657 -12.564  -1.900  1.00  0.00    -0.023 A 
HETATM   17  F   UNL     1      41.528 -10.950  -0.404  1.00  0.00    -0.205 F 
HETATM   18  C   UNL     1      40.949 -11.689  -3.079  1.00  0.00     0.051 C 
HETATM   19  C   UNL     1      40.013 -13.793  -2.071  1.00  0.00     0.012 A 
HETATM   20  C   UNL     1      39.692 -14.580  -0.960  1.00  0.00     0.030 A 
ENDBRANCH   9  13
ENDBRANCH   1   7
BRANCH   2  21
HETATM   21  C   UNL     1      43.042 -14.816   3.790  1.00  0.00     0.089 A 
HETATM   22  N   UNL     1      43.290 -14.037   2.778  1.00  0.00    -0.171 NA
HETATM   23  N   UNL     1      43.195 -12.694   3.004  1.00  0.00    -0.243 N 
HETATM   24  C   UNL     1      42.860 -12.104   4.195  1.00  0.00     0.261 A 
HETATM   25  H   UNL     1      43.374 -12.088   2.212  1.00  0.00     0.192 HD
HETATM   26  O   UNL     1      42.780 -10.890   4.346  1.00  0.00    -0.267 OA
HETATM   27  C   UNL     1      42.598 -13.022   5.320  1.00  0.00     0.078 A 
HETATM   28  C   UNL     1      42.688 -14.344   5.148  1.00  0.00     0.040 A 
ENDBRANCH   2  21
TORSDOF 3
ENDMDL
MODEL 5
REMARK VINA RESULT:      -8.3      2.633      3.516
REMARK  3 active torsions:
REMARK  status: ('A' for Active; 'I' for Inactive)
REMARK    1  A    between atoms: C_6  and  N_7 
REMARK       I    between atoms: N_7  and  C_8 
REMARK       I    between atoms: C_8  and  N_9 
REMARK    2  A    between atoms: N_9  and  C_10 
REMARK    3  A    between atoms: C_11  and  C_12 
ROOT
HETATM    1  C   UNL     1      41.018 -14.289   3.813  1.00  0.00     0.049 A 
HETATM    2  C   UNL     1      40.011 -13.593   3.116  1.00  0.00     0.021 A 
HETATM    3  C   UNL     1      39.286 -12.573   3.749  1.00  0.00     0.016 A 
HETATM    4  C   UNL     1      39.567 -12.239   5.074  1.00  0.00     0.001 A 
HETATM    5  C   UNL     1      40.590 -12.896   5.756  1.00  0.00     0.002 A 
HETATM    6  C   UNL     1      41.321 -13.906   5.124  1.00  0.00     0.030 A 
ENDROOT
BRANCH   1   7
HETATM    7  N   UNL     1      41.767 -15.345   3.252  1.00  0.00    -0.308 N 
HETATM    8  C   UNL     1      42.925 -15.149   2.545  1.00  0.00     0.325 C 
HETATM    9  N   UNL     1      43.675 -16.260   2.281  1.00  0.00    -0.309 N 
HETATM   10  O   UNL     1      43.259 -14.072   2.053  1.00  0.00    -0.247 OA
HETATM   11  H   UNL     1      44.362 -16.083   1.558  1.00  0.00     0.170 HD
HETATM   12  H   UNL     1      41.271 -16.182   2.976  1.00  0.00     0.170 HD
BRANCH   9  13
HETATM   13  C   UNL     1      43.814 -17.467   2.995  1.00  0.00     0.039 A 
HETATM   14  C   UNL     1      43.657 -18.732   2.431  1.00  0.00     0.072 A 
HETATM   15  C   UNL     1      43.743 -19.868   3.236  1.00  0.00     0.124 A 
HETATM   16  C   UNL     1      43.988 -19.777   4.607  1.00  0.00    -0.023 A 
HETATM   17  F   UNL     1      43.566 -21.070   2.669  1.00  0.00    -0.205 F 
HETATM   18  C   UNL     1      44.022 -21.003   5.467  1.00  0.00     0.051 C 
HETATM   19  C   UNL     1      44.125 -18.508   5.175  1.00  0.00     0.012 A 
HETATM   20  C   UNL     1      44.036 -17.365   4.374  1.00  0.00     0.030 A 
ENDBRANCH   9  13
ENDBRANCH   1   7
BRANCH   2  21
HETATM   21  C   UNL     1      39.821 -13.763   1.655  1.00  0.00     0.089 A 
HETATM   22  N   UNL     1      39.785 -14.963   1.155  1.00  0.00    -0.171 NA
HETATM   23  N   UNL     1      39.602 -15.056  -0.195  1.00  0.00    -0.243 N 
HETATM   24  C   UNL     1      39.451 -14.001  -1.057  1.00  0.00     0.261 A 
HETATM   25  H   UNL     1      39.560 -15.991  -0.583  1.00  0.00     0.192 HD
HETATM   26  O   UNL     1      39.281 -14.136  -2.264  1.00  0.00    -0.267 OA
HETATM   27  C   UNL     1      39.509 -12.657  -0.450  1.00  0.00     0.078 A 
HETATM   28  C   UNL     1      39.695 -12.517   0.865  1.00  0.00     0.040 A 
ENDBRANCH   2  21
TORSDOF 3
ENDMDL
MODEL 6
REMARK VINA RESULT:      -8.1      2.399      5.804
REMARK  3 active torsions:
REMARK  status: ('A' for Active; 'I' for Inactive)
REMARK    1  A    between atoms: C_6  and  N_7 
REMARK       I    between atoms: N_7  and  C_8 
REMARK       I    between atoms: C_8  and  N_9 
REMARK    2  A    between atoms: N_9  and  C_10 
REMARK    3  A    between atoms: C_11  and  C_12 
ROOT
HETATM    1  C   UNL     1      43.387 -17.796   4.718  1.00  0.00     0.049 A 
HETATM    2  C   UNL     1      43.330 -17.775   3.311  1.00  0.00     0.021 A 
HETATM    3  C   UNL     1      43.678 -18.916   2.572  1.00  0.00     0.016 A 
HETATM    4  C   UNL     1      44.074 -20.079   3.231  1.00  0.00     0.001 A 
HETATM    5  C   UNL     1      44.092 -20.118   4.624  1.00  0.00     0.002 A 
HETATM    6  C   UNL     1      43.736 -18.986   5.365  1.00  0.00     0.030 A 
ENDROOT
BRANCH   1   7
HETATM    7  N   UNL     1      43.082 -16.679   5.527  1.00  0.00    -0.308 N 
HETATM    8  C   UNL     1      44.038 -15.936   6.170  1.00  0.00     0.325 C 
HETATM    9  N   UNL     1      43.629 -14.747   6.703  1.00  0.00    -0.309 N 
HETATM   10  O   UNL     1      45.186 -16.324   6.383  1.00  0.00    -0.247 OA
HETATM   11  H   UNL     1      44.305 -14.383   7.364  1.00  0.00     0.170 HD
HETATM   12  H   UNL     1      42.187 -16.668   5.998  1.00  0.00     0.170 HD
BRANCH   9  13
HETATM   13  C   UNL     1      42.602 -13.867   6.309  1.00  0.00     0.039 A 
HETATM   14  C   UNL     1      42.809 -12.538   5.940  1.00  0.00     0.072 A 
HETATM   15  C   UNL     1      41.720 -11.723   5.634  1.00  0.00     0.124 A 
HETATM   16  C   UNL     1      40.410 -12.202   5.684  1.00  0.00    -0.023 A 
HETATM   17  F   UNL     1      41.949 -10.444   5.305  1.00  0.00    -0.205 F 
HETATM   18  C   UNL     1      39.247 -11.300   5.407  1.00  0.00     0.051 C 
HETATM   19  C   UNL     1      40.201 -13.528   6.073  1.00  0.00     0.012 A 
HETATM   20  C   UNL     1      41.289 -14.350   6.385  1.00  0.00     0.030 A 
ENDBRANCH   9  13
ENDBRANCH   1   7
BRANCH   2  21
HETATM   21  C   UNL     1      42.718 -16.643   2.577  1.00  0.00     0.089 A 
HETATM   22  N   UNL     1      43.476 -15.671   2.161  1.00  0.00    -0.171 NA
HETATM   23  N   UNL     1      42.855 -14.660   1.486  1.00  0.00    -0.243 N 
HETATM   24  C   UNL     1      41.515 -14.585   1.210  1.00  0.00     0.261 A 
HETATM   25  H   UNL     1      43.448 -13.909   1.149  1.00  0.00     0.192 HD
HETATM   26  O   UNL     1      41.005 -13.657   0.592  1.00  0.00    -0.267 OA
HETATM   27  C   UNL     1      40.689 -15.701   1.709  1.00  0.00     0.078 A 
HETATM   28  C   UNL     1      41.251 -16.708   2.382  1.00  0.00     0.040 A 
ENDBRANCH   2  21
TORSDOF 3
ENDMDL
MODEL 7
REMARK VINA RESULT:      -8.0      2.340      4.414
REMARK  3 active torsions:
REMARK  status: ('A' for Active; 'I' for Inactive)
REMARK    1  A    between atoms: C_6  and  N_7 
REMARK       I    between atoms: N_7  and  C_8 
REMARK       I    between atoms: C_8  and  N_9 
REMARK    2  A    between atoms: N_9  and  C_10 
REMARK    3  A    between atoms: C_11  and  C_12 
ROOT
HETATM    1  C   UNL     1      42.088 -12.669   4.085  1.00  0.00     0.049 A 
HETATM    2  C   UNL     1      42.581 -11.383   4.379  1.00  0.00     0.021 A 
HETATM    3  C   UNL     1      41.878 -10.242   3.963  1.00  0.00     0.016 A 
HETATM    4  C   UNL     1      40.681 -10.380   3.261  1.00  0.00     0.001 A 
HETATM    5  C   UNL     1      40.168 -11.650   3.003  1.00  0.00     0.002 A 
HETATM    6  C   UNL     1      40.860 -12.789   3.425  1.00  0.00     0.030 A 
ENDROOT
BRANCH   1   7
HETATM    7  N   UNL     1      42.755 -13.860   4.445  1.00  0.00    -0.308 N 
HETATM    8  C   UNL     1      42.580 -14.480   5.655  1.00  0.00     0.325 C 
HETATM    9  N   UNL     1      43.083 -15.745   5.771  1.00  0.00    -0.309 N 
HETATM   10  O   UNL     1      42.107 -13.931   6.649  1.00  0.00    -0.247 OA
HETATM   11  H   UNL     1      43.144 -16.035   6.739  1.00  0.00     0.170 HD
HETATM   12  H   UNL     1      43.663 -14.035   4.037  1.00  0.00     0.170 HD
BRANCH   9  13
HETATM   13  C   UNL     1      43.274 -16.751   4.803  1.00  0.00     0.039 A 
HETATM   14  C   UNL     1      42.473 -16.911   3.673  1.00  0.00     0.072 A 
HETATM   15  C   UNL     1      42.696 -17.983   2.809  1.00  0.00     0.124 A 
HETATM   16  C   UNL     1      43.712 -18.911   3.041  1.00  0.00    -0.023 A 
HETATM   17  F   UNL     1      41.896 -18.124   1.743  1.00  0.00    -0.205 F 
HETATM   18  C   UNL     1      43.903 -20.088   2.134  1.00  0.00     0.051 C 
HETATM   19  C   UNL     1      44.502 -18.761   4.184  1.00  0.00     0.012 A 
HETATM   20  C   UNL     1      44.281 -17.691   5.057  1.00  0.00     0.030 A 
ENDBRANCH   9  13
ENDBRANCH   1   7
BRANCH   2  21
HETATM   21  C   UNL     1      43.727 -11.184   5.298  1.00  0.00     0.089 A 
HETATM   22  N   UNL     1      44.934 -11.399   4.865  1.00  0.00    -0.171 NA
HETATM   23  N   UNL     1      45.948 -11.193   5.755  1.00  0.00    -0.243 N 
HETATM   24  C   UNL     1      45.802 -10.779   7.054  1.00  0.00     0.261 A 
HETATM   25  H   UNL     1      46.889 -11.348   5.413  1.00  0.00     0.192 HD
HETATM   26  O   UNL     1      46.747 -10.601   7.814  1.00  0.00    -0.267 OA
HETATM   27  C   UNL     1      44.416 -10.557   7.509  1.00  0.00     0.078 A 
HETATM   28  C   UNL     1      43.392 -10.754   6.675  1.00  0.00     0.040 A 
ENDBRANCH   2  21
TORSDOF 3
ENDMDL
MODEL 8
REMARK VINA RESULT:      -7.9      5.898      8.720
REMARK  3 active torsions:
REMARK  status: ('A' for Active; 'I' for Inactive)
REMARK    1  A    between atoms: C_6  and  N_7 
REMARK       I    between atoms: N_7  and  C_8 
REMARK       I    between atoms: C_8  and  N_9 
REMARK    2  A    between atoms: N_9  and  C_10 
REMARK    3  A    between atoms: C_11  and  C_12 
ROOT
HETATM    1  C   UNL     1      41.297  -9.425  11.426  1.00  0.00     0.049 A 
HETATM    2  C   UNL     1      42.576  -8.883  11.659  1.00  0.00     0.021 A 
HETATM    3  C   UNL     1      42.973  -8.540  12.960  1.00  0.00     0.016 A 
HETATM    4  C   UNL     1      42.101  -8.743  14.030  1.00  0.00     0.001 A 
HETATM    5  C   UNL     1      40.850  -9.317  13.810  1.00  0.00     0.002 A 
HETATM    6  C   UNL     1      40.455  -9.670  12.516  1.00  0.00     0.030 A 
ENDROOT
BRANCH   1   7
HETATM    7  N   UNL     1      40.818  -9.766  10.142  1.00  0.00    -0.308 N 
HETATM    8  C   UNL     1      40.187  -8.871   9.316  1.00  0.00     0.325 C 
HETATM    9  N   UNL     1      40.006  -9.262   8.019  1.00  0.00    -0.309 N 
HETATM   10  O   UNL     1      39.690  -7.813   9.697  1.00  0.00    -0.247 OA
HETATM   11  H   UNL     1      39.328  -8.677   7.545  1.00  0.00     0.170 HD
HETATM   12  H   UNL     1      40.532 -10.722   9.983  1.00  0.00     0.170 HD
BRANCH   9  13
HETATM   13  C   UNL     1      40.762 -10.130   7.206  1.00  0.00     0.039 A 
HETATM   14  C   UNL     1      42.145 -10.051   7.051  1.00  0.00     0.072 A 
HETATM   15  C   UNL     1      42.796 -10.910   6.167  1.00  0.00     0.124 A 
HETATM   16  C   UNL     1      42.098 -11.863   5.423  1.00  0.00    -0.023 A 
HETATM   17  F   UNL     1      44.124 -10.795   6.022  1.00  0.00    -0.205 F 
HETATM   18  C   UNL     1      42.803 -12.740   4.437  1.00  0.00     0.051 C 
HETATM   19  C   UNL     1      40.709 -11.928   5.564  1.00  0.00     0.012 A 
HETATM   20  C   UNL     1      40.049 -11.066   6.447  1.00  0.00     0.030 A 
ENDBRANCH   9  13
ENDBRANCH   1   7
BRANCH   2  21
HETATM   21  C   UNL     1      43.608  -8.846  10.596  1.00  0.00     0.089 A 
HETATM   22  N   UNL     1      43.576  -7.894   9.712  1.00  0.00    -0.171 NA
HETATM   23  N   UNL     1      44.556  -7.909   8.762  1.00  0.00    -0.243 N 
HETATM   24  C   UNL     1      45.562  -8.835   8.665  1.00  0.00     0.261 A 
HETATM   25  H   UNL     1      44.539  -7.159   8.081  1.00  0.00     0.192 HD
HETATM   26  O   UNL     1      46.426  -8.802   7.795  1.00  0.00    -0.267 OA
HETATM   27  C   UNL     1      45.556  -9.906   9.680  1.00  0.00     0.078 A 
HETATM   28  C   UNL     1      44.611  -9.935  10.624  1.00  0.00     0.040 A 
ENDBRANCH   2  21
TORSDOF 3
ENDMDL
MODEL 9
REMARK VINA RESULT:      -7.8      2.444      4.458
REMARK  3 active torsions:
REMARK  status: ('A' for Active; 'I' for Inactive)
REMARK    1  A    between atoms: C_6  and  N_7 
REMARK       I    between atoms: N_7  and  C_8 
REMARK       I    between atoms: C_8  and  N_9 
REMARK    2  A    between atoms: N_9  and  C_10 
REMARK    3  A    between atoms: C_11  and  C_12 
ROOT
HETATM    1  C   UNL     1      40.421 -12.405   3.982  1.00  0.00     0.049 A 
HETATM    2  C   UNL     1      40.535 -12.331   5.384  1.00  0.00     0.021 A 
HETATM    3  C   UNL     1      39.759 -11.415   6.110  1.00  0.00     0.016 A 
HETATM    4  C   UNL     1      38.865 -10.578   5.443  1.00  0.00     0.001 A 
HETATM    5  C   UNL     1      38.719 -10.676   4.060  1.00  0.00     0.002 A 
HETATM    6  C   UNL     1      39.483 -11.595   3.334  1.00  0.00     0.030 A 
ENDROOT
BRANCH   1   7
HETATM    7  N   UNL     1      41.189 -13.280   3.183  1.00  0.00    -0.308 N 
HETATM    8  C   UNL     1      42.394 -12.928   2.632  1.00  0.00     0.325 C 
HETATM    9  N   UNL     1      43.142 -13.941   2.102  1.00  0.00    -0.309 N 
HETATM   10  O   UNL     1      42.776 -11.766   2.492  1.00  0.00    -0.247 OA
HETATM   11  H   UNL     1      43.878 -13.586   1.502  1.00  0.00     0.170 HD
HETATM   12  H   UNL     1      40.700 -13.985   2.649  1.00  0.00     0.170 HD
BRANCH   9  13
HETATM   13  C   UNL     1      43.216 -15.305   2.443  1.00  0.00     0.039 A 
HETATM   14  C   UNL     1      43.363 -15.779   3.746  1.00  0.00     0.072 A 
HETATM   15  C   UNL     1      43.500 -17.147   3.978  1.00  0.00     0.124 A 
HETATM   16  C   UNL     1      43.489 -18.072   2.933  1.00  0.00    -0.023 A 
HETATM   17  F   UNL     1      43.663 -17.571   5.239  1.00  0.00    -0.205 F 
HETATM   18  C   UNL     1      43.692 -19.532   3.192  1.00  0.00     0.051 C 
HETATM   19  C   UNL     1      43.361 -17.595   1.625  1.00  0.00     0.012 A 
HETATM   20  C   UNL     1      43.228 -16.223   1.385  1.00  0.00     0.030 A 
ENDBRANCH   9  13
ENDBRANCH   1   7
BRANCH   2  21
HETATM   21  C   UNL     1      41.307 -13.336   6.153  1.00  0.00     0.089 A 
HETATM   22  N   UNL     1      42.472 -13.013   6.629  1.00  0.00    -0.171 NA
HETATM   23  N   UNL     1      43.133 -13.978   7.334  1.00  0.00    -0.243 N 
HETATM   24  C   UNL     1      42.672 -15.245   7.581  1.00  0.00     0.261 A 
HETATM   25  H   UNL     1      44.036 -13.722   7.717  1.00  0.00     0.192 HD
HETATM   26  O   UNL     1      43.301 -16.076   8.228  1.00  0.00    -0.267 OA
HETATM   27  C   UNL     1      41.351 -15.575   7.014  1.00  0.00     0.078 A 
HETATM   28  C   UNL     1      40.672 -14.665   6.311  1.00  0.00     0.040 A 
ENDBRANCH   2  21
TORSDOF 3
ENDMDL
MODEL 10
REMARK VINA RESULT:      -7.8      2.674      4.976
REMARK  3 active torsions:
REMARK  status: ('A' for Active; 'I' for Inactive)
REMARK    1  A    between atoms: C_6  and  N_7 
REMARK       I    between atoms: N_7  and  C_8 
REMARK       I    between atoms: C_8  and  N_9 
REMARK    2  A    between atoms: N_9  and  C_10 
REMARK    3  A    between atoms: C_11  and  C_12 
ROOT
HETATM    1  C   UNL     1      39.880 -12.311   2.656  1.00  0.00     0.049 A 
HETATM    2  C   UNL     1      40.290 -11.468   3.707  1.00  0.00     0.021 A 
HETATM    3  C   UNL     1      39.579 -10.291   3.989  1.00  0.00     0.016 A 
HETATM    4  C   UNL     1      38.457  -9.958   3.231  1.00  0.00     0.001 A 
HETATM    5  C   UNL     1      38.023 -10.810   2.217  1.00  0.00     0.002 A 
HETATM    6  C   UNL     1      38.723 -11.988   1.940  1.00  0.00     0.030 A 
ENDROOT
BRANCH   1   7
HETATM    7  N   UNL     1      40.562 -13.494   2.295  1.00  0.00    -0.308 N 
HETATM    8  C   UNL     1      41.497 -13.544   1.294  1.00  0.00     0.325 C 
HETATM    9  N   UNL     1      42.254 -14.679   1.222  1.00  0.00    -0.309 N 
HETATM   10  O   UNL     1      41.610 -12.693   0.412  1.00  0.00    -0.247 OA
HETATM   11  H   UNL     1      42.731 -14.753   0.332  1.00  0.00     0.170 HD
HETATM   12  H   UNL     1      40.088 -14.375   2.440  1.00  0.00     0.170 HD
BRANCH   9  13
HETATM   13  C   UNL     1      42.662 -15.577   2.228  1.00  0.00     0.039 A 
HETATM   14  C   UNL     1      43.049 -15.191   3.511  1.00  0.00     0.072 A 
HETATM   15  C   UNL     1      43.508 -16.148   4.416  1.00  0.00     0.124 A 
HETATM   16  C   UNL     1      43.589 -17.499   4.075  1.00  0.00    -0.023 A 
HETATM   17  F   UNL     1      43.895 -15.745   5.634  1.00  0.00    -0.205 F 
HETATM   18  C   UNL     1      44.135 -18.507   5.039  1.00  0.00     0.051 C 
HETATM   19  C   UNL     1      43.219 -17.882   2.783  1.00  0.00     0.012 A 
HETATM   20  C   UNL     1      42.762 -16.927   1.869  1.00  0.00     0.030 A 
ENDBRANCH   9  13
ENDBRANCH   1   7
BRANCH   2  21
HETATM   21  C   UNL     1      41.338 -11.882   4.669  1.00  0.00     0.089 A 
HETATM   22  N   UNL     1      41.047 -12.751   5.592  1.00  0.00    -0.171 NA
HETATM   23  N   UNL     1      42.056 -13.097   6.445  1.00  0.00    -0.243 N 
HETATM   24  C   UNL     1      43.337 -12.611   6.408  1.00  0.00     0.261 A 
HETATM   25  H   UNL     1      41.833 -13.784   7.155  1.00  0.00     0.192 HD
HETATM   26  O   UNL     1      44.212 -12.959   7.193  1.00  0.00    -0.267 OA
HETATM   27  C   UNL     1      43.623 -11.619   5.353  1.00  0.00     0.078 A 
HETATM   28  C   UNL     1      42.665 -11.245   4.502  1.00  0.00     0.040 A 
ENDBRANCH   2  21
TORSDOF 3
ENDMDL
