MODEL 1
REMARK VINA RESULT:      -9.3      0.000      0.000
REMARK  3 active torsions:
REMARK  status: ('A' for Active; 'I' for Inactive)
REMARK    1  A    between atoms: N_12  and  C_13 
REMARK    2  A    between atoms: C_13  and  C_14 
REMARK       I    between atoms: C_14  and  N_15 
REMARK    3  A    between atoms: N_15  and  C_16 
ROOT
HETATM    1  C   UNL     1      44.311 -21.283   5.273  1.00  0.00     0.048 C 
HETATM    2  C   UNL     1      43.969 -20.125   4.381  1.00  0.00    -0.061 A 
HETATM    3  C   UNL     1      43.818 -18.834   4.915  1.00  0.00     0.021 A 
HETATM    4  C   UNL     1      43.501 -17.756   4.064  1.00  0.00     0.005 A 
HETATM    5  C   UNL     1      43.336 -18.003   2.696  1.00  0.00     0.044 A 
HETATM    6  N   UNL     1      43.050 -16.796   2.089  1.00  0.00    -0.350 N 
HETATM    7  H   UNL     1      42.892 -16.658   1.098  1.00  0.00     0.166 HD
HETATM    8  C   UNL     1      43.037 -15.803   3.027  1.00  0.00     0.116 A 
HETATM    9  C   UNL     1      43.302 -16.366   4.250  1.00  0.00     0.028 A 
HETATM   10  C   UNL     1      42.817 -14.399   2.837  1.00  0.00     0.291 A 
HETATM   11  O   UNL     1      42.618 -13.898   1.736  1.00  0.00    -0.264 OA
HETATM   12  N   UNL     1      42.846 -13.673   4.044  1.00  0.00    -0.224 N 
HETATM   13  N   UNL     1      43.145 -14.238   5.303  1.00  0.00    -0.180 NA
HETATM   14  C   UNL     1      43.354 -15.519   5.406  1.00  0.00     0.153 A 
HETATM   15  C   UNL     1      43.466 -19.280   2.144  1.00  0.00     0.031 A 
HETATM   16  C   UNL     1      43.785 -20.333   3.010  1.00  0.00     0.009 A 
ENDROOT
BRANCH  12  17
HETATM   17  C   UNL     1      42.847 -12.220   3.985  1.00  0.00     0.258 C 
BRANCH  17  18
HETATM   18  C   UNL     1      43.592 -11.357   5.023  1.00  0.00     0.244 C 
HETATM   19  N   UNL     1      42.952 -10.919   6.192  1.00  0.00    -0.321 N 
HETATM   20  C   UNL     1      41.508 -11.002   6.382  1.00  0.00     0.159 C 
HETATM   21  O   UNL     1      44.807 -11.200   4.830  1.00  0.00    -0.271 OA
BRANCH  19  22
HETATM   22  C   UNL     1      43.710 -10.320   7.261  1.00  0.00     0.036 A 
HETATM   23  C   UNL     1      43.503  -8.983   7.633  1.00  0.00     0.029 A 
HETATM   24  C   UNL     1      44.276  -8.381   8.633  1.00  0.00     0.002 A 
HETATM   25  C   UNL     1      45.266  -9.111   9.284  1.00  0.00     0.000 A 
HETATM   26  C   UNL     1      45.481 -10.441   8.936  1.00  0.00     0.002 A 
HETATM   27  C   UNL     1      44.714 -11.038   7.929  1.00  0.00     0.029 A 
ENDBRANCH  19  22
ENDBRANCH  17  18
ENDBRANCH  12  17
TORSDOF 3
ENDMDL
MODEL 2
REMARK VINA RESULT:      -8.8      1.396      2.241
REMARK  3 active torsions:
REMARK  status: ('A' for Active; 'I' for Inactive)
REMARK    1  A    between atoms: N_12  and  C_13 
REMARK    2  A    between atoms: C_13  and  C_14 
REMARK       I    between atoms: C_14  and  N_15 
REMARK    3  A    between atoms: N_15  and  C_16 
ROOT
HETATM    1  C   UNL     1      43.623 -20.594   1.531  1.00  0.00     0.048 C 
HETATM    2  C   UNL     1      43.635 -19.583   2.640  1.00  0.00    -0.061 A 
HETATM    3  C   UNL     1      43.397 -18.225   2.371  1.00  0.00     0.021 A 
HETATM    4  C   UNL     1      43.407 -17.289   3.425  1.00  0.00     0.005 A 
HETATM    5  C   UNL     1      43.663 -17.740   4.725  1.00  0.00     0.044 A 
HETATM    6  N   UNL     1      43.602 -16.644   5.563  1.00  0.00    -0.350 N 
HETATM    7  H   UNL     1      43.732 -16.663   6.567  1.00  0.00     0.166 HD
HETATM    8  C   UNL     1      43.310 -15.526   4.835  1.00  0.00     0.116 A 
HETATM    9  C   UNL     1      43.194 -15.891   3.517  1.00  0.00     0.028 A 
HETATM   10  C   UNL     1      43.120 -14.183   5.300  1.00  0.00     0.291 A 
HETATM   11  O   UNL     1      43.188 -13.871   6.483  1.00  0.00    -0.264 OA
HETATM   12  N   UNL     1      42.860 -13.275   4.254  1.00  0.00    -0.224 N 
HETATM   13  N   UNL     1      42.711 -13.645   2.899  1.00  0.00    -0.180 NA
HETATM   14  C   UNL     1      42.878 -14.887   2.545  1.00  0.00     0.153 A 
HETATM   15  C   UNL     1      43.917 -19.083   5.016  1.00  0.00     0.031 A 
HETATM   16  C   UNL     1      43.898 -19.993   3.952  1.00  0.00     0.009 A 
ENDROOT
BRANCH  12  17
HETATM   17  C   UNL     1      42.442 -11.924   4.591  1.00  0.00     0.258 C 
BRANCH  17  18
HETATM   18  C   UNL     1      43.215 -11.052   5.601  1.00  0.00     0.244 C 
HETATM   19  N   UNL     1      42.575 -10.508   6.725  1.00  0.00    -0.321 N 
HETATM   20  C   UNL     1      41.125 -10.486   6.876  1.00  0.00     0.159 C 
HETATM   21  O   UNL     1      44.442 -10.985   5.435  1.00  0.00    -0.271 OA
BRANCH  19  22
HETATM   22  C   UNL     1      43.344  -9.899   7.780  1.00  0.00     0.036 A 
HETATM   23  C   UNL     1      44.066 -10.681   8.693  1.00  0.00     0.029 A 
HETATM   24  C   UNL     1      44.769 -10.096   9.753  1.00  0.00     0.002 A 
HETATM   25  C   UNL     1      44.769  -8.714   9.911  1.00  0.00     0.000 A 
HETATM   26  C   UNL     1      44.067  -7.918   9.011  1.00  0.00     0.002 A 
HETATM   27  C   UNL     1      43.355  -8.506   7.958  1.00  0.00     0.029 A 
ENDBRANCH  19  22
ENDBRANCH  17  18
ENDBRANCH  12  17
TORSDOF 3
ENDMDL
MODEL 3
REMARK VINA RESULT:      -8.6      3.094      4.583
REMARK  3 active torsions:
REMARK  status: ('A' for Active; 'I' for Inactive)
REMARK    1  A    between atoms: N_12  and  C_13 
REMARK    2  A    between atoms: C_13  and  C_14 
REMARK       I    between atoms: C_14  and  N_15 
REMARK    3  A    between atoms: N_15  and  C_16 
ROOT
HETATM    1  C   UNL     1      43.059 -17.888   2.745  1.00  0.00     0.048 C 
HETATM    2  C   UNL     1      42.498 -16.591   3.251  1.00  0.00    -0.061 A 
HETATM    3  C   UNL     1      43.195 -15.838   4.211  1.00  0.00     0.021 A 
HETATM    4  C   UNL     1      42.657 -14.619   4.672  1.00  0.00     0.005 A 
HETATM    5  C   UNL     1      41.426 -14.190   4.163  1.00  0.00     0.044 A 
HETATM    6  N   UNL     1      41.132 -12.978   4.756  1.00  0.00    -0.350 N 
HETATM    7  H   UNL     1      40.309 -12.418   4.573  1.00  0.00     0.166 HD
HETATM    8  C   UNL     1      42.138 -12.631   5.613  1.00  0.00     0.116 A 
HETATM    9  C   UNL     1      43.083 -13.626   5.588  1.00  0.00     0.028 A 
HETATM   10  C   UNL     1      42.263 -11.446   6.409  1.00  0.00     0.291 A 
HETATM   11  O   UNL     1      41.433 -10.544   6.398  1.00  0.00    -0.264 OA
HETATM   12  N   UNL     1      43.427 -11.441   7.203  1.00  0.00    -0.224 N 
HETATM   13  N   UNL     1      44.419 -12.446   7.163  1.00  0.00    -0.180 NA
HETATM   14  C   UNL     1      44.255 -13.490   6.403  1.00  0.00     0.153 A 
HETATM   15  C   UNL     1      40.707 -14.929   3.219  1.00  0.00     0.031 A 
HETATM   16  C   UNL     1      41.265 -16.133   2.774  1.00  0.00     0.009 A 
ENDROOT
BRANCH  12  17
HETATM   17  C   UNL     1      43.791 -10.218   7.900  1.00  0.00     0.258 C 
BRANCH  17  18
HETATM   18  C   UNL     1      43.615 -10.057   9.423  1.00  0.00     0.244 C 
HETATM   19  N   UNL     1      42.811  -9.038   9.955  1.00  0.00    -0.321 N 
HETATM   20  C   UNL     1      42.322  -7.920   9.157  1.00  0.00     0.159 C 
HETATM   21  O   UNL     1      44.103 -10.956  10.126  1.00  0.00    -0.271 OA
BRANCH  19  22
HETATM   22  C   UNL     1      42.461  -9.036  11.352  1.00  0.00     0.036 A 
HETATM   23  C   UNL     1      41.352  -9.756  11.822  1.00  0.00     0.029 A 
HETATM   24  C   UNL     1      40.976  -9.712  13.169  1.00  0.00     0.002 A 
HETATM   25  C   UNL     1      41.712  -8.952  14.074  1.00  0.00     0.000 A 
HETATM   26  C   UNL     1      42.821  -8.238  13.631  1.00  0.00     0.002 A 
HETATM   27  C   UNL     1      43.188  -8.275  12.281  1.00  0.00     0.029 A 
ENDBRANCH  19  22
ENDBRANCH  17  18
ENDBRANCH  12  17
TORSDOF 3
ENDMDL
MODEL 4
REMARK VINA RESULT:      -8.4      4.410      6.914
REMARK  3 active torsions:
REMARK  status: ('A' for Active; 'I' for Inactive)
REMARK    1  A    between atoms: N_12  and  C_13 
REMARK    2  A    between atoms: C_13  and  C_14 
REMARK       I    between atoms: C_14  and  N_15 
REMARK    3  A    between atoms: N_15  and  C_16 
ROOT
HETATM    1  C   UNL     1      43.874 -20.595   2.194  1.00  0.00     0.048 C 
HETATM    2  C   UNL     1      43.727 -19.259   2.864  1.00  0.00    -0.061 A 
HETATM    3  C   UNL     1      43.115 -18.187   2.193  1.00  0.00     0.021 A 
HETATM    4  C   UNL     1      42.981 -16.942   2.839  1.00  0.00     0.005 A 
HETATM    5  C   UNL     1      43.474 -16.800   4.141  1.00  0.00     0.044 A 
HETATM    6  N   UNL     1      43.208 -15.507   4.547  1.00  0.00    -0.350 N 
HETATM    7  H   UNL     1      43.437 -15.115   5.451  1.00  0.00     0.166 HD
HETATM    8  C   UNL     1      42.562 -14.837   3.547  1.00  0.00     0.116 A 
HETATM    9  C   UNL     1      42.418 -15.692   2.482  1.00  0.00     0.028 A 
HETATM   10  C   UNL     1      42.071 -13.490   3.548  1.00  0.00     0.291 A 
HETATM   11  O   UNL     1      42.170 -12.745   4.515  1.00  0.00    -0.264 OA
HETATM   12  N   UNL     1      41.480 -13.124   2.322  1.00  0.00    -0.224 N 
HETATM   13  N   UNL     1      41.301 -14.003   1.232  1.00  0.00    -0.180 NA
HETATM   14  C   UNL     1      41.754 -15.222   1.302  1.00  0.00     0.153 A 
HETATM   15  C   UNL     1      44.100 -17.847   4.823  1.00  0.00     0.031 A 
HETATM   16  C   UNL     1      44.217 -19.076   4.162  1.00  0.00     0.009 A 
ENDROOT
BRANCH  12  17
HETATM   17  C   UNL     1      40.755 -11.865   2.246  1.00  0.00     0.258 C 
BRANCH  17  18
HETATM   18  C   UNL     1      39.574 -11.655   1.277  1.00  0.00     0.244 C 
HETATM   19  N   UNL     1      39.792 -11.289  -0.060  1.00  0.00    -0.321 N 
HETATM   20  C   UNL     1      41.083 -10.822  -0.552  1.00  0.00     0.159 C 
HETATM   21  O   UNL     1      38.453 -11.963   1.709  1.00  0.00    -0.271 OA
BRANCH  19  22
HETATM   22  C   UNL     1      38.712 -11.325  -1.013  1.00  0.00     0.036 A 
HETATM   23  C   UNL     1      37.942 -10.182  -1.277  1.00  0.00     0.029 A 
HETATM   24  C   UNL     1      36.858 -10.226  -2.160  1.00  0.00     0.002 A 
HETATM   25  C   UNL     1      36.530 -11.416  -2.803  1.00  0.00     0.000 A 
HETATM   26  C   UNL     1      37.286 -12.559  -2.562  1.00  0.00     0.002 A 
HETATM   27  C   UNL     1      38.363 -12.515  -1.670  1.00  0.00     0.029 A 
ENDBRANCH  19  22
ENDBRANCH  17  18
ENDBRANCH  12  17
TORSDOF 3
ENDMDL
MODEL 5
REMARK VINA RESULT:      -8.3      1.577      8.514
REMARK  3 active torsions:
REMARK  status: ('A' for Active; 'I' for Inactive)
REMARK    1  A    between atoms: N_12  and  C_13 
REMARK    2  A    between atoms: C_13  and  C_14 
REMARK       I    between atoms: C_14  and  N_15 
REMARK    3  A    between atoms: N_15  and  C_16 
ROOT
HETATM    1  C   UNL     1      43.630  -7.177   9.190  1.00  0.00     0.048 C 
HETATM    2  C   UNL     1      43.895  -8.544   8.628  1.00  0.00    -0.061 A 
HETATM    3  C   UNL     1      42.969  -9.152   7.764  1.00  0.00     0.021 A 
HETATM    4  C   UNL     1      43.235 -10.434   7.241  1.00  0.00     0.005 A 
HETATM    5  C   UNL     1      44.423 -11.078   7.606  1.00  0.00     0.044 A 
HETATM    6  N   UNL     1      44.451 -12.295   6.955  1.00  0.00    -0.350 N 
HETATM    7  H   UNL     1      45.196 -12.978   7.015  1.00  0.00     0.166 HD
HETATM    8  C   UNL     1      43.326 -12.433   6.192  1.00  0.00     0.116 A 
HETATM    9  C   UNL     1      42.557 -11.308   6.356  1.00  0.00     0.028 A 
HETATM   10  C   UNL     1      42.960 -13.519   5.331  1.00  0.00     0.291 A 
HETATM   11  O   UNL     1      43.669 -14.504   5.161  1.00  0.00    -0.264 OA
HETATM   12  N   UNL     1      41.704 -13.332   4.720  1.00  0.00    -0.224 N 
HETATM   13  N   UNL     1      40.919 -12.166   4.860  1.00  0.00    -0.180 NA
HETATM   14  C   UNL     1      41.318 -11.206   5.644  1.00  0.00     0.153 A 
HETATM   15  C   UNL     1      45.352 -10.500   8.476  1.00  0.00     0.031 A 
HETATM   16  C   UNL     1      45.067  -9.225   8.978  1.00  0.00     0.009 A 
ENDROOT
BRANCH  12  17
HETATM   17  C   UNL     1      41.298 -14.246   3.665  1.00  0.00     0.258 C 
BRANCH  17  18
HETATM   18  C   UNL     1      41.649 -15.747   3.698  1.00  0.00     0.244 C 
HETATM   19  N   UNL     1      42.677 -16.268   2.898  1.00  0.00    -0.321 N 
HETATM   20  C   UNL     1      43.285 -15.517   1.805  1.00  0.00     0.159 C 
HETATM   21  O   UNL     1      41.074 -16.422   4.566  1.00  0.00    -0.271 OA
BRANCH  19  22
HETATM   22  C   UNL     1      43.155 -17.611   3.104  1.00  0.00     0.036 A 
HETATM   23  C   UNL     1      42.879 -18.628   2.177  1.00  0.00     0.029 A 
HETATM   24  C   UNL     1      43.294 -19.945   2.401  1.00  0.00     0.002 A 
HETATM   25  C   UNL     1      44.003 -20.266   3.555  1.00  0.00     0.000 A 
HETATM   26  C   UNL     1      44.296 -19.271   4.482  1.00  0.00     0.002 A 
HETATM   27  C   UNL     1      43.870 -17.957   4.261  1.00  0.00     0.029 A 
ENDBRANCH  19  22
ENDBRANCH  17  18
ENDBRANCH  12  17
TORSDOF 3
ENDMDL
MODEL 6
REMARK VINA RESULT:      -8.2      2.930      9.614
REMARK  3 active torsions:
REMARK  status: ('A' for Active; 'I' for Inactive)
REMARK    1  A    between atoms: N_12  and  C_13 
REMARK    2  A    between atoms: C_13  and  C_14 
REMARK       I    between atoms: C_14  and  N_15 
REMARK    3  A    between atoms: N_15  and  C_16 
ROOT
HETATM    1  C   UNL     1      43.064  -7.092  14.581  1.00  0.00     0.048 C 
HETATM    2  C   UNL     1      42.771  -7.375  13.136  1.00  0.00    -0.061 A 
HETATM    3  C   UNL     1      43.574  -8.267  12.406  1.00  0.00     0.021 A 
HETATM    4  C   UNL     1      43.282  -8.525  11.052  1.00  0.00     0.005 A 
HETATM    5  C   UNL     1      42.194  -7.874  10.459  1.00  0.00     0.044 A 
HETATM    6  N   UNL     1      42.115  -8.306   9.150  1.00  0.00    -0.350 N 
HETATM    7  H   UNL     1      41.417  -8.017   8.477  1.00  0.00     0.166 HD
HETATM    8  C   UNL     1      43.111  -9.208   8.904  1.00  0.00     0.116 A 
HETATM    9  C   UNL     1      43.849  -9.355  10.052  1.00  0.00     0.028 A 
HETATM   10  C   UNL     1      43.382  -9.930   7.696  1.00  0.00     0.291 A 
HETATM   11  O   UNL     1      42.696  -9.822   6.686  1.00  0.00    -0.264 OA
HETATM   12  N   UNL     1      44.517 -10.758   7.797  1.00  0.00    -0.224 N 
HETATM   13  N   UNL     1      45.266 -10.938   8.981  1.00  0.00    -0.180 NA
HETATM   14  C   UNL     1      44.956 -10.266  10.052  1.00  0.00     0.153 A 
HETATM   15  C   UNL     1      41.390  -6.971  11.160  1.00  0.00     0.031 A 
HETATM   16  C   UNL     1      41.698  -6.734  12.506  1.00  0.00     0.009 A 
ENDROOT
BRANCH  12  17
HETATM   17  C   UNL     1      44.790 -11.703   6.726  1.00  0.00     0.258 C 
BRANCH  17  18
HETATM   18  C   UNL     1      43.773 -12.782   6.304  1.00  0.00     0.244 C 
HETATM   19  N   UNL     1      43.360 -12.905   4.969  1.00  0.00    -0.321 N 
HETATM   20  C   UNL     1      43.631 -11.886   3.961  1.00  0.00     0.159 C 
HETATM   21  O   UNL     1      43.461 -13.608   7.176  1.00  0.00    -0.271 OA
BRANCH  19  22
HETATM   22  C   UNL     1      42.600 -14.052   4.541  1.00  0.00     0.036 A 
HETATM   23  C   UNL     1      43.234 -15.266   4.235  1.00  0.00     0.029 A 
HETATM   24  C   UNL     1      42.506 -16.365   3.766  1.00  0.00     0.002 A 
HETATM   25  C   UNL     1      41.127 -16.271   3.603  1.00  0.00     0.000 A 
HETATM   26  C   UNL     1      40.478 -15.078   3.908  1.00  0.00     0.002 A 
HETATM   27  C   UNL     1      41.210 -13.977   4.367  1.00  0.00     0.029 A 
ENDBRANCH  19  22
ENDBRANCH  17  18
ENDBRANCH  12  17
TORSDOF 3
ENDMDL
MODEL 7
REMARK VINA RESULT:      -8.0      2.606      9.507
REMARK  3 active torsions:
REMARK  status: ('A' for Active; 'I' for Inactive)
REMARK    1  A    between atoms: N_12  and  C_13 
REMARK    2  A    between atoms: C_13  and  C_14 
REMARK       I    between atoms: C_14  and  N_15 
REMARK    3  A    between atoms: N_15  and  C_16 
ROOT
HETATM    1  C   UNL     1      40.689  -6.137  12.487  1.00  0.00     0.048 C 
HETATM    2  C   UNL     1      41.646  -7.144  11.918  1.00  0.00    -0.061 A 
HETATM    3  C   UNL     1      41.476  -7.630  10.611  1.00  0.00     0.021 A 
HETATM    4  C   UNL     1      42.387  -8.572  10.090  1.00  0.00     0.005 A 
HETATM    5  C   UNL     1      43.442  -9.010  10.899  1.00  0.00     0.044 A 
HETATM    6  N   UNL     1      44.187  -9.905  10.158  1.00  0.00    -0.350 N 
HETATM    7  H   UNL     1      45.024 -10.379  10.476  1.00  0.00     0.166 HD
HETATM    8  C   UNL     1      43.640 -10.039   8.914  1.00  0.00     0.116 A 
HETATM    9  C   UNL     1      42.527  -9.238   8.848  1.00  0.00     0.028 A 
HETATM   10  C   UNL     1      44.104 -10.835   7.816  1.00  0.00     0.291 A 
HETATM   11  O   UNL     1      45.120 -11.519   7.870  1.00  0.00    -0.264 OA
HETATM   12  N   UNL     1      43.265 -10.751   6.687  1.00  0.00    -0.224 N 
HETATM   13  N   UNL     1      42.135  -9.909   6.599  1.00  0.00    -0.180 NA
HETATM   14  C   UNL     1      41.776  -9.195   7.627  1.00  0.00     0.153 A 
HETATM   15  C   UNL     1      43.622  -8.552  12.207  1.00  0.00     0.031 A 
HETATM   16  C   UNL     1      42.707  -7.614  12.700  1.00  0.00     0.009 A 
ENDROOT
BRANCH  12  17
HETATM   17  C   UNL     1      43.719 -11.336   5.435  1.00  0.00     0.258 C 
BRANCH  17  18
HETATM   18  C   UNL     1      43.256 -12.729   4.964  1.00  0.00     0.244 C 
HETATM   19  N   UNL     1      42.769 -12.929   3.664  1.00  0.00    -0.321 N 
HETATM   20  C   UNL     1      42.410 -11.829   2.777  1.00  0.00     0.159 C 
HETATM   21  O   UNL     1      43.473 -13.668   5.746  1.00  0.00    -0.271 OA
BRANCH  19  22
HETATM   22  C   UNL     1      42.564 -14.262   3.157  1.00  0.00     0.036 A 
HETATM   23  C   UNL     1      41.551 -15.084   3.674  1.00  0.00     0.029 A 
HETATM   24  C   UNL     1      41.384 -16.399   3.223  1.00  0.00     0.002 A 
HETATM   25  C   UNL     1      42.224 -16.910   2.238  1.00  0.00     0.000 A 
HETATM   26  C   UNL     1      43.228 -16.108   1.705  1.00  0.00     0.002 A 
HETATM   27  C   UNL     1      43.401 -14.798   2.166  1.00  0.00     0.029 A 
ENDBRANCH  19  22
ENDBRANCH  17  18
ENDBRANCH  12  17
TORSDOF 3
ENDMDL
MODEL 8
REMARK VINA RESULT:      -8.0     15.667     18.008
REMARK  3 active torsions:
REMARK  status: ('A' for Active; 'I' for Inactive)
REMARK    1  A    between atoms: N_12  and  C_13 
REMARK    2  A    between atoms: C_13  and  C_14 
REMARK       I    between atoms: C_14  and  N_15 
REMARK    3  A    between atoms: N_15  and  C_16 
ROOT
HETATM    1  C   UNL     1      43.710 -35.171  -6.574  1.00  0.00     0.048 C 
HETATM    2  C   UNL     1      43.947 -33.706  -6.350  1.00  0.00    -0.061 A 
HETATM    3  C   UNL     1      44.037 -33.188  -5.046  1.00  0.00     0.021 A 
HETATM    4  C   UNL     1      44.264 -31.811  -4.853  1.00  0.00     0.005 A 
HETATM    5  C   UNL     1      44.389 -30.984  -5.975  1.00  0.00     0.044 A 
HETATM    6  N   UNL     1      44.620 -29.700  -5.521  1.00  0.00    -0.350 N 
HETATM    7  H   UNL     1      44.765 -28.886  -6.105  1.00  0.00     0.166 HD
HETATM    8  C   UNL     1      44.650 -29.696  -4.155  1.00  0.00     0.116 A 
HETATM    9  C   UNL     1      44.425 -30.978  -3.718  1.00  0.00     0.028 A 
HETATM   10  C   UNL     1      44.891 -28.594  -3.271  1.00  0.00     0.291 A 
HETATM   11  O   UNL     1      45.128 -27.459  -3.670  1.00  0.00    -0.264 OA
HETATM   12  N   UNL     1      44.815 -28.957  -1.912  1.00  0.00    -0.224 N 
HETATM   13  N   UNL     1      44.613 -30.277  -1.453  1.00  0.00    -0.180 NA
HETATM   14  C   UNL     1      44.419 -31.238  -2.309  1.00  0.00     0.153 A 
HETATM   15  C   UNL     1      44.289 -31.472  -7.281  1.00  0.00     0.031 A 
HETATM   16  C   UNL     1      44.067 -32.845  -7.446  1.00  0.00     0.009 A 
ENDROOT
BRANCH  12  17
HETATM   17  C   UNL     1      45.242 -27.995  -0.908  1.00  0.00     0.258 C 
BRANCH  17  18
HETATM   18  C   UNL     1      46.569 -28.147  -0.137  1.00  0.00     0.244 C 
HETATM   19  N   UNL     1      46.622 -28.840   1.082  1.00  0.00    -0.321 N 
HETATM   20  C   UNL     1      45.427 -29.216   1.830  1.00  0.00     0.159 C 
HETATM   21  O   UNL     1      47.588 -27.750  -0.722  1.00  0.00    -0.271 OA
BRANCH  19  22
HETATM   22  C   UNL     1      47.889 -29.181   1.675  1.00  0.00     0.036 A 
HETATM   23  C   UNL     1      48.827 -29.960   0.980  1.00  0.00     0.029 A 
HETATM   24  C   UNL     1      50.036 -30.339   1.574  1.00  0.00     0.002 A 
HETATM   25  C   UNL     1      50.332 -29.937   2.873  1.00  0.00     0.000 A 
HETATM   26  C   UNL     1      49.420 -29.157   3.576  1.00  0.00     0.002 A 
HETATM   27  C   UNL     1      48.207 -28.787   2.984  1.00  0.00     0.029 A 
ENDBRANCH  19  22
ENDBRANCH  17  18
ENDBRANCH  12  17
TORSDOF 3
ENDMDL
MODEL 9
REMARK VINA RESULT:      -8.0      1.978      2.871
REMARK  3 active torsions:
REMARK  status: ('A' for Active; 'I' for Inactive)
REMARK    1  A    between atoms: N_12  and  C_13 
REMARK    2  A    between atoms: C_13  and  C_14 
REMARK       I    between atoms: C_14  and  N_15 
REMARK    3  A    between atoms: N_15  and  C_16 
ROOT
HETATM    1  C   UNL     1      43.882 -19.225   3.919  1.00  0.00     0.048 C 
HETATM    2  C   UNL     1      43.607 -17.821   3.465  1.00  0.00    -0.061 A 
HETATM    3  C   UNL     1      43.378 -16.799   4.402  1.00  0.00     0.021 A 
HETATM    4  C   UNL     1      43.126 -15.485   3.959  1.00  0.00     0.005 A 
HETATM    5  C   UNL     1      43.101 -15.230   2.583  1.00  0.00     0.044 A 
HETATM    6  N   UNL     1      42.852 -13.882   2.416  1.00  0.00    -0.350 N 
HETATM    7  H   UNL     1      42.791 -13.401   1.527  1.00  0.00     0.166 HD
HETATM    8  C   UNL     1      42.727 -13.284   3.637  1.00  0.00     0.116 A 
HETATM    9  C   UNL     1      42.881 -14.247   4.603  1.00  0.00     0.028 A 
HETATM   10  C   UNL     1      42.500 -11.900   3.935  1.00  0.00     0.291 A 
HETATM   11  O   UNL     1      42.400 -11.040   3.067  1.00  0.00    -0.264 OA
HETATM   12  N   UNL     1      42.394 -11.649   5.317  1.00  0.00    -0.224 N 
HETATM   13  N   UNL     1      42.579 -12.627   6.319  1.00  0.00    -0.180 NA
HETATM   14  C   UNL     1      42.803 -13.864   5.983  1.00  0.00     0.153 A 
HETATM   15  C   UNL     1      43.310 -16.232   1.631  1.00  0.00     0.031 A 
HETATM   16  C   UNL     1      43.563 -17.528   2.097  1.00  0.00     0.009 A 
ENDROOT
BRANCH  12  17
HETATM   17  C   UNL     1      42.373 -10.268   5.775  1.00  0.00     0.258 C 
BRANCH  17  18
HETATM   18  C   UNL     1      42.944  -9.849   7.145  1.00  0.00     0.244 C 
HETATM   19  N   UNL     1      42.106  -9.362   8.159  1.00  0.00    -0.321 N 
HETATM   20  C   UNL     1      40.724  -8.964   7.920  1.00  0.00     0.159 C 
HETATM   21  O   UNL     1      44.144 -10.099   7.335  1.00  0.00    -0.271 OA
BRANCH  19  22
HETATM   22  C   UNL     1      42.603  -9.197   9.501  1.00  0.00     0.036 A 
HETATM   23  C   UNL     1      43.001 -10.304  10.267  1.00  0.00     0.029 A 
HETATM   24  C   UNL     1      43.431 -10.152  11.590  1.00  0.00     0.002 A 
HETATM   25  C   UNL     1      43.480  -8.887  12.168  1.00  0.00     0.000 A 
HETATM   26  C   UNL     1      43.098  -7.776  11.423  1.00  0.00     0.002 A 
HETATM   27  C   UNL     1      42.657  -7.930  10.104  1.00  0.00     0.029 A 
ENDBRANCH  19  22
ENDBRANCH  17  18
ENDBRANCH  12  17
TORSDOF 3
ENDMDL
MODEL 10
REMARK VINA RESULT:      -7.9     15.785     18.019
REMARK  3 active torsions:
REMARK  status: ('A' for Active; 'I' for Inactive)
REMARK    1  A    between atoms: N_12  and  C_13 
REMARK    2  A    between atoms: C_13  and  C_14 
REMARK       I    between atoms: C_14  and  N_15 
REMARK    3  A    between atoms: N_15  and  C_16 
ROOT
HETATM    1  C   UNL     1      53.498 -31.799   6.395  1.00  0.00     0.048 C 
HETATM    2  C   UNL     1      52.036 -31.925   6.079  1.00  0.00    -0.061 A 
HETATM    3  C   UNL     1      51.389 -30.954   5.296  1.00  0.00     0.021 A 
HETATM    4  C   UNL     1      50.017 -31.089   5.004  1.00  0.00     0.005 A 
HETATM    5  C   UNL     1      49.325 -32.194   5.513  1.00  0.00     0.044 A 
HETATM    6  N   UNL     1      48.018 -32.102   5.076  1.00  0.00    -0.350 N 
HETATM    7  H   UNL     1      47.283 -32.768   5.275  1.00  0.00     0.166 HD
HETATM    8  C   UNL     1      47.870 -30.983   4.307  1.00  0.00     0.116 A 
HETATM    9  C   UNL     1      49.080 -30.337   4.254  1.00  0.00     0.028 A 
HETATM   10  C   UNL     1      46.698 -30.517   3.626  1.00  0.00     0.291 A 
HETATM   11  O   UNL     1      45.630 -31.119   3.648  1.00  0.00    -0.264 OA
HETATM   12  N   UNL     1      46.908 -29.299   2.948  1.00  0.00    -0.224 N 
HETATM   13  N   UNL     1      48.155 -28.642   2.864  1.00  0.00    -0.180 NA
HETATM   14  C   UNL     1      49.187 -29.128   3.490  1.00  0.00     0.153 A 
HETATM   15  C   UNL     1      49.943 -33.165   6.307  1.00  0.00     0.031 A 
HETATM   16  C   UNL     1      51.307 -33.009   6.579  1.00  0.00     0.009 A 
ENDROOT
BRANCH  12  17
HETATM   17  C   UNL     1      45.874 -28.816   2.046  1.00  0.00     0.258 C 
BRANCH  17  18
HETATM   18  C   UNL     1      45.878 -29.146   0.541  1.00  0.00     0.244 C 
HETATM   19  N   UNL     1      44.687 -29.163  -0.200  1.00  0.00    -0.321 N 
HETATM   20  C   UNL     1      43.368 -29.148   0.424  1.00  0.00     0.159 C 
HETATM   21  O   UNL     1      46.994 -29.252   0.009  1.00  0.00    -0.271 OA
BRANCH  19  22
HETATM   22  C   UNL     1      44.720 -29.237  -1.638  1.00  0.00     0.036 A 
HETATM   23  C   UNL     1      45.068 -28.120  -2.412  1.00  0.00     0.029 A 
HETATM   24  C   UNL     1      45.047 -28.173  -3.811  1.00  0.00     0.002 A 
HETATM   25  C   UNL     1      44.687 -29.350  -4.459  1.00  0.00     0.000 A 
HETATM   26  C   UNL     1      44.347 -30.472  -3.710  1.00  0.00     0.002 A 
HETATM   27  C   UNL     1      44.358 -30.414  -2.312  1.00  0.00     0.029 A 
ENDBRANCH  19  22
ENDBRANCH  17  18
ENDBRANCH  12  17
TORSDOF 3
ENDMDL
