MODEL 1
REMARK VINA RESULT:      -9.6      0.000      0.000
REMARK  2 active torsions:
REMARK  status: ('A' for Active; 'I' for Inactive)
REMARK       I    between atoms: N_4  and  C_5 
REMARK       I    between atoms: C_5  and  N_6 
REMARK    1  A    between atoms: N_6  and  C_7 
REMARK    2  A    between atoms: C_20  and  C_21 
ROOT
HETATM    1  C   UNL     1      38.408  -9.770   2.883  1.00  0.00     0.011 C 
HETATM    2  C   UNL     1      39.070 -10.810   1.996  1.00  0.00     0.002 C 
HETATM    3  C   UNL     1      39.581 -12.024   2.765  1.00  0.00     0.132 C 
HETATM    4  N   UNL     1      39.573 -13.110   1.793  1.00  0.00    -0.325 N 
HETATM    5  C   UNL     1      40.143 -14.359   1.927  1.00  0.00     0.323 C 
HETATM    6  N   UNL     1      40.719 -14.586   3.157  1.00  0.00    -0.309 N 
HETATM    7  O   UNL     1      40.135 -15.176   1.009  1.00  0.00    -0.247 OA
HETATM    8  C   UNL     1      38.830 -12.745   0.583  1.00  0.00     0.125 C 
HETATM    9  C   UNL     1      38.113 -11.443   0.981  1.00  0.00     0.036 C 
HETATM   10  H   UNL     1      40.273 -14.126   3.935  1.00  0.00     0.170 HD
ENDROOT
BRANCH   6  11
HETATM   11  C   UNL     1      41.648 -15.600   3.460  1.00  0.00     0.038 A 
HETATM   12  C   UNL     1      41.720 -16.796   2.739  1.00  0.00     0.062 A 
HETATM   13  C   UNL     1      42.704 -17.739   3.041  1.00  0.00     0.070 A 
HETATM   14  C   UNL     1      43.615 -17.505   4.070  1.00  0.00     0.096 A 
HETATM   15  N   UNL     1      42.801 -18.895   2.267  1.00  0.00    -0.323 N 
HETATM   16  O   UNL     1      44.623 -18.364   4.406  1.00  0.00    -0.335 OA
HETATM   17  C   UNL     1      43.552 -16.312   4.787  1.00  0.00     0.041 A 
HETATM   18  C   UNL     1      44.543 -19.659   3.817  1.00  0.00     0.217 C 
HETATM   19  C   UNL     1      43.742 -19.851   2.520  1.00  0.00     0.251 C 
HETATM   20  C   UNL     1      44.009 -20.627   4.869  1.00  0.00     0.050 C 
HETATM   21  O   UNL     1      43.874 -20.829   1.786  1.00  0.00    -0.270 OA
HETATM   22  C   UNL     1      42.578 -15.358   4.478  1.00  0.00     0.032 A 
HETATM   23  H   UNL     1      42.205 -19.032   1.462  1.00  0.00     0.169 HD
ENDBRANCH   6  11
BRANCH   8  24
HETATM   24  C   UNL     1      39.684 -12.556  -0.656  1.00  0.00     0.003 A 
HETATM   25  C   UNL     1      39.523 -13.453  -1.720  1.00  0.00     0.124 A 
HETATM   26  F   UNL     1      38.613 -14.435  -1.630  1.00  0.00    -0.205 F 
HETATM   27  C   UNL     1      40.279 -13.352  -2.884  1.00  0.00     0.043 A 
HETATM   28  C   UNL     1      41.220 -12.333  -3.009  1.00  0.00     0.003 A 
HETATM   29  C   UNL     1      41.391 -11.420  -1.969  1.00  0.00     0.001 A 
HETATM   30  C   UNL     1      40.628 -11.528  -0.803  1.00  0.00     0.012 A 
ENDBRANCH   8  24
TORSDOF 2
ENDMDL
MODEL 2
REMARK VINA RESULT:      -9.5      3.161      8.286
REMARK  2 active torsions:
REMARK  status: ('A' for Active; 'I' for Inactive)
REMARK       I    between atoms: N_4  and  C_5 
REMARK       I    between atoms: C_5  and  N_6 
REMARK    1  A    between atoms: N_6  and  C_7 
REMARK    2  A    between atoms: C_20  and  C_21 
ROOT
HETATM    1  C   UNL     1      39.965 -15.814   6.883  1.00  0.00     0.011 C 
HETATM    2  C   UNL     1      40.757 -16.057   5.610  1.00  0.00     0.002 C 
HETATM    3  C   UNL     1      40.577 -14.958   4.567  1.00  0.00     0.132 C 
HETATM    4  N   UNL     1      41.800 -14.994   3.774  1.00  0.00    -0.325 N 
HETATM    5  C   UNL     1      42.044 -14.349   2.579  1.00  0.00     0.323 C 
HETATM    6  N   UNL     1      41.012 -13.540   2.156  1.00  0.00    -0.309 N 
HETATM    7  O   UNL     1      43.093 -14.507   1.960  1.00  0.00    -0.247 OA
HETATM    8  C   UNL     1      42.834 -15.812   4.416  1.00  0.00     0.125 C 
HETATM    9  C   UNL     1      42.274 -16.057   5.827  1.00  0.00     0.036 C 
HETATM   10  H   UNL     1      40.476 -13.103   2.889  1.00  0.00     0.170 HD
ENDROOT
BRANCH   6  11
HETATM   11  C   UNL     1      40.834 -13.044   0.850  1.00  0.00     0.038 A 
HETATM   12  C   UNL     1      41.165 -11.734   0.491  1.00  0.00     0.062 A 
HETATM   13  C   UNL     1      41.029 -11.315  -0.834  1.00  0.00     0.070 A 
HETATM   14  C   UNL     1      40.552 -12.191  -1.807  1.00  0.00     0.096 A 
HETATM   15  N   UNL     1      41.426 -10.025  -1.186  1.00  0.00    -0.323 N 
HETATM   16  O   UNL     1      40.419 -11.866  -3.128  1.00  0.00    -0.335 OA
HETATM   17  C   UNL     1      40.227 -13.500  -1.456  1.00  0.00     0.041 A 
HETATM   18  C   UNL     1      40.547 -10.478  -3.431  1.00  0.00     0.217 C 
HETATM   19  C   UNL     1      41.313  -9.562  -2.465  1.00  0.00     0.251 C 
HETATM   20  C   UNL     1      39.146  -9.908  -3.639  1.00  0.00     0.050 C 
HETATM   21  O   UNL     1      41.738  -8.454  -2.784  1.00  0.00    -0.270 OA
HETATM   22  C   UNL     1      40.376 -13.928  -0.133  1.00  0.00     0.032 A 
HETATM   23  H   UNL     1      41.858  -9.412  -0.507  1.00  0.00     0.169 HD
ENDBRANCH   6  11
BRANCH   8  24
HETATM   24  C   UNL     1      43.148 -17.114   3.705  1.00  0.00     0.003 A 
HETATM   25  C   UNL     1      44.233 -17.876   4.156  1.00  0.00     0.124 A 
HETATM   26  F   UNL     1      44.949 -17.455   5.208  1.00  0.00    -0.205 F 
HETATM   27  C   UNL     1      44.589 -19.076   3.546  1.00  0.00     0.043 A 
HETATM   28  C   UNL     1      43.852 -19.544   2.461  1.00  0.00     0.003 A 
HETATM   29  C   UNL     1      42.760 -18.809   2.000  1.00  0.00     0.001 A 
HETATM   30  C   UNL     1      42.408 -17.606   2.618  1.00  0.00     0.012 A 
ENDBRANCH   8  24
TORSDOF 2
ENDMDL
MODEL 3
REMARK VINA RESULT:      -9.1      5.113      7.899
REMARK  2 active torsions:
REMARK  status: ('A' for Active; 'I' for Inactive)
REMARK       I    between atoms: N_4  and  C_5 
REMARK       I    between atoms: C_5  and  N_6 
REMARK    1  A    between atoms: N_6  and  C_7 
REMARK    2  A    between atoms: C_20  and  C_21 
ROOT
HETATM    1  C   UNL     1      40.175 -14.568   0.065  1.00  0.00     0.011 C 
HETATM    2  C   UNL     1      40.920 -14.901   1.346  1.00  0.00     0.002 C 
HETATM    3  C   UNL     1      40.978 -13.738   2.332  1.00  0.00     0.132 C 
HETATM    4  N   UNL     1      41.115 -14.367   3.640  1.00  0.00    -0.325 N 
HETATM    5  C   UNL     1      41.422 -13.753   4.837  1.00  0.00     0.323 C 
HETATM    6  N   UNL     1      41.544 -12.384   4.752  1.00  0.00    -0.309 N 
HETATM    7  O   UNL     1      41.581 -14.396   5.872  1.00  0.00    -0.247 OA
HETATM    8  C   UNL     1      40.850 -15.808   3.576  1.00  0.00     0.125 C 
HETATM    9  C   UNL     1      40.246 -15.999   2.174  1.00  0.00     0.036 C 
HETATM   10  H   UNL     1      40.950 -11.938   4.071  1.00  0.00     0.170 HD
ENDROOT
BRANCH   6  11
HETATM   11  C   UNL     1      42.170 -11.550   5.699  1.00  0.00     0.038 A 
HETATM   12  C   UNL     1      43.553 -11.553   5.907  1.00  0.00     0.062 A 
HETATM   13  C   UNL     1      44.127 -10.658   6.812  1.00  0.00     0.070 A 
HETATM   14  C   UNL     1      43.330  -9.763   7.523  1.00  0.00     0.096 A 
HETATM   15  N   UNL     1      45.514 -10.632   6.958  1.00  0.00    -0.323 N 
HETATM   16  O   UNL     1      43.819  -8.838   8.403  1.00  0.00    -0.335 OA
HETATM   17  C   UNL     1      41.952  -9.751   7.314  1.00  0.00     0.041 A 
HETATM   18  C   UNL     1      45.188  -9.005   8.765  1.00  0.00     0.217 C 
HETATM   19  C   UNL     1      46.128  -9.780   7.830  1.00  0.00     0.251 C 
HETATM   20  C   UNL     1      45.237  -9.647  10.150  1.00  0.00     0.050 C 
HETATM   21  O   UNL     1      47.353  -9.706   7.896  1.00  0.00    -0.270 OA
HETATM   22  C   UNL     1      41.375 -10.635   6.397  1.00  0.00     0.032 A 
HETATM   23  H   UNL     1      46.108 -11.213   6.381  1.00  0.00     0.169 HD
ENDBRANCH   6  11
BRANCH   8  24
HETATM   24  C   UNL     1      42.067 -16.688   3.785  1.00  0.00     0.003 A 
HETATM   25  C   UNL     1      42.305 -17.203   5.066  1.00  0.00     0.124 A 
HETATM   26  F   UNL     1      41.451 -16.928   6.062  1.00  0.00    -0.205 F 
HETATM   27  C   UNL     1      43.408 -18.008   5.339  1.00  0.00     0.043 A 
HETATM   28  C   UNL     1      44.303 -18.321   4.318  1.00  0.00     0.003 A 
HETATM   29  C   UNL     1      44.081 -17.829   3.032  1.00  0.00     0.001 A 
HETATM   30  C   UNL     1      42.972 -17.022   2.765  1.00  0.00     0.012 A 
ENDBRANCH   8  24
TORSDOF 2
ENDMDL
MODEL 4
REMARK VINA RESULT:      -9.0      2.739      4.467
REMARK  2 active torsions:
REMARK  status: ('A' for Active; 'I' for Inactive)
REMARK       I    between atoms: N_4  and  C_5 
REMARK       I    between atoms: C_5  and  N_6 
REMARK    1  A    between atoms: N_6  and  C_7 
REMARK    2  A    between atoms: C_20  and  C_21 
ROOT
HETATM    1  C   UNL     1      37.949 -14.610  -4.047  1.00  0.00     0.011 C 
HETATM    2  C   UNL     1      38.302 -13.803  -2.810  1.00  0.00     0.002 C 
HETATM    3  C   UNL     1      39.227 -14.543  -1.848  1.00  0.00     0.132 C 
HETATM    4  N   UNL     1      39.936 -13.491  -1.132  1.00  0.00    -0.325 N 
HETATM    5  C   UNL     1      40.727 -13.628  -0.009  1.00  0.00     0.323 C 
HETATM    6  N   UNL     1      40.887 -14.929   0.411  1.00  0.00    -0.309 N 
HETATM    7  O   UNL     1      41.223 -12.656   0.556  1.00  0.00    -0.247 OA
HETATM    8  C   UNL     1      39.748 -12.183  -1.768  1.00  0.00     0.125 C 
HETATM    9  C   UNL     1      39.099 -12.532  -3.119  1.00  0.00     0.036 C 
HETATM   10  H   UNL     1      40.890 -15.623  -0.320  1.00  0.00     0.170 HD
ENDROOT
BRANCH   6  11
HETATM   11  C   UNL     1      41.336 -15.338   1.682  1.00  0.00     0.038 A 
HETATM   12  C   UNL     1      40.553 -15.213   2.833  1.00  0.00     0.062 A 
HETATM   13  C   UNL     1      41.022 -15.696   4.057  1.00  0.00     0.070 A 
HETATM   14  C   UNL     1      42.278 -16.294   4.145  1.00  0.00     0.096 A 
HETATM   15  N   UNL     1      40.199 -15.622   5.180  1.00  0.00    -0.323 N 
HETATM   16  O   UNL     1      42.795 -16.816   5.297  1.00  0.00    -0.335 OA
HETATM   17  C   UNL     1      43.060 -16.426   2.999  1.00  0.00     0.041 A 
HETATM   18  C   UNL     1      42.087 -16.483   6.489  1.00  0.00     0.217 C 
HETATM   19  C   UNL     1      40.609 -16.075   6.401  1.00  0.00     0.251 C 
HETATM   20  C   UNL     1      42.858 -15.378   7.206  1.00  0.00     0.050 C 
HETATM   21  O   UNL     1      39.851 -16.080   7.368  1.00  0.00    -0.270 OA
HETATM   22  C   UNL     1      42.587 -15.959   1.770  1.00  0.00     0.032 A 
HETATM   23  H   UNL     1      39.253 -15.273   5.108  1.00  0.00     0.169 HD
ENDBRANCH   6  11
BRANCH   8  24
HETATM   24  C   UNL     1      38.901 -11.206  -0.977  1.00  0.00     0.003 A 
HETATM   25  C   UNL     1      39.262  -9.853  -0.982  1.00  0.00     0.124 A 
HETATM   26  F   UNL     1      40.324  -9.452  -1.696  1.00  0.00    -0.205 F 
HETATM   27  C   UNL     1      38.541  -8.899  -0.269  1.00  0.00     0.043 A 
HETATM   28  C   UNL     1      37.425  -9.288   0.468  1.00  0.00     0.003 A 
HETATM   29  C   UNL     1      37.037 -10.628   0.480  1.00  0.00     0.001 A 
HETATM   30  C   UNL     1      37.767 -11.580  -0.239  1.00  0.00     0.012 A 
ENDBRANCH   8  24
TORSDOF 2
ENDMDL
MODEL 5
REMARK VINA RESULT:      -8.8      5.253      7.648
REMARK  2 active torsions:
REMARK  status: ('A' for Active; 'I' for Inactive)
REMARK       I    between atoms: N_4  and  C_5 
REMARK       I    between atoms: C_5  and  N_6 
REMARK    1  A    between atoms: N_6  and  C_7 
REMARK    2  A    between atoms: C_20  and  C_21 
ROOT
HETATM    1  C   UNL     1      42.454 -17.459   2.652  1.00  0.00     0.011 C 
HETATM    2  C   UNL     1      42.052 -15.997   2.714  1.00  0.00     0.002 C 
HETATM    3  C   UNL     1      42.888 -15.180   3.695  1.00  0.00     0.132 C 
HETATM    4  N   UNL     1      42.834 -13.816   3.185  1.00  0.00    -0.325 N 
HETATM    5  C   UNL     1      43.247 -12.665   3.823  1.00  0.00     0.323 C 
HETATM    6  N   UNL     1      43.828 -12.882   5.053  1.00  0.00    -0.309 N 
HETATM    7  O   UNL     1      43.089 -11.554   3.323  1.00  0.00    -0.247 OA
HETATM    8  C   UNL     1      42.288 -13.771   1.824  1.00  0.00     0.125 C 
HETATM    9  C   UNL     1      42.271 -15.248   1.396  1.00  0.00     0.036 C 
HETATM   10  H   UNL     1      44.340 -13.745   5.144  1.00  0.00     0.170 HD
ENDROOT
BRANCH   6  11
HETATM   11  C   UNL     1      44.025 -11.912   6.056  1.00  0.00     0.038 A 
HETATM   12  C   UNL     1      42.967 -11.340   6.768  1.00  0.00     0.062 A 
HETATM   13  C   UNL     1      43.225 -10.432   7.798  1.00  0.00     0.070 A 
HETATM   14  C   UNL     1      44.535 -10.079   8.116  1.00  0.00     0.096 A 
HETATM   15  N   UNL     1      42.160  -9.923   8.540  1.00  0.00    -0.323 N 
HETATM   16  O   UNL     1      44.869  -9.222   9.127  1.00  0.00    -0.335 OA
HETATM   17  C   UNL     1      45.593 -10.651   7.414  1.00  0.00     0.041 A 
HETATM   18  C   UNL     1      43.784  -8.486   9.688  1.00  0.00     0.217 C 
HETATM   19  C   UNL     1      42.354  -9.031   9.555  1.00  0.00     0.251 C 
HETATM   20  C   UNL     1      43.824  -7.072   9.116  1.00  0.00     0.050 C 
HETATM   21  O   UNL     1      41.420  -8.647  10.256  1.00  0.00    -0.270 OA
HETATM   22  C   UNL     1      45.340 -11.573   6.393  1.00  0.00     0.032 A 
HETATM   23  H   UNL     1      41.214 -10.242   8.377  1.00  0.00     0.169 HD
ENDBRANCH   6  11
BRANCH   8  24
HETATM   24  C   UNL     1      40.914 -13.140   1.710  1.00  0.00     0.003 A 
HETATM   25  C   UNL     1      40.547 -12.558   0.490  1.00  0.00     0.124 A 
HETATM   26  F   UNL     1      41.399 -12.590  -0.545  1.00  0.00    -0.205 F 
HETATM   27  C   UNL     1      39.307 -11.949   0.313  1.00  0.00     0.043 A 
HETATM   28  C   UNL     1      38.398 -11.915   1.368  1.00  0.00     0.003 A 
HETATM   29  C   UNL     1      38.736 -12.498   2.589  1.00  0.00     0.001 A 
HETATM   30  C   UNL     1      39.982 -13.108   2.759  1.00  0.00     0.012 A 
ENDBRANCH   8  24
TORSDOF 2
ENDMDL
MODEL 6
REMARK VINA RESULT:      -8.7      1.602      1.996
REMARK  2 active torsions:
REMARK  status: ('A' for Active; 'I' for Inactive)
REMARK       I    between atoms: N_4  and  C_5 
REMARK       I    between atoms: C_5  and  N_6 
REMARK    1  A    between atoms: N_6  and  C_7 
REMARK    2  A    between atoms: C_20  and  C_21 
ROOT
HETATM    1  C   UNL     1      41.293  -8.886   4.144  1.00  0.00     0.011 C 
HETATM    2  C   UNL     1      41.041 -10.143   3.331  1.00  0.00     0.002 C 
HETATM    3  C   UNL     1      41.547 -11.413   4.009  1.00  0.00     0.132 C 
HETATM    4  N   UNL     1      40.709 -12.479   3.474  1.00  0.00    -0.325 N 
HETATM    5  C   UNL     1      40.898 -13.839   3.604  1.00  0.00     0.323 C 
HETATM    6  N   UNL     1      41.976 -14.185   4.388  1.00  0.00    -0.309 N 
HETATM    7  O   UNL     1      40.162 -14.652   3.049  1.00  0.00    -0.247 OA
HETATM    8  C   UNL     1      39.547 -11.943   2.757  1.00  0.00     0.125 C 
HETATM    9  C   UNL     1      39.555 -10.450   3.128  1.00  0.00     0.036 C 
HETATM   10  H   UNL     1      42.182 -13.552   5.145  1.00  0.00     0.170 HD
ENDROOT
BRANCH   6  11
HETATM   11  C   UNL     1      42.604 -15.445   4.421  1.00  0.00     0.038 A 
HETATM   12  C   UNL     1      42.396 -16.416   3.436  1.00  0.00     0.062 A 
HETATM   13  C   UNL     1      43.096 -17.623   3.482  1.00  0.00     0.070 A 
HETATM   14  C   UNL     1      43.997 -17.878   4.514  1.00  0.00     0.096 A 
HETATM   15  N   UNL     1      42.923 -18.551   2.455  1.00  0.00    -0.323 N 
HETATM   16  O   UNL     1      44.740 -19.021   4.613  1.00  0.00    -0.335 OA
HETATM   17  C   UNL     1      44.213 -16.911   5.494  1.00  0.00     0.041 A 
HETATM   18  C   UNL     1      44.355 -20.077   3.736  1.00  0.00     0.217 C 
HETATM   19  C   UNL     1      43.580 -19.748   2.452  1.00  0.00     0.251 C 
HETATM   20  C   UNL     1      43.553 -21.095   4.544  1.00  0.00     0.050 C 
HETATM   21  O   UNL     1      43.485 -20.526   1.505  1.00  0.00    -0.270 OA
HETATM   22  C   UNL     1      43.526 -15.695   5.443  1.00  0.00     0.032 A 
HETATM   23  H   UNL     1      42.342 -18.338   1.656  1.00  0.00     0.169 HD
ENDBRANCH   6  11
BRANCH   8  24
HETATM   24  C   UNL     1      39.578 -12.145   1.254  1.00  0.00     0.003 A 
HETATM   25  C   UNL     1      38.392 -11.964   0.532  1.00  0.00     0.124 A 
HETATM   26  F   UNL     1      37.273 -11.598   1.174  1.00  0.00    -0.205 F 
HETATM   27  C   UNL     1      38.339 -12.144  -0.847  1.00  0.00     0.043 A 
HETATM   28  C   UNL     1      39.491 -12.509  -1.540  1.00  0.00     0.003 A 
HETATM   29  C   UNL     1      40.687 -12.685  -0.845  1.00  0.00     0.001 A 
HETATM   30  C   UNL     1      40.733 -12.501   0.540  1.00  0.00     0.012 A 
ENDBRANCH   8  24
TORSDOF 2
ENDMDL
MODEL 7
REMARK VINA RESULT:      -8.6      3.335      8.378
REMARK  2 active torsions:
REMARK  status: ('A' for Active; 'I' for Inactive)
REMARK       I    between atoms: N_4  and  C_5 
REMARK       I    between atoms: C_5  and  N_6 
REMARK    1  A    between atoms: N_6  and  C_7 
REMARK    2  A    between atoms: C_20  and  C_21 
ROOT
HETATM    1  C   UNL     1      44.061 -18.729   3.852  1.00  0.00     0.011 C 
HETATM    2  C   UNL     1      43.553 -17.299   3.916  1.00  0.00     0.002 C 
HETATM    3  C   UNL     1      42.664 -16.920   2.736  1.00  0.00     0.132 C 
HETATM    4  N   UNL     1      41.804 -15.859   3.245  1.00  0.00    -0.325 N 
HETATM    5  C   UNL     1      40.972 -15.032   2.518  1.00  0.00     0.323 C 
HETATM    6  N   UNL     1      40.933 -15.318   1.171  1.00  0.00    -0.309 N 
HETATM    7  O   UNL     1      40.341 -14.120   3.047  1.00  0.00    -0.247 OA
HETATM    8  C   UNL     1      41.882 -15.756   4.706  1.00  0.00     0.125 C 
HETATM    9  C   UNL     1      42.639 -17.031   5.115  1.00  0.00     0.036 C 
HETATM   10  H   UNL     1      41.047 -16.290   0.931  1.00  0.00     0.170 HD
ENDROOT
BRANCH   6  11
HETATM   11  C   UNL     1      40.462 -14.460   0.158  1.00  0.00     0.038 A 
HETATM   12  C   UNL     1      40.951 -13.162  -0.017  1.00  0.00     0.062 A 
HETATM   13  C   UNL     1      40.495 -12.378  -1.079  1.00  0.00     0.070 A 
HETATM   14  C   UNL     1      39.542 -12.876  -1.965  1.00  0.00     0.096 A 
HETATM   15  N   UNL     1      41.043 -11.111  -1.276  1.00  0.00    -0.323 N 
HETATM   16  O   UNL     1      39.068 -12.183  -3.044  1.00  0.00    -0.335 OA
HETATM   17  C   UNL     1      39.056 -14.171  -1.799  1.00  0.00     0.041 A 
HETATM   18  C   UNL     1      39.406 -10.798  -3.077  1.00  0.00     0.217 C 
HETATM   19  C   UNL     1      40.632 -10.302  -2.296  1.00  0.00     0.251 C 
HETATM   20  C   UNL     1      38.185 -10.001  -2.628  1.00  0.00     0.050 C 
HETATM   21  O   UNL     1      41.175  -9.220  -2.512  1.00  0.00    -0.270 OA
HETATM   22  C   UNL     1      39.521 -14.965  -0.747  1.00  0.00     0.032 A 
HETATM   23  H   UNL     1      41.800 -10.776  -0.694  1.00  0.00     0.169 HD
ENDBRANCH   6  11
BRANCH   8  24
HETATM   24  C   UNL     1      42.572 -14.507   5.219  1.00  0.00     0.003 A 
HETATM   25  C   UNL     1      42.693 -14.332   6.604  1.00  0.00     0.124 A 
HETATM   26  F   UNL     1      42.221 -15.273   7.436  1.00  0.00    -0.205 F 
HETATM   27  C   UNL     1      43.302 -13.206   7.150  1.00  0.00     0.043 A 
HETATM   28  C   UNL     1      43.813 -12.222   6.309  1.00  0.00     0.003 A 
HETATM   29  C   UNL     1      43.716 -12.377   4.926  1.00  0.00     0.001 A 
HETATM   30  C   UNL     1      43.104 -13.511   4.384  1.00  0.00     0.012 A 
ENDBRANCH   8  24
TORSDOF 2
ENDMDL
MODEL 8
REMARK VINA RESULT:      -8.5      7.694     10.032
REMARK  2 active torsions:
REMARK  status: ('A' for Active; 'I' for Inactive)
REMARK       I    between atoms: N_4  and  C_5 
REMARK       I    between atoms: C_5  and  N_6 
REMARK    1  A    between atoms: N_6  and  C_7 
REMARK    2  A    between atoms: C_20  and  C_21 
ROOT
HETATM    1  C   UNL     1      41.600  -4.824   8.597  1.00  0.00     0.011 C 
HETATM    2  C   UNL     1      41.706  -6.192   9.248  1.00  0.00     0.002 C 
HETATM    3  C   UNL     1      42.177  -7.282   8.290  1.00  0.00     0.132 C 
HETATM    4  N   UNL     1      42.811  -8.279   9.144  1.00  0.00    -0.325 N 
HETATM    5  C   UNL     1      43.207  -9.553   8.794  1.00  0.00     0.323 C 
HETATM    6  N   UNL     1      43.022  -9.854   7.463  1.00  0.00    -0.309 N 
HETATM    7  O   UNL     1      43.671 -10.337   9.619  1.00  0.00    -0.247 OA
HETATM    8  C   UNL     1      43.033  -7.764  10.499  1.00  0.00     0.125 C 
HETATM    9  C   UNL     1      42.757  -6.257  10.360  1.00  0.00     0.036 C 
HETATM   10  H   UNL     1      43.122  -9.080   6.826  1.00  0.00     0.170 HD
ENDROOT
BRANCH   6  11
HETATM   11  C   UNL     1      43.008 -11.146   6.902  1.00  0.00     0.038 A 
HETATM   12  C   UNL     1      41.966 -11.603   6.090  1.00  0.00     0.062 A 
HETATM   13  C   UNL     1      42.036 -12.870   5.506  1.00  0.00     0.070 A 
HETATM   14  C   UNL     1      43.136 -13.694   5.736  1.00  0.00     0.096 A 
HETATM   15  N   UNL     1      41.018 -13.282   4.646  1.00  0.00    -0.323 N 
HETATM   16  O   UNL     1      43.292 -14.932   5.179  1.00  0.00    -0.335 OA
HETATM   17  C   UNL     1      44.181 -13.240   6.539  1.00  0.00     0.041 A 
HETATM   18  C   UNL     1      42.133 -15.465   4.543  1.00  0.00     0.217 C 
HETATM   19  C   UNL     1      41.035 -14.510   4.051  1.00  0.00     0.251 C 
HETATM   20  C   UNL     1      41.505 -16.490   5.483  1.00  0.00     0.050 C 
HETATM   21  O   UNL     1      40.177 -14.836   3.234  1.00  0.00    -0.270 OA
HETATM   22  C   UNL     1      44.122 -11.967   7.113  1.00  0.00     0.032 A 
HETATM   23  H   UNL     1      40.262 -12.657   4.401  1.00  0.00     0.169 HD
ENDBRANCH   6  11
BRANCH   8  24
HETATM   24  C   UNL     1      42.165  -8.395  11.571  1.00  0.00     0.003 A 
HETATM   25  C   UNL     1      42.654  -8.444  12.882  1.00  0.00     0.124 A 
HETATM   26  F   UNL     1      43.855  -7.919  13.164  1.00  0.00    -0.205 F 
HETATM   27  C   UNL     1      41.921  -9.019  13.916  1.00  0.00     0.043 A 
HETATM   28  C   UNL     1      40.664  -9.559  13.654  1.00  0.00     0.003 A 
HETATM   29  C   UNL     1      40.150  -9.512  12.358  1.00  0.00     0.001 A 
HETATM   30  C   UNL     1      40.892  -8.933  11.324  1.00  0.00     0.012 A 
ENDBRANCH   8  24
TORSDOF 2
ENDMDL
MODEL 9
REMARK VINA RESULT:      -8.5      6.474      8.781
REMARK  2 active torsions:
REMARK  status: ('A' for Active; 'I' for Inactive)
REMARK       I    between atoms: N_4  and  C_5 
REMARK       I    between atoms: C_5  and  N_6 
REMARK    1  A    between atoms: N_6  and  C_7 
REMARK    2  A    between atoms: C_20  and  C_21 
ROOT
HETATM    1  C   UNL     1      41.717  -5.511   7.553  1.00  0.00     0.011 C 
HETATM    2  C   UNL     1      41.951  -6.915   8.081  1.00  0.00     0.002 C 
HETATM    3  C   UNL     1      41.942  -7.981   6.989  1.00  0.00     0.132 C 
HETATM    4  N   UNL     1      42.769  -9.059   7.516  1.00  0.00    -0.325 N 
HETATM    5  C   UNL     1      42.905 -10.336   7.010  1.00  0.00     0.323 C 
HETATM    6  N   UNL     1      42.212 -10.554   5.840  1.00  0.00    -0.309 N 
HETATM    7  O   UNL     1      43.581 -11.189   7.579  1.00  0.00    -0.247 OA
HETATM    8  C   UNL     1      43.523  -8.632   8.699  1.00  0.00     0.125 C 
HETATM    9  C   UNL     1      43.333  -7.105   8.713  1.00  0.00     0.036 C 
HETATM   10  H   UNL     1      42.127  -9.754   5.232  1.00  0.00     0.170 HD
ENDROOT
BRANCH   6  11
HETATM   11  C   UNL     1      41.888 -11.811   5.293  1.00  0.00     0.038 A 
HETATM   12  C   UNL     1      42.593 -12.370   4.223  1.00  0.00     0.062 A 
HETATM   13  C   UNL     1      42.271 -13.649   3.764  1.00  0.00     0.070 A 
HETATM   14  C   UNL     1      41.239 -14.374   4.357  1.00  0.00     0.096 A 
HETATM   15  N   UNL     1      43.028 -14.216   2.739  1.00  0.00    -0.323 N 
HETATM   16  O   UNL     1      40.885 -15.640   3.985  1.00  0.00    -0.335 OA
HETATM   17  C   UNL     1      40.538 -13.823   5.429  1.00  0.00     0.041 A 
HETATM   18  C   UNL     1      41.457 -16.100   2.763  1.00  0.00     0.217 C 
HETATM   19  C   UNL     1      42.756 -15.461   2.250  1.00  0.00     0.251 C 
HETATM   20  C   UNL     1      40.394 -15.992   1.672  1.00  0.00     0.050 C 
HETATM   21  O   UNL     1      43.475 -15.986   1.403  1.00  0.00    -0.270 OA
HETATM   22  C   UNL     1      40.868 -12.550   5.902  1.00  0.00     0.032 A 
HETATM   23  H   UNL     1      43.836 -13.736   2.364  1.00  0.00     0.169 HD
ENDBRANCH   6  11
BRANCH   8  24
HETATM   24  C   UNL     1      43.072  -9.262  10.003  1.00  0.00     0.003 A 
HETATM   25  C   UNL     1      43.995 -10.028  10.727  1.00  0.00     0.124 A 
HETATM   26  F   UNL     1      45.248 -10.167  10.270  1.00  0.00    -0.205 F 
HETATM   27  C   UNL     1      43.651 -10.648  11.925  1.00  0.00     0.043 A 
HETATM   28  C   UNL     1      42.361 -10.507  12.430  1.00  0.00     0.003 A 
HETATM   29  C   UNL     1      41.427  -9.741  11.733  1.00  0.00     0.001 A 
HETATM   30  C   UNL     1      41.779  -9.120  10.531  1.00  0.00     0.012 A 
ENDBRANCH   8  24
TORSDOF 2
ENDMDL
MODEL 10
REMARK VINA RESULT:      -8.4     14.968     16.874
REMARK  2 active torsions:
REMARK  status: ('A' for Active; 'I' for Inactive)
REMARK       I    between atoms: N_4  and  C_5 
REMARK       I    between atoms: C_5  and  N_6 
REMARK    1  A    between atoms: N_6  and  C_7 
REMARK    2  A    between atoms: C_20  and  C_21 
ROOT
HETATM    1  C   UNL     1      48.525 -29.739   1.742  1.00  0.00     0.011 C 
HETATM    2  C   UNL     1      47.171 -29.880   1.069  1.00  0.00     0.002 C 
HETATM    3  C   UNL     1      46.025 -30.091   2.052  1.00  0.00     0.132 C 
HETATM    4  N   UNL     1      44.846 -29.579   1.366  1.00  0.00    -0.325 N 
HETATM    5  C   UNL     1      43.526 -29.731   1.738  1.00  0.00     0.323 C 
HETATM    6  N   UNL     1      43.352 -30.396   2.931  1.00  0.00    -0.309 N 
HETATM    7  O   UNL     1      42.604 -29.313   1.041  1.00  0.00    -0.247 OA
HETATM    8  C   UNL     1      45.210 -28.806   0.174  1.00  0.00     0.125 C 
HETATM    9  C   UNL     1      46.730 -28.619   0.318  1.00  0.00     0.036 C 
HETATM   10  H   UNL     1      44.077 -30.253   3.616  1.00  0.00     0.170 HD
ENDROOT
BRANCH   6  11
HETATM   11  C   UNL     1      42.154 -30.986   3.381  1.00  0.00     0.038 A 
HETATM   12  C   UNL     1      41.708 -32.228   2.919  1.00  0.00     0.062 A 
HETATM   13  C   UNL     1      40.547 -32.797   3.448  1.00  0.00     0.070 A 
HETATM   14  C   UNL     1      39.818 -32.129   4.430  1.00  0.00     0.096 A 
HETATM   15  N   UNL     1      40.155 -34.066   3.022  1.00  0.00    -0.323 N 
HETATM   16  O   UNL     1      38.691 -32.632   5.017  1.00  0.00    -0.335 OA
HETATM   17  C   UNL     1      40.262 -30.895   4.898  1.00  0.00     0.041 A 
HETATM   18  C   UNL     1      38.133 -33.781   4.383  1.00  0.00     0.217 C 
HETATM   19  C   UNL     1      39.028 -34.667   3.504  1.00  0.00     0.251 C 
HETATM   20  C   UNL     1      36.929 -33.331   3.559  1.00  0.00     0.050 C 
HETATM   21  O   UNL     1      38.731 -35.817   3.184  1.00  0.00    -0.270 OA
HETATM   22  C   UNL     1      41.432 -30.329   4.383  1.00  0.00     0.032 A 
HETATM   23  H   UNL     1      40.726 -34.597   2.378  1.00  0.00     0.169 HD
ENDBRANCH   6  11
BRANCH   8  24
HETATM   24  C   UNL     1      44.850 -29.462  -1.145  1.00  0.00     0.003 A 
HETATM   25  C   UNL     1      44.711 -28.651  -2.278  1.00  0.00     0.124 A 
HETATM   26  F   UNL     1      44.918 -27.330  -2.179  1.00  0.00    -0.205 F 
HETATM   27  C   UNL     1      44.370 -29.179  -3.520  1.00  0.00     0.043 A 
HETATM   28  C   UNL     1      44.164 -30.550  -3.654  1.00  0.00     0.003 A 
HETATM   29  C   UNL     1      44.307 -31.381  -2.542  1.00  0.00     0.001 A 
HETATM   30  C   UNL     1      44.651 -30.843  -1.298  1.00  0.00     0.012 A 
ENDBRANCH   8  24
TORSDOF 2
ENDMDL
