MODEL 1
REMARK VINA RESULT:      -8.5      0.000      0.000
REMARK  3 active torsions:
REMARK  status: ('A' for Active; 'I' for Inactive)
REMARK    1  A    between atoms: C_3  and  O_4 
REMARK    2  A    between atoms: O_4  and  C_5 
REMARK    3  A    between atoms: C_10  and  N_11 
REMARK       I    between atoms: N_11  and  C_12 
REMARK       I    between atoms: C_12  and  N_13 
ROOT
HETATM    1  N   UNL     1      42.418 -11.788   6.550  1.00  0.00    -0.309 N 
HETATM    2  C   UNL     1      43.449 -11.499   7.417  1.00  0.00     0.323 C 
HETATM    3  N   UNL     1      43.271 -10.334   8.150  1.00  0.00    -0.328 N 
HETATM    4  C   UNL     1      44.120 -10.139   9.330  1.00  0.00     0.185 C 
HETATM    5  C   UNL     1      43.233  -9.663  10.433  1.00  0.00     0.035 A 
HETATM    6  C   UNL     1      41.949  -9.166  10.309  1.00  0.00    -0.020 A 
HETATM    7  C   UNL     1      41.280  -9.072   8.979  1.00  0.00     0.061 C 
HETATM    8  C   UNL     1      42.327  -9.233   7.856  1.00  0.00     0.132 C 
HETATM    9  N   UNL     1      43.560  -9.672  11.760  1.00  0.00    -0.357 N 
HETATM   10  H   UNL     1      44.431 -10.000  12.152  1.00  0.00     0.166 HD
HETATM   11  C   UNL     1      42.502  -9.189  12.503  1.00  0.00     0.043 A 
HETATM   12  C   UNL     1      41.477  -8.861  11.612  1.00  0.00    -0.001 A 
HETATM   13  C   UNL     1      42.376  -9.031  13.889  1.00  0.00     0.030 A 
HETATM   14  C   UNL     1      41.168  -8.523  14.376  1.00  0.00     0.002 A 
HETATM   15  C   UNL     1      40.129  -8.185  13.511  1.00  0.00     0.001 A 
HETATM   16  C   UNL     1      40.270  -8.350  12.128  1.00  0.00     0.014 A 
HETATM   17  O   UNL     1      44.436 -12.210   7.589  1.00  0.00    -0.247 OA
HETATM   18  H   UNL     1      41.554 -11.310   6.739  1.00  0.00     0.170 HD
ENDROOT
BRANCH   1  19
HETATM   19  C   UNL     1      42.313 -12.907   5.696  1.00  0.00     0.037 A 
HETATM   20  C   UNL     1      42.988 -13.026   4.483  1.00  0.00     0.032 A 
HETATM   21  C   UNL     1      42.898 -14.204   3.734  1.00  0.00     0.039 A 
HETATM   22  C   UNL     1      42.134 -15.275   4.195  1.00  0.00     0.075 A 
HETATM   23  C   UNL     1      41.371 -15.138   5.362  1.00  0.00    -0.026 A 
HETATM   24  C   UNL     1      40.512 -16.263   5.868  1.00  0.00     0.051 C 
HETATM   25  C   UNL     1      41.483 -13.957   6.113  1.00  0.00     0.039 A 
BRANCH  22  26
HETATM   26  O   UNL     1      42.057 -16.471   3.531  1.00  0.00    -0.346 OA
BRANCH  26  27
HETATM   27  C   UNL     1      43.312 -17.124   3.279  1.00  0.00     0.121 C 
HETATM   28  C   UNL     1      43.927 -17.670   4.568  1.00  0.00     0.040 C 
HETATM   29  C   UNL     1      43.016 -18.277   2.322  1.00  0.00     0.040 C 
ENDBRANCH  26  27
ENDBRANCH  22  26
ENDBRANCH   1  19
TORSDOF 3
ENDMDL
MODEL 2
REMARK VINA RESULT:      -8.0      7.161      9.612
REMARK  3 active torsions:
REMARK  status: ('A' for Active; 'I' for Inactive)
REMARK    1  A    between atoms: C_3  and  O_4 
REMARK    2  A    between atoms: O_4  and  C_5 
REMARK    3  A    between atoms: C_10  and  N_11 
REMARK       I    between atoms: N_11  and  C_12 
REMARK       I    between atoms: C_12  and  N_13 
ROOT
HETATM    1  N   UNL     1      41.867 -14.285   2.223  1.00  0.00    -0.309 N 
HETATM    2  C   UNL     1      40.876 -14.132   1.279  1.00  0.00     0.323 C 
HETATM    3  N   UNL     1      40.525 -12.813   1.027  1.00  0.00    -0.328 N 
HETATM    4  C   UNL     1      39.756 -12.537  -0.192  1.00  0.00     0.185 C 
HETATM    5  C   UNL     1      40.377 -11.343  -0.840  1.00  0.00     0.035 A 
HETATM    6  C   UNL     1      41.264 -10.454  -0.262  1.00  0.00    -0.020 A 
HETATM    7  C   UNL     1      41.730 -10.627   1.144  1.00  0.00     0.061 C 
HETATM    8  C   UNL     1      40.818 -11.636   1.875  1.00  0.00     0.132 C 
HETATM    9  N   UNL     1      40.172 -10.960  -2.135  1.00  0.00    -0.357 N 
HETATM   10  H   UNL     1      39.584 -11.435  -2.806  1.00  0.00     0.166 HD
HETATM   11  C   UNL     1      40.919  -9.833  -2.411  1.00  0.00     0.043 A 
HETATM   12  C   UNL     1      41.613  -9.492  -1.247  1.00  0.00    -0.001 A 
HETATM   13  C   UNL     1      41.038  -9.103  -3.600  1.00  0.00     0.030 A 
HETATM   14  C   UNL     1      41.889  -7.993  -3.598  1.00  0.00     0.002 A 
HETATM   15  C   UNL     1      42.591  -7.629  -2.451  1.00  0.00     0.001 A 
HETATM   16  C   UNL     1      42.463  -8.370  -1.270  1.00  0.00     0.014 A 
HETATM   17  O   UNL     1      40.353 -15.055   0.659  1.00  0.00    -0.247 OA
HETATM   18  H   UNL     1      42.413 -13.461   2.408  1.00  0.00     0.170 HD
ENDROOT
BRANCH   1  19
HETATM   19  C   UNL     1      42.438 -15.498   2.668  1.00  0.00     0.037 A 
HETATM   20  C   UNL     1      43.023 -16.438   1.823  1.00  0.00     0.032 A 
HETATM   21  C   UNL     1      43.644 -17.576   2.350  1.00  0.00     0.039 A 
HETATM   22  C   UNL     1      43.687 -17.780   3.728  1.00  0.00     0.075 A 
HETATM   23  C   UNL     1      43.021 -16.896   4.587  1.00  0.00    -0.026 A 
HETATM   24  C   UNL     1      43.022 -17.106   6.075  1.00  0.00     0.051 C 
HETATM   25  C   UNL     1      42.415 -15.750   4.047  1.00  0.00     0.039 A 
BRANCH  22  26
HETATM   26  O   UNL     1      44.331 -18.845   4.299  1.00  0.00    -0.346 OA
BRANCH  26  27
HETATM   27  C   UNL     1      43.628 -20.099   4.247  1.00  0.00     0.121 C 
HETATM   28  C   UNL     1      43.985 -20.886   2.986  1.00  0.00     0.040 C 
HETATM   29  C   UNL     1      44.055 -20.886   5.483  1.00  0.00     0.040 C 
ENDBRANCH  26  27
ENDBRANCH  22  26
ENDBRANCH   1  19
TORSDOF 3
ENDMDL
MODEL 3
REMARK VINA RESULT:      -8.0      7.435     10.891
REMARK  3 active torsions:
REMARK  status: ('A' for Active; 'I' for Inactive)
REMARK    1  A    between atoms: C_3  and  O_4 
REMARK    2  A    between atoms: O_4  and  C_5 
REMARK    3  A    between atoms: C_10  and  N_11 
REMARK       I    between atoms: N_11  and  C_12 
REMARK       I    between atoms: C_12  and  N_13 
ROOT
HETATM    1  N   UNL     1      40.923 -14.545   0.184  1.00  0.00    -0.309 N 
HETATM    2  C   UNL     1      40.864 -13.174   0.061  1.00  0.00     0.323 C 
HETATM    3  N   UNL     1      40.302 -12.730  -1.128  1.00  0.00    -0.328 N 
HETATM    4  C   UNL     1      39.875 -11.328  -1.194  1.00  0.00     0.185 C 
HETATM    5  C   UNL     1      38.523 -11.312  -1.828  1.00  0.00     0.035 A 
HETATM    6  C   UNL     1      37.926 -12.341  -2.532  1.00  0.00    -0.020 A 
HETATM    7  C   UNL     1      38.610 -13.653  -2.718  1.00  0.00     0.061 C 
HETATM    8  C   UNL     1      40.107 -13.514  -2.368  1.00  0.00     0.132 C 
HETATM    9  N   UNL     1      37.649 -10.263  -1.783  1.00  0.00    -0.357 N 
HETATM   10  H   UNL     1      37.809  -9.380  -1.318  1.00  0.00     0.166 HD
HETATM   11  C   UNL     1      36.487 -10.597  -2.447  1.00  0.00     0.043 A 
HETATM   12  C   UNL     1      36.637 -11.899  -2.931  1.00  0.00    -0.001 A 
HETATM   13  C   UNL     1      35.318  -9.849  -2.643  1.00  0.00     0.030 A 
HETATM   14  C   UNL     1      34.275 -10.451  -3.355  1.00  0.00     0.002 A 
HETATM   15  C   UNL     1      34.398 -11.747  -3.851  1.00  0.00     0.001 A 
HETATM   16  C   UNL     1      35.572 -12.482  -3.645  1.00  0.00     0.014 A 
HETATM   17  O   UNL     1      41.226 -12.380   0.925  1.00  0.00    -0.247 OA
HETATM   18  H   UNL     1      40.318 -15.057  -0.435  1.00  0.00     0.170 HD
ENDROOT
BRANCH   1  19
HETATM   19  C   UNL     1      41.421 -15.280   1.281  1.00  0.00     0.037 A 
HETATM   20  C   UNL     1      42.700 -15.832   1.331  1.00  0.00     0.032 A 
HETATM   21  C   UNL     1      43.150 -16.474   2.490  1.00  0.00     0.039 A 
HETATM   22  C   UNL     1      42.325 -16.566   3.610  1.00  0.00     0.075 A 
HETATM   23  C   UNL     1      41.004 -16.105   3.545  1.00  0.00    -0.026 A 
HETATM   24  C   UNL     1      40.079 -16.219   4.724  1.00  0.00     0.051 C 
HETATM   25  C   UNL     1      40.570 -15.448   2.382  1.00  0.00     0.039 A 
BRANCH  22  26
HETATM   26  O   UNL     1      42.735 -17.133   4.788  1.00  0.00    -0.346 OA
BRANCH  26  27
HETATM   27  C   UNL     1      44.151 -17.342   4.918  1.00  0.00     0.121 C 
HETATM   28  C   UNL     1      44.703 -16.663   6.172  1.00  0.00     0.040 C 
HETATM   29  C   UNL     1      44.359 -18.851   5.017  1.00  0.00     0.040 C 
ENDBRANCH  26  27
ENDBRANCH  22  26
ENDBRANCH   1  19
TORSDOF 3
ENDMDL
MODEL 4
REMARK VINA RESULT:      -7.9      2.408      9.652
REMARK  3 active torsions:
REMARK  status: ('A' for Active; 'I' for Inactive)
REMARK    1  A    between atoms: C_3  and  O_4 
REMARK    2  A    between atoms: O_4  and  C_5 
REMARK    3  A    between atoms: C_10  and  N_11 
REMARK       I    between atoms: N_11  and  C_12 
REMARK       I    between atoms: C_12  and  N_13 
ROOT
HETATM    1  N   UNL     1      43.288 -10.201   9.495  1.00  0.00    -0.309 N 
HETATM    2  C   UNL     1      42.640  -9.882   8.322  1.00  0.00     0.323 C 
HETATM    3  N   UNL     1      43.084 -10.587   7.212  1.00  0.00    -0.328 N 
HETATM    4  C   UNL     1      42.232 -10.580   6.018  1.00  0.00     0.185 C 
HETATM    5  C   UNL     1      42.170 -11.985   5.516  1.00  0.00     0.035 A 
HETATM    6  C   UNL     1      43.005 -13.029   5.869  1.00  0.00    -0.020 A 
HETATM    7  C   UNL     1      44.102 -12.842   6.862  1.00  0.00     0.061 C 
HETATM    8  C   UNL     1      44.355 -11.336   7.083  1.00  0.00     0.132 C 
HETATM    9  N   UNL     1      41.242 -12.461   4.633  1.00  0.00    -0.357 N 
HETATM   10  H   UNL     1      40.492 -11.925   4.219  1.00  0.00     0.166 HD
HETATM   11  C   UNL     1      41.460 -13.804   4.408  1.00  0.00     0.043 A 
HETATM   12  C   UNL     1      42.567 -14.185   5.172  1.00  0.00    -0.001 A 
HETATM   13  C   UNL     1      40.757 -14.705   3.598  1.00  0.00     0.030 A 
HETATM   14  C   UNL     1      41.198 -16.032   3.569  1.00  0.00     0.002 A 
HETATM   15  C   UNL     1      42.300 -16.439   4.318  1.00  0.00     0.001 A 
HETATM   16  C   UNL     1      42.991 -15.527   5.125  1.00  0.00     0.014 A 
HETATM   17  O   UNL     1      41.715  -9.079   8.232  1.00  0.00    -0.247 OA
HETATM   18  H   UNL     1      43.785 -11.076   9.485  1.00  0.00     0.170 HD
ENDROOT
BRANCH   1  19
HETATM   19  C   UNL     1      43.040  -9.666  10.777  1.00  0.00     0.037 A 
HETATM   20  C   UNL     1      43.861  -8.727  11.400  1.00  0.00     0.032 A 
HETATM   21  C   UNL     1      43.501  -8.180  12.636  1.00  0.00     0.039 A 
HETATM   22  C   UNL     1      42.315  -8.566  13.259  1.00  0.00     0.075 A 
HETATM   23  C   UNL     1      41.527  -9.578  12.696  1.00  0.00    -0.026 A 
HETATM   24  C   UNL     1      40.260 -10.039  13.358  1.00  0.00     0.051 C 
HETATM   25  C   UNL     1      41.891 -10.107  11.446  1.00  0.00     0.039 A 
BRANCH  22  26
HETATM   26  O   UNL     1      41.887  -8.020  14.440  1.00  0.00    -0.346 OA
BRANCH  26  27
HETATM   27  C   UNL     1      41.788  -6.586  14.464  1.00  0.00     0.121 C 
HETATM   28  C   UNL     1      40.535  -6.100  13.735  1.00  0.00     0.040 C 
HETATM   29  C   UNL     1      41.718  -6.182  15.935  1.00  0.00     0.040 C 
ENDBRANCH  26  27
ENDBRANCH  22  26
ENDBRANCH   1  19
TORSDOF 3
ENDMDL
MODEL 5
REMARK VINA RESULT:      -7.6     19.042     21.019
REMARK  3 active torsions:
REMARK  status: ('A' for Active; 'I' for Inactive)
REMARK    1  A    between atoms: C_3  and  O_4 
REMARK    2  A    between atoms: O_4  and  C_5 
REMARK    3  A    between atoms: C_10  and  N_11 
REMARK       I    between atoms: N_11  and  C_12 
REMARK       I    between atoms: C_12  and  N_13 
ROOT
HETATM    1  N   UNL     1      45.141 -29.912  -0.635  1.00  0.00    -0.309 N 
HETATM    2  C   UNL     1      46.141 -29.026  -0.299  1.00  0.00     0.323 C 
HETATM    3  N   UNL     1      46.398 -28.944   1.063  1.00  0.00    -0.328 N 
HETATM    4  C   UNL     1      47.657 -28.316   1.478  1.00  0.00     0.185 C 
HETATM    5  C   UNL     1      48.253 -29.187   2.535  1.00  0.00     0.035 A 
HETATM    6  C   UNL     1      47.613 -30.187   3.243  1.00  0.00    -0.020 A 
HETATM    7  C   UNL     1      46.183 -30.526   2.985  1.00  0.00     0.061 C 
HETATM    8  C   UNL     1      45.520 -29.399   2.164  1.00  0.00     0.132 C 
HETATM    9  N   UNL     1      49.554 -29.137   2.950  1.00  0.00    -0.357 N 
HETATM   10  H   UNL     1      50.264 -28.513   2.594  1.00  0.00     0.166 HD
HETATM   11  C   UNL     1      49.770 -30.096   3.918  1.00  0.00     0.043 A 
HETATM   12  C   UNL     1      48.563 -30.769   4.122  1.00  0.00    -0.001 A 
HETATM   13  C   UNL     1      50.942 -30.421   4.614  1.00  0.00     0.030 A 
HETATM   14  C   UNL     1      50.875 -31.463   5.544  1.00  0.00     0.002 A 
HETATM   15  C   UNL     1      49.684 -32.150   5.770  1.00  0.00     0.001 A 
HETATM   16  C   UNL     1      48.522 -31.814   5.066  1.00  0.00     0.014 A 
HETATM   17  O   UNL     1      46.802 -28.379  -1.107  1.00  0.00    -0.247 OA
HETATM   18  H   UNL     1      44.914 -30.590   0.072  1.00  0.00     0.170 HD
ENDROOT
BRANCH   1  19
HETATM   19  C   UNL     1      44.677 -30.218  -1.933  1.00  0.00     0.037 A 
HETATM   20  C   UNL     1      44.369 -29.258  -2.895  1.00  0.00     0.032 A 
HETATM   21  C   UNL     1      43.996 -29.644  -4.187  1.00  0.00     0.039 A 
HETATM   22  C   UNL     1      43.932 -30.995  -4.528  1.00  0.00     0.075 A 
HETATM   23  C   UNL     1      44.143 -31.974  -3.549  1.00  0.00    -0.026 A 
HETATM   24  C   UNL     1      44.050 -33.438  -3.877  1.00  0.00     0.051 C 
HETATM   25  C   UNL     1      44.533 -31.574  -2.260  1.00  0.00     0.039 A 
BRANCH  22  26
HETATM   26  O   UNL     1      43.629 -31.426  -5.792  1.00  0.00    -0.346 OA
BRANCH  26  27
HETATM   27  C   UNL     1      44.575 -31.070  -6.815  1.00  0.00     0.121 C 
HETATM   28  C   UNL     1      45.895 -31.822  -6.642  1.00  0.00     0.040 C 
HETATM   29  C   UNL     1      43.936 -31.453  -8.148  1.00  0.00     0.040 C 
ENDBRANCH  26  27
ENDBRANCH  22  26
ENDBRANCH   1  19
TORSDOF 3
ENDMDL
MODEL 6
REMARK VINA RESULT:      -7.6      2.252      2.880
REMARK  3 active torsions:
REMARK  status: ('A' for Active; 'I' for Inactive)
REMARK    1  A    between atoms: C_3  and  O_4 
REMARK    2  A    between atoms: O_4  and  C_5 
REMARK    3  A    between atoms: C_10  and  N_11 
REMARK       I    between atoms: N_11  and  C_12 
REMARK       I    between atoms: C_12  and  N_13 
ROOT
HETATM    1  N   UNL     1      39.993 -11.161   7.113  1.00  0.00    -0.309 N 
HETATM    2  C   UNL     1      40.384  -9.843   7.209  1.00  0.00     0.323 C 
HETATM    3  N   UNL     1      40.001  -9.217   8.386  1.00  0.00    -0.328 N 
HETATM    4  C   UNL     1      40.666  -7.955   8.730  1.00  0.00     0.185 C 
HETATM    5  C   UNL     1      41.024  -8.030  10.178  1.00  0.00     0.035 A 
HETATM    6  C   UNL     1      40.537  -8.931  11.107  1.00  0.00    -0.020 A 
HETATM    7  C   UNL     1      39.563  -9.992  10.721  1.00  0.00     0.061 C 
HETATM    8  C   UNL     1      38.960  -9.668   9.337  1.00  0.00     0.132 C 
HETATM    9  N   UNL     1      41.925  -7.216  10.805  1.00  0.00    -0.357 N 
HETATM   10  H   UNL     1      42.454  -6.474  10.369  1.00  0.00     0.166 HD
HETATM   11  C   UNL     1      42.033  -7.578  12.132  1.00  0.00     0.043 A 
HETATM   12  C   UNL     1      41.167  -8.653  12.348  1.00  0.00    -0.001 A 
HETATM   13  C   UNL     1      42.838  -7.042  13.146  1.00  0.00     0.030 A 
HETATM   14  C   UNL     1      42.753  -7.622  14.416  1.00  0.00     0.002 A 
HETATM   15  C   UNL     1      41.896  -8.693  14.661  1.00  0.00     0.001 A 
HETATM   16  C   UNL     1      41.100  -9.219  13.637  1.00  0.00     0.014 A 
HETATM   17  O   UNL     1      41.053  -9.251   6.366  1.00  0.00    -0.247 OA
HETATM   18  H   UNL     1      39.741 -11.597   7.984  1.00  0.00     0.170 HD
ENDROOT
BRANCH   1  19
HETATM   19  C   UNL     1      40.253 -12.051   6.049  1.00  0.00     0.037 A 
HETATM   20  C   UNL     1      39.418 -12.207   4.944  1.00  0.00     0.032 A 
HETATM   21  C   UNL     1      39.789 -13.047   3.888  1.00  0.00     0.039 A 
HETATM   22  C   UNL     1      41.001 -13.736   3.928  1.00  0.00     0.075 A 
HETATM   23  C   UNL     1      41.807 -13.667   5.073  1.00  0.00    -0.026 A 
HETATM   24  C   UNL     1      43.103 -14.423   5.160  1.00  0.00     0.051 C 
HETATM   25  C   UNL     1      41.431 -12.808   6.118  1.00  0.00     0.039 A 
BRANCH  22  26
HETATM   26  O   UNL     1      41.439 -14.525   2.898  1.00  0.00    -0.346 OA
BRANCH  26  27
HETATM   27  C   UNL     1      40.744 -15.773   2.731  1.00  0.00     0.121 C 
HETATM   28  C   UNL     1      39.947 -15.798   1.426  1.00  0.00     0.040 C 
HETATM   29  C   UNL     1      41.813 -16.863   2.703  1.00  0.00     0.040 C 
ENDBRANCH  26  27
ENDBRANCH  22  26
ENDBRANCH   1  19
TORSDOF 3
ENDMDL
MODEL 7
REMARK VINA RESULT:      -7.5      6.707     10.373
REMARK  3 active torsions:
REMARK  status: ('A' for Active; 'I' for Inactive)
REMARK    1  A    between atoms: C_3  and  O_4 
REMARK    2  A    between atoms: O_4  and  C_5 
REMARK    3  A    between atoms: C_10  and  N_11 
REMARK       I    between atoms: N_11  and  C_12 
REMARK       I    between atoms: C_12  and  N_13 
ROOT
HETATM    1  N   UNL     1      40.967 -12.244   0.695  1.00  0.00    -0.309 N 
HETATM    2  C   UNL     1      41.212 -12.381   2.044  1.00  0.00     0.323 C 
HETATM    3  N   UNL     1      40.967 -13.653   2.543  1.00  0.00    -0.328 N 
HETATM    4  C   UNL     1      41.528 -13.985   3.857  1.00  0.00     0.185 C 
HETATM    5  C   UNL     1      42.137 -15.344   3.742  1.00  0.00     0.035 A 
HETATM    6  C   UNL     1      41.927 -16.263   2.731  1.00  0.00    -0.020 A 
HETATM    7  C   UNL     1      41.032 -15.956   1.578  1.00  0.00     0.061 C 
HETATM    8  C   UNL     1      40.166 -14.721   1.904  1.00  0.00     0.132 C 
HETATM    9  N   UNL     1      43.030 -15.879   4.626  1.00  0.00    -0.357 N 
HETATM   10  H   UNL     1      43.386 -15.425   5.455  1.00  0.00     0.166 HD
HETATM   11  C   UNL     1      43.408 -17.137   4.202  1.00  0.00     0.043 A 
HETATM   12  C   UNL     1      42.725 -17.403   3.012  1.00  0.00    -0.001 A 
HETATM   13  C   UNL     1      44.307 -18.046   4.775  1.00  0.00     0.030 A 
HETATM   14  C   UNL     1      44.511 -19.261   4.113  1.00  0.00     0.002 A 
HETATM   15  C   UNL     1      43.841 -19.554   2.927  1.00  0.00     0.001 A 
HETATM   16  C   UNL     1      42.947 -18.634   2.366  1.00  0.00     0.014 A 
HETATM   17  O   UNL     1      41.651 -11.491   2.768  1.00  0.00    -0.247 OA
HETATM   18  H   UNL     1      40.922 -13.105   0.178  1.00  0.00     0.170 HD
ENDROOT
BRANCH   1  19
HETATM   19  C   UNL     1      41.143 -11.082  -0.087  1.00  0.00     0.037 A 
HETATM   20  C   UNL     1      41.585  -9.862   0.421  1.00  0.00     0.032 A 
HETATM   21  C   UNL     1      41.815  -8.779  -0.435  1.00  0.00     0.039 A 
HETATM   22  C   UNL     1      41.609  -8.910  -1.808  1.00  0.00     0.075 A 
HETATM   23  C   UNL     1      41.073 -10.097  -2.324  1.00  0.00    -0.026 A 
HETATM   24  C   UNL     1      40.808 -10.258  -3.795  1.00  0.00     0.051 C 
HETATM   25  C   UNL     1      40.861 -11.181  -1.457  1.00  0.00     0.039 A 
BRANCH  22  26
HETATM   26  O   UNL     1      41.874  -7.902  -2.696  1.00  0.00    -0.346 OA
BRANCH  26  27
HETATM   27  C   UNL     1      41.461  -6.587  -2.287  1.00  0.00     0.121 C 
HETATM   28  C   UNL     1      42.361  -5.507  -2.888  1.00  0.00     0.040 C 
HETATM   29  C   UNL     1      40.032  -6.404  -2.791  1.00  0.00     0.040 C 
ENDBRANCH  26  27
ENDBRANCH  22  26
ENDBRANCH   1  19
TORSDOF 3
ENDMDL
MODEL 8
REMARK VINA RESULT:      -7.5      2.491      9.740
REMARK  3 active torsions:
REMARK  status: ('A' for Active; 'I' for Inactive)
REMARK    1  A    between atoms: C_3  and  O_4 
REMARK    2  A    between atoms: O_4  and  C_5 
REMARK    3  A    between atoms: C_10  and  N_11 
REMARK       I    between atoms: N_11  and  C_12 
REMARK       I    between atoms: C_12  and  N_13 
ROOT
HETATM    1  N   UNL     1      42.466  -9.694   8.957  1.00  0.00    -0.309 N 
HETATM    2  C   UNL     1      41.860  -9.921   7.740  1.00  0.00     0.323 C 
HETATM    3  N   UNL     1      42.609 -10.696   6.865  1.00  0.00    -0.328 N 
HETATM    4  C   UNL     1      41.914 -11.280   5.712  1.00  0.00     0.185 C 
HETATM    5  C   UNL     1      42.354 -12.703   5.612  1.00  0.00     0.035 A 
HETATM    6  C   UNL     1      43.444 -13.280   6.236  1.00  0.00    -0.020 A 
HETATM    7  C   UNL     1      44.326 -12.489   7.143  1.00  0.00     0.061 C 
HETATM    8  C   UNL     1      44.059 -10.982   6.946  1.00  0.00     0.132 C 
HETATM    9  N   UNL     1      41.715 -13.671   4.890  1.00  0.00    -0.357 N 
HETATM   10  H   UNL     1      40.874 -13.543   4.344  1.00  0.00     0.166 HD
HETATM   11  C   UNL     1      42.374 -14.874   5.039  1.00  0.00     0.043 A 
HETATM   12  C   UNL     1      43.468 -14.654   5.879  1.00  0.00    -0.001 A 
HETATM   13  C   UNL     1      42.076 -16.134   4.504  1.00  0.00     0.030 A 
HETATM   14  C   UNL     1      42.922 -17.197   4.837  1.00  0.00     0.002 A 
HETATM   15  C   UNL     1      44.021 -17.005   5.671  1.00  0.00     0.001 A 
HETATM   16  C   UNL     1      44.305 -15.741   6.199  1.00  0.00     0.014 A 
HETATM   17  O   UNL     1      40.738  -9.526   7.434  1.00  0.00    -0.247 OA
HETATM   18  H   UNL     1      43.216 -10.323   9.186  1.00  0.00     0.170 HD
ENDROOT
BRANCH   1  19
HETATM   19  C   UNL     1      41.941  -8.963  10.045  1.00  0.00     0.037 A 
HETATM   20  C   UNL     1      41.099  -9.507  11.013  1.00  0.00     0.032 A 
HETATM   21  C   UNL     1      40.690  -8.739  12.109  1.00  0.00     0.039 A 
HETATM   22  C   UNL     1      41.122  -7.420  12.246  1.00  0.00     0.075 A 
HETATM   23  C   UNL     1      41.888  -6.827  11.234  1.00  0.00    -0.026 A 
HETATM   24  C   UNL     1      42.342  -5.398  11.337  1.00  0.00     0.051 C 
HETATM   25  C   UNL     1      42.306  -7.614  10.147  1.00  0.00     0.039 A 
BRANCH  22  26
HETATM   26  O   UNL     1      40.799  -6.643  13.326  1.00  0.00    -0.346 OA
BRANCH  26  27
HETATM   27  C   UNL     1      41.140  -7.191  14.611  1.00  0.00     0.121 C 
HETATM   28  C   UNL     1      42.640  -7.077  14.887  1.00  0.00     0.040 C 
HETATM   29  C   UNL     1      40.363  -6.381  15.647  1.00  0.00     0.040 C 
ENDBRANCH  26  27
ENDBRANCH  22  26
ENDBRANCH   1  19
TORSDOF 3
ENDMDL
MODEL 9
REMARK VINA RESULT:      -7.5     19.314     22.100
REMARK  3 active torsions:
REMARK  status: ('A' for Active; 'I' for Inactive)
REMARK    1  A    between atoms: C_3  and  O_4 
REMARK    2  A    between atoms: O_4  and  C_5 
REMARK    3  A    between atoms: C_10  and  N_11 
REMARK       I    between atoms: N_11  and  C_12 
REMARK       I    between atoms: C_12  and  N_13 
ROOT
HETATM    1  N   UNL     1      41.140 -32.531   3.685  1.00  0.00    -0.309 N 
HETATM    2  C   UNL     1      41.690 -31.269   3.617  1.00  0.00     0.323 C 
HETATM    3  N   UNL     1      42.834 -31.186   2.835  1.00  0.00    -0.328 N 
HETATM    4  C   UNL     1      43.274 -29.850   2.418  1.00  0.00     0.185 C 
HETATM    5  C   UNL     1      43.619 -29.936   0.968  1.00  0.00     0.035 A 
HETATM    6  C   UNL     1      43.827 -31.087   0.232  1.00  0.00    -0.020 A 
HETATM    7  C   UNL     1      43.697 -32.438   0.852  1.00  0.00     0.061 C 
HETATM    8  C   UNL     1      43.693 -32.306   2.390  1.00  0.00     0.132 C 
HETATM    9  N   UNL     1      43.759 -28.865   0.131  1.00  0.00    -0.357 N 
HETATM   10  H   UNL     1      43.645 -27.894   0.390  1.00  0.00     0.166 HD
HETATM   11  C   UNL     1      44.052 -29.304  -1.143  1.00  0.00     0.043 A 
HETATM   12  C   UNL     1      44.103 -30.700  -1.106  1.00  0.00    -0.001 A 
HETATM   13  C   UNL     1      44.263 -28.574  -2.319  1.00  0.00     0.030 A 
HETATM   14  C   UNL     1      44.535 -29.291  -3.489  1.00  0.00     0.002 A 
HETATM   15  C   UNL     1      44.594 -30.683  -3.480  1.00  0.00     0.001 A 
HETATM   16  C   UNL     1      44.380 -31.399  -2.297  1.00  0.00     0.014 A 
HETATM   17  O   UNL     1      41.215 -30.271   4.151  1.00  0.00    -0.247 OA
HETATM   18  H   UNL     1      41.436 -33.166   2.964  1.00  0.00     0.170 HD
ENDROOT
BRANCH   1  19
HETATM   19  C   UNL     1      39.974 -32.914   4.383  1.00  0.00     0.037 A 
HETATM   20  C   UNL     1      39.934 -33.158   5.754  1.00  0.00     0.032 A 
HETATM   21  C   UNL     1      38.721 -33.451   6.387  1.00  0.00     0.039 A 
HETATM   22  C   UNL     1      37.537 -33.497   5.652  1.00  0.00     0.075 A 
HETATM   23  C   UNL     1      37.572 -33.351   4.259  1.00  0.00    -0.026 A 
HETATM   24  C   UNL     1      36.317 -33.428   3.435  1.00  0.00     0.051 C 
HETATM   25  C   UNL     1      38.794 -33.042   3.638  1.00  0.00     0.039 A 
BRANCH  22  26
HETATM   26  O   UNL     1      36.315 -33.722   6.229  1.00  0.00    -0.346 OA
BRANCH  26  27
HETATM   27  C   UNL     1      36.211 -34.917   7.022  1.00  0.00     0.121 C 
HETATM   28  C   UNL     1      35.243 -34.730   8.190  1.00  0.00     0.040 C 
HETATM   29  C   UNL     1      35.691 -36.010   6.092  1.00  0.00     0.040 C 
ENDBRANCH  26  27
ENDBRANCH  22  26
ENDBRANCH   1  19
TORSDOF 3
ENDMDL
MODEL 10
REMARK VINA RESULT:      -7.3     18.836     21.770
REMARK  3 active torsions:
REMARK  status: ('A' for Active; 'I' for Inactive)
REMARK    1  A    between atoms: C_3  and  O_4 
REMARK    2  A    between atoms: O_4  and  C_5 
REMARK    3  A    between atoms: C_10  and  N_11 
REMARK       I    between atoms: N_11  and  C_12 
REMARK       I    between atoms: C_12  and  N_13 
ROOT
HETATM    1  N   UNL     1      48.986 -30.118   3.104  1.00  0.00    -0.309 N 
HETATM    2  C   UNL     1      47.621 -30.307   3.121  1.00  0.00     0.323 C 
HETATM    3  N   UNL     1      46.909 -29.399   2.350  1.00  0.00    -0.328 N 
HETATM    4  C   UNL     1      45.518 -29.731   2.023  1.00  0.00     0.185 C 
HETATM    5  C   UNL     1      45.328 -29.437   0.571  1.00  0.00     0.035 A 
HETATM    6  C   UNL     1      46.159 -28.683  -0.237  1.00  0.00    -0.020 A 
HETATM    7  C   UNL     1      47.412 -28.072   0.293  1.00  0.00     0.061 C 
HETATM    8  C   UNL     1      47.390 -28.097   1.837  1.00  0.00     0.132 C 
HETATM    9  N   UNL     1      44.295 -29.900  -0.194  1.00  0.00    -0.357 N 
HETATM   10  H   UNL     1      43.543 -30.494   0.127  1.00  0.00     0.166 HD
HETATM   11  C   UNL     1      44.444 -29.460  -1.493  1.00  0.00     0.043 A 
HETATM   12  C   UNL     1      45.608 -28.689  -1.546  1.00  0.00    -0.001 A 
HETATM   13  C   UNL     1      43.644 -29.697  -2.618  1.00  0.00     0.030 A 
HETATM   14  C   UNL     1      44.046 -29.128  -3.831  1.00  0.00     0.002 A 
HETATM   15  C   UNL     1      45.201 -28.353  -3.913  1.00  0.00     0.001 A 
HETATM   16  C   UNL     1      45.991 -28.127  -2.779  1.00  0.00     0.014 A 
HETATM   17  O   UNL     1      47.049 -31.216   3.717  1.00  0.00    -0.247 OA
HETATM   18  H   UNL     1      49.332 -29.558   2.344  1.00  0.00     0.170 HD
ENDROOT
BRANCH   1  19
HETATM   19  C   UNL     1      49.960 -30.893   3.772  1.00  0.00     0.037 A 
HETATM   20  C   UNL     1      50.731 -30.425   4.834  1.00  0.00     0.032 A 
HETATM   21  C   UNL     1      51.616 -31.281   5.499  1.00  0.00     0.039 A 
HETATM   22  C   UNL     1      51.733 -32.614   5.108  1.00  0.00     0.075 A 
HETATM   23  C   UNL     1      51.039 -33.076   3.982  1.00  0.00    -0.026 A 
HETATM   24  C   UNL     1      51.169 -34.499   3.517  1.00  0.00     0.051 C 
HETATM   25  C   UNL     1      50.142 -32.211   3.334  1.00  0.00     0.039 A 
BRANCH  22  26
HETATM   26  O   UNL     1      52.539 -33.509   5.760  1.00  0.00    -0.346 OA
BRANCH  26  27
HETATM   27  C   UNL     1      53.238 -32.996   6.907  1.00  0.00     0.121 C 
HETATM   28  C   UNL     1      52.752 -33.656   8.198  1.00  0.00     0.040 C 
HETATM   29  C   UNL     1      54.716 -33.314   6.691  1.00  0.00     0.040 C 
ENDBRANCH  26  27
ENDBRANCH  22  26
ENDBRANCH   1  19
TORSDOF 3
ENDMDL
