MODEL 1
REMARK VINA RESULT:      -8.7      0.000      0.000
REMARK  11 active torsions:
REMARK  status: ('A' for Active; 'I' for Inactive)
REMARK    1  A    between atoms: C_4  and  C_5 
REMARK    2  A    between atoms: C_7  and  O_8 
REMARK    3  A    between atoms: C_10  and  O_11 
REMARK    4  A    between atoms: C_16  and  C_17 
REMARK    5  A    between atoms: C_20  and  C_21 
REMARK    6  A    between atoms: C_21  and  N_22 
REMARK    7  A    between atoms: N_22  and  C_23 
REMARK    8  A    between atoms: C_23  and  N_24 
REMARK    9  A    between atoms: N_24  and  C_25 
REMARK   10  A    between atoms: C_27  and  C_28 
REMARK   11  A    between atoms: C_28  and  O_29 
ROOT
HETATM    1  C   UNL     1      39.698 -12.358   2.385  1.00  0.00     0.067 C 
HETATM    2  C   UNL     1      40.314 -11.032   1.898  1.00  0.00     0.001 C 
HETATM    3  C   UNL     1      41.359 -10.479   2.888  1.00  0.00     0.040 C 
HETATM    4  C   UNL     1      40.746 -10.159   4.260  1.00  0.00     0.206 C 
HETATM    5  N   UNL     1      39.330 -10.733   4.253  1.00  0.00    -0.065 N 
HETATM    6  H   UNL     1      38.917 -10.632   5.191  1.00  0.00     0.280 HD
HETATM    7  C   UNL     1      39.310 -12.216   3.875  1.00  0.00     0.246 C 
HETATM    8  C   UNL     1      39.160  -9.994   1.890  1.00  0.00     0.033 C 
HETATM    9  C   UNL     1      38.478  -9.940   3.266  1.00  0.00     0.236 C 
ENDROOT
BRANCH   4  10
HETATM   10  C   UNL     1      41.585 -10.673   5.453  1.00  0.00     0.155 C 
BRANCH  10  11
HETATM   11  N   UNL     1      42.606 -11.639   5.049  1.00  0.00    -0.365 N 
HETATM   12  H   UNL     1      42.906 -11.615   4.078  1.00  0.00     0.161 HD
BRANCH  11  13
HETATM   13  C   UNL     1      43.558 -12.187   5.866  1.00  0.00     0.172 C 
HETATM   14  S   UNL     1      43.565 -13.768   6.406  1.00  0.00    -0.041 SA
BRANCH  13  15
HETATM   15  N   UNL     1      44.562 -11.366   6.294  1.00  0.00    -0.333 N 
HETATM   16  H   UNL     1      45.176 -11.078   5.534  1.00  0.00     0.168 HD
BRANCH  15  17
HETATM   17  C   UNL     1      44.814 -10.742   7.534  1.00  0.00     0.035 A 
HETATM   18  C   UNL     1      44.082 -10.987   8.697  1.00  0.00     0.047 A 
HETATM   19  C   UNL     1      44.374 -10.312   9.894  1.00  0.00     0.041 A 
HETATM   20  C   UNL     1      45.395  -9.359   9.918  1.00  0.00     0.018 A 
HETATM   21  C   UNL     1      46.110  -9.083   8.753  1.00  0.00     0.003 A 
HETATM   22  C   UNL     1      45.817  -9.768   7.570  1.00  0.00     0.029 A 
BRANCH  19  23
HETATM   23  C   UNL     1      43.565 -10.660  11.094  1.00  0.00     0.293 C 
HETATM   24  O   UNL     1      43.932 -11.477  11.926  1.00  0.00    -0.259 OA
BRANCH  23  25
HETATM   25  O   UNL     1      42.410  -9.957  11.117  1.00  0.00    -0.323 OA
HETATM   26  C   UNL     1      41.950  -9.621  12.427  1.00  0.00     0.213 C 
ENDBRANCH  23  25
ENDBRANCH  19  23
ENDBRANCH  15  17
ENDBRANCH  13  15
ENDBRANCH  11  13
ENDBRANCH  10  11
ENDBRANCH   4  10
BRANCH   1  27
HETATM   27  C   UNL     1      40.353 -13.682   2.097  1.00  0.00     0.038 C 
HETATM   28  N   UNL     1      40.509 -14.392   0.927  1.00  0.00    -0.277 N 
HETATM   29  C   UNL     1      39.952 -14.202  -0.391  1.00  0.00     0.179 C 
HETATM   30  N   UNL     1      41.334 -15.442   1.056  1.00  0.00    -0.172 NA
HETATM   31  C   UNL     1      41.582 -15.554   2.363  1.00  0.00     0.089 C 
HETATM   32  C   UNL     1      40.984 -14.475   3.050  1.00  0.00     0.061 C 
BRANCH  31  33
HETATM   33  C   UNL     1      42.399 -16.637   2.906  1.00  0.00    -0.003 A 
HETATM   34  C   UNL     1      42.963 -16.520   4.185  1.00  0.00     0.053 A 
HETATM   35  C   UNL     1      43.730 -17.557   4.730  1.00  0.00     0.102 A 
HETATM   36  C   UNL     1      43.953 -18.727   3.977  1.00  0.00     0.101 A 
HETATM   37  C   UNL     1      43.399 -18.840   2.698  1.00  0.00     0.040 A 
HETATM   38  C   UNL     1      42.626 -17.803   2.167  1.00  0.00     0.017 A 
BRANCH  35  39
HETATM   39  O   UNL     1      44.298 -17.528   5.980  1.00  0.00    -0.353 OA
HETATM   40  C   UNL     1      43.428 -17.568   7.103  1.00  0.00     0.210 C 
ENDBRANCH  35  39
BRANCH  36  41
HETATM   41  O   UNL     1      44.711 -19.698   4.581  1.00  0.00    -0.353 OA
HETATM   42  C   UNL     1      44.048 -20.870   5.032  1.00  0.00     0.210 C 
ENDBRANCH  36  41
ENDBRANCH  31  33
ENDBRANCH   1  27
TORSDOF 11
ENDMDL
MODEL 2
REMARK VINA RESULT:      -8.6      2.287      4.034
REMARK  11 active torsions:
REMARK  status: ('A' for Active; 'I' for Inactive)
REMARK    1  A    between atoms: C_4  and  C_5 
REMARK    2  A    between atoms: C_7  and  O_8 
REMARK    3  A    between atoms: C_10  and  O_11 
REMARK    4  A    between atoms: C_16  and  C_17 
REMARK    5  A    between atoms: C_20  and  C_21 
REMARK    6  A    between atoms: C_21  and  N_22 
REMARK    7  A    between atoms: N_22  and  C_23 
REMARK    8  A    between atoms: C_23  and  N_24 
REMARK    9  A    between atoms: N_24  and  C_25 
REMARK   10  A    between atoms: C_27  and  C_28 
REMARK   11  A    between atoms: C_28  and  O_29 
ROOT
HETATM    1  C   UNL     1      40.095 -13.413  -0.439  1.00  0.00     0.067 C 
HETATM    2  C   UNL     1      41.020 -12.405  -1.147  1.00  0.00     0.001 C 
HETATM    3  C   UNL     1      40.849 -10.974  -0.596  1.00  0.00     0.040 C 
HETATM    4  C   UNL     1      39.426 -10.437  -0.812  1.00  0.00     0.206 C 
HETATM    5  N   UNL     1      38.580 -11.614  -1.293  1.00  0.00    -0.065 N 
HETATM    6  H   UNL     1      37.594 -11.323  -1.351  1.00  0.00     0.280 HD
HETATM    7  C   UNL     1      38.673 -12.816  -0.349  1.00  0.00     0.246 C 
HETATM    8  C   UNL     1      40.545 -12.341  -2.623  1.00  0.00     0.033 C 
HETATM    9  C   UNL     1      39.043 -12.021  -2.689  1.00  0.00     0.236 C 
ENDROOT
BRANCH   4  10
HETATM   10  C   UNL     1      38.825  -9.748   0.436  1.00  0.00     0.155 C 
BRANCH  10  11
HETATM   11  N   UNL     1      39.837  -9.086   1.257  1.00  0.00    -0.365 N 
HETATM   12  H   UNL     1      40.147  -8.166   0.955  1.00  0.00     0.161 HD
BRANCH  11  13
HETATM   13  C   UNL     1      40.033  -9.278   2.598  1.00  0.00     0.172 C 
HETATM   14  S   UNL     1      38.818  -9.394   3.738  1.00  0.00    -0.041 SA
BRANCH  13  15
HETATM   15  N   UNL     1      41.324  -9.352   3.037  1.00  0.00    -0.333 N 
HETATM   16  H   UNL     1      41.791  -8.447   3.020  1.00  0.00     0.168 HD
BRANCH  15  17
HETATM   17  C   UNL     1      42.066 -10.396   3.631  1.00  0.00     0.035 A 
HETATM   18  C   UNL     1      42.495 -10.393   4.958  1.00  0.00     0.047 A 
HETATM   19  C   UNL     1      43.250 -11.459   5.478  1.00  0.00     0.041 A 
HETATM   20  C   UNL     1      43.602 -12.526   4.648  1.00  0.00     0.018 A 
HETATM   21  C   UNL     1      43.206 -12.520   3.312  1.00  0.00     0.003 A 
HETATM   22  C   UNL     1      42.446 -11.460   2.807  1.00  0.00     0.029 A 
BRANCH  19  23
HETATM   23  C   UNL     1      43.637 -11.389   6.914  1.00  0.00     0.293 C 
HETATM   24  O   UNL     1      44.115 -12.340   7.518  1.00  0.00    -0.259 OA
BRANCH  23  25
HETATM   25  O   UNL     1      43.391 -10.160   7.421  1.00  0.00    -0.323 OA
HETATM   26  C   UNL     1      43.587 -10.054   8.832  1.00  0.00     0.213 C 
ENDBRANCH  23  25
ENDBRANCH  19  23
ENDBRANCH  15  17
ENDBRANCH  13  15
ENDBRANCH  11  13
ENDBRANCH  10  11
ENDBRANCH   4  10
BRANCH   1  27
HETATM   27  C   UNL     1      40.504 -14.089   0.842  1.00  0.00     0.038 C 
HETATM   28  N   UNL     1      40.020 -13.986   2.128  1.00  0.00    -0.277 N 
HETATM   29  C   UNL     1      39.074 -13.075   2.726  1.00  0.00     0.179 C 
HETATM   30  N   UNL     1      40.527 -14.913   2.956  1.00  0.00    -0.172 NA
HETATM   31  C   UNL     1      41.501 -15.518   2.274  1.00  0.00     0.089 C 
HETATM   32  C   UNL     1      41.523 -15.030   0.949  1.00  0.00     0.061 C 
BRANCH  31  33
HETATM   33  C   UNL     1      42.339 -16.554   2.875  1.00  0.00    -0.003 A 
HETATM   34  C   UNL     1      42.873 -16.370   4.160  1.00  0.00     0.053 A 
HETATM   35  C   UNL     1      43.658 -17.360   4.761  1.00  0.00     0.102 A 
HETATM   36  C   UNL     1      43.932 -18.551   4.059  1.00  0.00     0.101 A 
HETATM   37  C   UNL     1      43.409 -18.732   2.776  1.00  0.00     0.040 A 
HETATM   38  C   UNL     1      42.616 -17.741   2.188  1.00  0.00     0.017 A 
BRANCH  35  39
HETATM   39  O   UNL     1      44.200 -17.264   6.019  1.00  0.00    -0.353 OA
HETATM   40  C   UNL     1      44.266 -15.974   6.613  1.00  0.00     0.210 C 
ENDBRANCH  35  39
BRANCH  36  41
HETATM   41  O   UNL     1      44.707 -19.474   4.716  1.00  0.00    -0.353 OA
HETATM   42  C   UNL     1      44.073 -20.655   5.186  1.00  0.00     0.210 C 
ENDBRANCH  36  41
ENDBRANCH  31  33
ENDBRANCH   1  27
TORSDOF 11
ENDMDL
MODEL 3
REMARK VINA RESULT:      -8.3      3.597     11.618
REMARK  11 active torsions:
REMARK  status: ('A' for Active; 'I' for Inactive)
REMARK    1  A    between atoms: C_4  and  C_5 
REMARK    2  A    between atoms: C_7  and  O_8 
REMARK    3  A    between atoms: C_10  and  O_11 
REMARK    4  A    between atoms: C_16  and  C_17 
REMARK    5  A    between atoms: C_20  and  C_21 
REMARK    6  A    between atoms: C_21  and  N_22 
REMARK    7  A    between atoms: N_22  and  C_23 
REMARK    8  A    between atoms: C_23  and  N_24 
REMARK    9  A    between atoms: N_24  and  C_25 
REMARK   10  A    between atoms: C_27  and  C_28 
REMARK   11  A    between atoms: C_28  and  O_29 
ROOT
HETATM    1  C   UNL     1      44.015  -9.223  10.021  1.00  0.00     0.067 C 
HETATM    2  C   UNL     1      44.428  -8.430   8.767  1.00  0.00     0.001 C 
HETATM    3  C   UNL     1      43.551  -8.776   7.546  1.00  0.00     0.040 C 
HETATM    4  C   UNL     1      43.672 -10.255   7.146  1.00  0.00     0.206 C 
HETATM    5  N   UNL     1      44.451 -10.949   8.262  1.00  0.00    -0.065 N 
HETATM    6  H   UNL     1      44.467 -11.963   8.085  1.00  0.00     0.280 HD
HETATM    7  C   UNL     1      43.825 -10.709   9.638  1.00  0.00     0.246 C 
HETATM    8  C   UNL     1      45.858  -8.909   8.400  1.00  0.00     0.033 C 
HETATM    9  C   UNL     1      45.889 -10.439   8.255  1.00  0.00     0.236 C 
ENDROOT
BRANCH   4  10
HETATM   10  C   UNL     1      42.313 -10.936   6.862  1.00  0.00     0.155 C 
BRANCH  10  11
HETATM   11  N   UNL     1      42.358 -11.817   5.695  1.00  0.00    -0.365 N 
HETATM   12  H   UNL     1      43.120 -11.674   5.037  1.00  0.00     0.161 HD
BRANCH  11  13
HETATM   13  C   UNL     1      41.860 -13.091   5.633  1.00  0.00     0.172 C 
HETATM   14  S   UNL     1      40.276 -13.519   5.944  1.00  0.00    -0.041 SA
BRANCH  13  15
HETATM   15  N   UNL     1      42.738 -14.090   5.319  1.00  0.00    -0.333 N 
HETATM   16  H   UNL     1      43.289 -14.387   6.123  1.00  0.00     0.168 HD
BRANCH  15  17
HETATM   17  C   UNL     1      42.914 -14.866   4.154  1.00  0.00     0.035 A 
HETATM   18  C   UNL     1      43.180 -16.236   4.158  1.00  0.00     0.047 A 
HETATM   19  C   UNL     1      43.366 -16.942   2.958  1.00  0.00     0.041 A 
HETATM   20  C   UNL     1      43.313 -16.261   1.740  1.00  0.00     0.018 A 
HETATM   21  C   UNL     1      43.082 -14.886   1.727  1.00  0.00     0.003 A 
HETATM   22  C   UNL     1      42.888 -14.195   2.927  1.00  0.00     0.029 A 
BRANCH  19  23
HETATM   23  C   UNL     1      43.612 -18.407   3.055  1.00  0.00     0.293 C 
HETATM   24  O   UNL     1      43.198 -19.205   2.225  1.00  0.00    -0.259 OA
BRANCH  23  25
HETATM   25  O   UNL     1      44.337 -18.703   4.158  1.00  0.00    -0.323 OA
HETATM   26  C   UNL     1      44.189 -20.047   4.618  1.00  0.00     0.213 C 
ENDBRANCH  23  25
ENDBRANCH  19  23
ENDBRANCH  15  17
ENDBRANCH  13  15
ENDBRANCH  11  13
ENDBRANCH  10  11
ENDBRANCH   4  10
BRANCH   1  27
HETATM   27  C   UNL     1      42.925  -8.734  10.937  1.00  0.00     0.038 C 
HETATM   28  N   UNL     1      41.552  -8.760  10.823  1.00  0.00    -0.277 N 
HETATM   29  C   UNL     1      40.688  -9.104   9.720  1.00  0.00     0.179 C 
HETATM   30  N   UNL     1      40.925  -8.403  11.955  1.00  0.00    -0.172 NA
HETATM   31  C   UNL     1      41.877  -7.949  12.772  1.00  0.00     0.089 C 
HETATM   32  C   UNL     1      43.142  -8.134  12.173  1.00  0.00     0.061 C 
BRANCH  31  33
HETATM   33  C   UNL     1      41.568  -7.401  14.091  1.00  0.00    -0.003 A 
HETATM   34  C   UNL     1      40.252  -7.031  14.410  1.00  0.00     0.053 A 
HETATM   35  C   UNL     1      39.933  -6.527  15.676  1.00  0.00     0.102 A 
HETATM   36  C   UNL     1      40.951  -6.371  16.639  1.00  0.00     0.101 A 
HETATM   37  C   UNL     1      42.263  -6.730  16.320  1.00  0.00     0.040 A 
HETATM   38  C   UNL     1      42.570  -7.244  15.055  1.00  0.00     0.017 A 
BRANCH  35  39
HETATM   39  O   UNL     1      38.670  -6.161  16.070  1.00  0.00    -0.353 OA
HETATM   40  C   UNL     1      38.175  -4.906  15.622  1.00  0.00     0.210 C 
ENDBRANCH  35  39
BRANCH  36  41
HETATM   41  O   UNL     1      40.559  -5.873  17.856  1.00  0.00    -0.353 OA
HETATM   42  C   UNL     1      40.525  -6.769  18.957  1.00  0.00     0.210 C 
ENDBRANCH  36  41
ENDBRANCH  31  33
ENDBRANCH   1  27
TORSDOF 11
ENDMDL
MODEL 4
REMARK VINA RESULT:      -8.3      1.870      2.756
REMARK  11 active torsions:
REMARK  status: ('A' for Active; 'I' for Inactive)
REMARK    1  A    between atoms: C_4  and  C_5 
REMARK    2  A    between atoms: C_7  and  O_8 
REMARK    3  A    between atoms: C_10  and  O_11 
REMARK    4  A    between atoms: C_16  and  C_17 
REMARK    5  A    between atoms: C_20  and  C_21 
REMARK    6  A    between atoms: C_21  and  N_22 
REMARK    7  A    between atoms: N_22  and  C_23 
REMARK    8  A    between atoms: C_23  and  N_24 
REMARK    9  A    between atoms: N_24  and  C_25 
REMARK   10  A    between atoms: C_27  and  C_28 
REMARK   11  A    between atoms: C_28  and  O_29 
ROOT
HETATM    1  C   UNL     1      40.771 -11.600   0.690  1.00  0.00     0.067 C 
HETATM    2  C   UNL     1      41.690 -10.522   1.295  1.00  0.00     0.001 C 
HETATM    3  C   UNL     1      41.238 -10.100   2.708  1.00  0.00     0.040 C 
HETATM    4  C   UNL     1      39.833  -9.477   2.705  1.00  0.00     0.206 C 
HETATM    5  N   UNL     1      39.252  -9.712   1.312  1.00  0.00    -0.065 N 
HETATM    6  H   UNL     1      38.270  -9.402   1.297  1.00  0.00     0.280 HD
HETATM    7  C   UNL     1      39.298 -11.188   0.908  1.00  0.00     0.246 C 
HETATM    8  C   UNL     1      41.519  -9.259   0.409  1.00  0.00     0.033 C 
HETATM    9  C   UNL     1      40.034  -8.878   0.301  1.00  0.00     0.236 C 
ENDROOT
BRANCH   4  10
HETATM   10  C   UNL     1      38.913 -10.013   3.827  1.00  0.00     0.155 C 
BRANCH  10  11
HETATM   11  N   UNL     1      39.629 -10.841   4.797  1.00  0.00    -0.365 N 
HETATM   12  H   UNL     1      40.162 -11.625   4.430  1.00  0.00     0.161 HD
BRANCH  11  13
HETATM   13  C   UNL     1      40.100 -10.424   6.012  1.00  0.00     0.172 C 
HETATM   14  S   UNL     1      39.619  -9.035   6.804  1.00  0.00    -0.041 SA
BRANCH  13  15
HETATM   15  N   UNL     1      41.059 -11.194   6.607  1.00  0.00    -0.333 N 
HETATM   16  H   UNL     1      40.660 -11.959   7.149  1.00  0.00     0.168 HD
BRANCH  15  17
HETATM   17  C   UNL     1      42.465 -11.212   6.494  1.00  0.00     0.035 A 
HETATM   18  C   UNL     1      43.331 -10.576   7.385  1.00  0.00     0.047 A 
HETATM   19  C   UNL     1      44.723 -10.618   7.198  1.00  0.00     0.041 A 
HETATM   20  C   UNL     1      45.252 -11.281   6.089  1.00  0.00     0.018 A 
HETATM   21  C   UNL     1      44.393 -11.891   5.175  1.00  0.00     0.003 A 
HETATM   22  C   UNL     1      43.010 -11.853   5.376  1.00  0.00     0.029 A 
BRANCH  19  23
HETATM   23  C   UNL     1      45.573  -9.940   8.215  1.00  0.00     0.293 C 
HETATM   24  O   UNL     1      46.163  -8.892   7.994  1.00  0.00    -0.259 OA
BRANCH  23  25
HETATM   25  O   UNL     1      45.584 -10.637   9.375  1.00  0.00    -0.323 OA
HETATM   26  C   UNL     1      45.088  -9.914  10.503  1.00  0.00     0.213 C 
ENDBRANCH  23  25
ENDBRANCH  19  23
ENDBRANCH  15  17
ENDBRANCH  13  15
ENDBRANCH  11  13
ENDBRANCH  10  11
ENDBRANCH   4  10
BRANCH   1  27
HETATM   27  C   UNL     1      40.992 -13.064   0.964  1.00  0.00     0.038 C 
HETATM   28  N   UNL     1      40.590 -14.194   0.284  1.00  0.00    -0.277 N 
HETATM   29  C   UNL     1      39.679 -14.376  -0.820  1.00  0.00     0.179 C 
HETATM   30  N   UNL     1      41.165 -15.315   0.746  1.00  0.00    -0.172 NA
HETATM   31  C   UNL     1      41.806 -14.965   1.863  1.00  0.00     0.089 C 
HETATM   32  C   UNL     1      41.719 -13.566   2.037  1.00  0.00     0.061 C 
BRANCH  31  33
HETATM   33  C   UNL     1      42.505 -15.943   2.693  1.00  0.00    -0.003 A 
HETATM   34  C   UNL     1      42.816 -15.641   4.028  1.00  0.00     0.053 A 
HETATM   35  C   UNL     1      43.464 -16.575   4.845  1.00  0.00     0.102 A 
HETATM   36  C   UNL     1      43.826 -17.829   4.314  1.00  0.00     0.101 A 
HETATM   37  C   UNL     1      43.525 -18.128   2.983  1.00  0.00     0.040 A 
HETATM   38  C   UNL     1      42.867 -17.193   2.178  1.00  0.00     0.017 A 
BRANCH  35  39
HETATM   39  O   UNL     1      43.785 -16.362   6.162  1.00  0.00    -0.353 OA
HETATM   40  C   UNL     1      42.719 -16.122   7.072  1.00  0.00     0.210 C 
ENDBRANCH  35  39
BRANCH  36  41
HETATM   41  O   UNL     1      44.455 -18.690   5.178  1.00  0.00    -0.353 OA
HETATM   42  C   UNL     1      44.227 -20.081   5.009  1.00  0.00     0.210 C 
ENDBRANCH  36  41
ENDBRANCH  31  33
ENDBRANCH   1  27
TORSDOF 11
ENDMDL
MODEL 5
REMARK VINA RESULT:      -8.2      2.848      4.354
REMARK  11 active torsions:
REMARK  status: ('A' for Active; 'I' for Inactive)
REMARK    1  A    between atoms: C_4  and  C_5 
REMARK    2  A    between atoms: C_7  and  O_8 
REMARK    3  A    between atoms: C_10  and  O_11 
REMARK    4  A    between atoms: C_16  and  C_17 
REMARK    5  A    between atoms: C_20  and  C_21 
REMARK    6  A    between atoms: C_21  and  N_22 
REMARK    7  A    between atoms: N_22  and  C_23 
REMARK    8  A    between atoms: C_23  and  N_24 
REMARK    9  A    between atoms: N_24  and  C_25 
REMARK   10  A    between atoms: C_27  and  C_28 
REMARK   11  A    between atoms: C_28  and  O_29 
ROOT
HETATM    1  C   UNL     1      40.234 -11.273  -1.476  1.00  0.00     0.067 C 
HETATM    2  C   UNL     1      41.433 -10.315  -1.351  1.00  0.00     0.001 C 
HETATM    3  C   UNL     1      41.346  -9.436  -0.087  1.00  0.00     0.040 C 
HETATM    4  C   UNL     1      40.104  -8.530  -0.095  1.00  0.00     0.206 C 
HETATM    5  N   UNL     1      39.234  -8.989  -1.264  1.00  0.00    -0.065 N 
HETATM    6  H   UNL     1      38.341  -8.477  -1.245  1.00  0.00     0.280 HD
HETATM    7  C   UNL     1      38.930 -10.488  -1.204  1.00  0.00     0.246 C 
HETATM    8  C   UNL     1      41.330  -9.332  -2.548  1.00  0.00     0.033 C 
HETATM    9  C   UNL     1      39.947  -8.662  -2.573  1.00  0.00     0.236 C 
ENDROOT
BRANCH   4  10
HETATM   10  C   UNL     1      39.334  -8.517   1.245  1.00  0.00     0.155 C 
BRANCH  10  11
HETATM   11  N   UNL     1      40.177  -8.130   2.376  1.00  0.00    -0.365 N 
HETATM   12  H   UNL     1      40.314  -7.135   2.531  1.00  0.00     0.161 HD
BRANCH  11  13
HETATM   13  C   UNL     1      40.366  -8.858   3.520  1.00  0.00     0.172 C 
HETATM   14  S   UNL     1      39.147  -9.434   4.504  1.00  0.00    -0.041 SA
BRANCH  13  15
HETATM   15  N   UNL     1      41.656  -9.106   3.896  1.00  0.00    -0.333 N 
HETATM   16  H   UNL     1      42.148  -8.258   4.172  1.00  0.00     0.168 HD
BRANCH  15  17
HETATM   17  C   UNL     1      42.368 -10.306   4.108  1.00  0.00     0.035 A 
HETATM   18  C   UNL     1      43.003 -10.639   5.305  1.00  0.00     0.047 A 
HETATM   19  C   UNL     1      43.714 -11.844   5.438  1.00  0.00     0.041 A 
HETATM   20  C   UNL     1      43.813 -12.712   4.348  1.00  0.00     0.018 A 
HETATM   21  C   UNL     1      43.210 -12.372   3.138  1.00  0.00     0.003 A 
HETATM   22  C   UNL     1      42.496 -11.175   3.019  1.00  0.00     0.029 A 
BRANCH  19  23
HETATM   23  C   UNL     1      44.331 -12.134   6.761  1.00  0.00     0.293 C 
HETATM   24  O   UNL     1      43.744 -12.738   7.648  1.00  0.00    -0.259 OA
BRANCH  23  25
HETATM   25  O   UNL     1      45.592 -11.648   6.822  1.00  0.00    -0.323 OA
HETATM   26  C   UNL     1      45.813 -10.711   7.878  1.00  0.00     0.213 C 
ENDBRANCH  23  25
ENDBRANCH  19  23
ENDBRANCH  15  17
ENDBRANCH  13  15
ENDBRANCH  11  13
ENDBRANCH  10  11
ENDBRANCH   4  10
BRANCH   1  27
HETATM   27  C   UNL     1      40.231 -12.620  -0.802  1.00  0.00     0.038 C 
HETATM   28  N   UNL     1      39.581 -13.796  -1.108  1.00  0.00    -0.277 N 
HETATM   29  C   UNL     1      38.549 -14.099  -2.071  1.00  0.00     0.179 C 
HETATM   30  N   UNL     1      40.001 -14.835  -0.370  1.00  0.00    -0.172 NA
HETATM   31  C   UNL     1      40.798 -14.318   0.568  1.00  0.00     0.089 C 
HETATM   32  C   UNL     1      40.964 -12.935   0.336  1.00  0.00     0.061 C 
BRANCH  31  33
HETATM   33  C   UNL     1      41.400 -15.144   1.613  1.00  0.00    -0.003 A 
HETATM   34  C   UNL     1      40.687 -15.422   2.789  1.00  0.00     0.053 A 
HETATM   35  C   UNL     1      41.239 -16.230   3.790  1.00  0.00     0.102 A 
HETATM   36  C   UNL     1      42.535 -16.757   3.622  1.00  0.00     0.101 A 
HETATM   37  C   UNL     1      43.250 -16.473   2.455  1.00  0.00     0.040 A 
HETATM   38  C   UNL     1      42.685 -15.674   1.456  1.00  0.00     0.017 A 
BRANCH  35  39
HETATM   39  O   UNL     1      40.600 -16.564   4.959  1.00  0.00    -0.353 OA
HETATM   40  C   UNL     1      40.629 -15.619   6.020  1.00  0.00     0.210 C 
ENDBRANCH  35  39
BRANCH  36  41
HETATM   41  O   UNL     1      43.005 -17.541   4.646  1.00  0.00    -0.353 OA
HETATM   42  C   UNL     1      44.132 -18.365   4.385  1.00  0.00     0.210 C 
ENDBRANCH  36  41
ENDBRANCH  31  33
ENDBRANCH   1  27
TORSDOF 11
ENDMDL
MODEL 6
REMARK VINA RESULT:      -8.2      3.844      6.690
REMARK  11 active torsions:
REMARK  status: ('A' for Active; 'I' for Inactive)
REMARK    1  A    between atoms: C_4  and  C_5 
REMARK    2  A    between atoms: C_7  and  O_8 
REMARK    3  A    between atoms: C_10  and  O_11 
REMARK    4  A    between atoms: C_16  and  C_17 
REMARK    5  A    between atoms: C_20  and  C_21 
REMARK    6  A    between atoms: C_21  and  N_22 
REMARK    7  A    between atoms: N_22  and  C_23 
REMARK    8  A    between atoms: C_23  and  N_24 
REMARK    9  A    between atoms: N_24  and  C_25 
REMARK   10  A    between atoms: C_27  and  C_28 
REMARK   11  A    between atoms: C_28  and  O_29 
ROOT
HETATM    1  C   UNL     1      43.728 -10.126   7.546  1.00  0.00     0.067 C 
HETATM    2  C   UNL     1      45.143 -10.099   8.155  1.00  0.00     0.001 C 
HETATM    3  C   UNL     1      45.167 -10.656   9.593  1.00  0.00     0.040 C 
HETATM    4  C   UNL     1      44.299  -9.826  10.551  1.00  0.00     0.206 C 
HETATM    5  N   UNL     1      43.500  -8.851   9.687  1.00  0.00    -0.065 N 
HETATM    6  H   UNL     1      42.827  -8.345  10.279  1.00  0.00     0.280 HD
HETATM    7  C   UNL     1      42.723  -9.566   8.578  1.00  0.00     0.246 C 
HETATM    8  C   UNL     1      45.531  -8.601   8.283  1.00  0.00     0.033 C 
HETATM    9  C   UNL     1      44.457  -7.835   9.070  1.00  0.00     0.236 C 
ENDROOT
BRANCH   4  10
HETATM   10  C   UNL     1      43.394 -10.679  11.470  1.00  0.00     0.155 C 
BRANCH  10  11
HETATM   11  N   UNL     1      42.001 -10.234  11.461  1.00  0.00    -0.365 N 
HETATM   12  H   UNL     1      41.412 -10.575  10.706  1.00  0.00     0.161 HD
BRANCH  11  13
HETATM   13  C   UNL     1      41.269  -9.871  12.559  1.00  0.00     0.172 C 
HETATM   14  S   UNL     1      39.769 -10.487  12.958  1.00  0.00    -0.041 SA
BRANCH  13  15
HETATM   15  N   UNL     1      41.798  -8.911  13.373  1.00  0.00    -0.333 N 
HETATM   16  H   UNL     1      42.777  -8.723  13.164  1.00  0.00     0.168 HD
BRANCH  15  17
HETATM   17  C   UNL     1      41.215  -8.050  14.327  1.00  0.00     0.035 A 
HETATM   18  C   UNL     1      41.314  -8.229  15.707  1.00  0.00     0.047 A 
HETATM   19  C   UNL     1      40.688  -7.343  16.600  1.00  0.00     0.041 A 
HETATM   20  C   UNL     1      39.931  -6.280  16.103  1.00  0.00     0.018 A 
HETATM   21  C   UNL     1      39.799  -6.113  14.725  1.00  0.00     0.003 A 
HETATM   22  C   UNL     1      40.434  -6.995  13.845  1.00  0.00     0.029 A 
BRANCH  19  23
HETATM   23  C   UNL     1      40.874  -7.590  18.056  1.00  0.00     0.293 C 
HETATM   24  O   UNL     1      41.846  -7.184  18.678  1.00  0.00    -0.259 OA
BRANCH  23  25
HETATM   25  O   UNL     1      39.841  -8.302  18.561  1.00  0.00    -0.323 OA
HETATM   26  C   UNL     1      39.730  -8.254  19.985  1.00  0.00     0.213 C 
ENDBRANCH  23  25
ENDBRANCH  19  23
ENDBRANCH  15  17
ENDBRANCH  13  15
ENDBRANCH  11  13
ENDBRANCH  10  11
ENDBRANCH   4  10
BRANCH   1  27
HETATM   27  C   UNL     1      43.196 -11.350   6.850  1.00  0.00     0.038 C 
HETATM   28  N   UNL     1      42.049 -11.561   6.115  1.00  0.00    -0.277 N 
HETATM   29  C   UNL     1      40.882 -10.740   5.902  1.00  0.00     0.179 C 
HETATM   30  N   UNL     1      42.039 -12.748   5.488  1.00  0.00    -0.172 NA
HETATM   31  C   UNL     1      43.092 -13.419   5.958  1.00  0.00     0.089 C 
HETATM   32  C   UNL     1      43.840 -12.582   6.815  1.00  0.00     0.061 C 
BRANCH  31  33
HETATM   33  C   UNL     1      43.377 -14.794   5.554  1.00  0.00    -0.003 A 
HETATM   34  C   UNL     1      43.040 -15.234   4.265  1.00  0.00     0.053 A 
HETATM   35  C   UNL     1      43.326 -16.541   3.853  1.00  0.00     0.102 A 
HETATM   36  C   UNL     1      43.945 -17.433   4.751  1.00  0.00     0.101 A 
HETATM   37  C   UNL     1      44.273 -16.999   6.038  1.00  0.00     0.040 A 
HETATM   38  C   UNL     1      43.993 -15.687   6.437  1.00  0.00     0.017 A 
BRANCH  35  39
HETATM   39  O   UNL     1      43.045 -17.040   2.605  1.00  0.00    -0.353 OA
HETATM   40  C   UNL     1      43.159 -16.155   1.498  1.00  0.00     0.210 C 
ENDBRANCH  35  39
BRANCH  36  41
HETATM   41  O   UNL     1      44.195 -18.694   4.272  1.00  0.00    -0.353 OA
HETATM   42  C   UNL     1      44.140 -19.774   5.192  1.00  0.00     0.210 C 
ENDBRANCH  36  41
ENDBRANCH  31  33
ENDBRANCH   1  27
TORSDOF 11
ENDMDL
MODEL 7
REMARK VINA RESULT:      -8.1      2.085      2.624
REMARK  11 active torsions:
REMARK  status: ('A' for Active; 'I' for Inactive)
REMARK    1  A    between atoms: C_4  and  C_5 
REMARK    2  A    between atoms: C_7  and  O_8 
REMARK    3  A    between atoms: C_10  and  O_11 
REMARK    4  A    between atoms: C_16  and  C_17 
REMARK    5  A    between atoms: C_20  and  C_21 
REMARK    6  A    between atoms: C_21  and  N_22 
REMARK    7  A    between atoms: N_22  and  C_23 
REMARK    8  A    between atoms: C_23  and  N_24 
REMARK    9  A    between atoms: N_24  and  C_25 
REMARK   10  A    between atoms: C_27  and  C_28 
REMARK   11  A    between atoms: C_28  and  O_29 
ROOT
HETATM    1  C   UNL     1      40.413 -11.966   2.304  1.00  0.00     0.067 C 
HETATM    2  C   UNL     1      41.391 -10.776   2.355  1.00  0.00     0.001 C 
HETATM    3  C   UNL     1      41.986 -10.574   3.763  1.00  0.00     0.040 C 
HETATM    4  C   UNL     1      40.906 -10.254   4.809  1.00  0.00     0.206 C 
HETATM    5  N   UNL     1      39.556 -10.485   4.131  1.00  0.00    -0.065 N 
HETATM    6  H   UNL     1      38.805 -10.382   4.826  1.00  0.00     0.280 HD
HETATM    7  C   UNL     1      39.453 -11.882   3.513  1.00  0.00     0.246 C 
HETATM    8  C   UNL     1      40.544  -9.506   2.075  1.00  0.00     0.033 C 
HETATM    9  C   UNL     1      39.357  -9.428   3.048  1.00  0.00     0.236 C 
ENDROOT
BRANCH   4  10
HETATM   10  C   UNL     1      41.053 -11.057   6.122  1.00  0.00     0.155 C 
BRANCH  10  11
HETATM   11  N   UNL     1      40.879 -10.226   7.313  1.00  0.00    -0.365 N 
HETATM   12  H   UNL     1      40.284 -10.594   8.050  1.00  0.00     0.161 HD
BRANCH  11  13
HETATM   13  C   UNL     1      41.778  -9.311   7.790  1.00  0.00     0.172 C 
HETATM   14  S   UNL     1      42.028  -7.787   7.153  1.00  0.00    -0.041 SA
BRANCH  13  15
HETATM   15  N   UNL     1      42.549  -9.688   8.852  1.00  0.00    -0.333 N 
HETATM   16  H   UNL     1      43.426 -10.117   8.561  1.00  0.00     0.168 HD
BRANCH  15  17
HETATM   17  C   UNL     1      42.425  -9.466  10.240  1.00  0.00     0.035 A 
HETATM   18  C   UNL     1      41.237  -9.622  10.955  1.00  0.00     0.047 A 
HETATM   19  C   UNL     1      41.180  -9.362  12.335  1.00  0.00     0.041 A 
HETATM   20  C   UNL     1      42.323  -8.914  13.001  1.00  0.00     0.018 A 
HETATM   21  C   UNL     1      43.506  -8.723  12.289  1.00  0.00     0.003 A 
HETATM   22  C   UNL     1      43.554  -8.994  10.917  1.00  0.00     0.029 A 
BRANCH  19  23
HETATM   23  C   UNL     1      39.880  -9.588  13.023  1.00  0.00     0.293 C 
HETATM   24  O   UNL     1      39.014  -8.728  13.101  1.00  0.00    -0.259 OA
BRANCH  23  25
HETATM   25  O   UNL     1      39.811 -10.842  13.524  1.00  0.00    -0.323 OA
HETATM   26  C   UNL     1      38.851 -11.683  12.881  1.00  0.00     0.213 C 
ENDBRANCH  23  25
ENDBRANCH  19  23
ENDBRANCH  15  17
ENDBRANCH  13  15
ENDBRANCH  11  13
ENDBRANCH  10  11
ENDBRANCH   4  10
BRANCH   1  27
HETATM   27  C   UNL     1      40.897 -13.371   2.066  1.00  0.00     0.038 C 
HETATM   28  N   UNL     1      40.891 -14.164   0.939  1.00  0.00    -0.277 N 
HETATM   29  C   UNL     1      40.268 -13.991  -0.352  1.00  0.00     0.179 C 
HETATM   30  N   UNL     1      41.603 -15.292   1.087  1.00  0.00    -0.172 NA
HETATM   31  C   UNL     1      41.928 -15.352   2.380  1.00  0.00     0.089 C 
HETATM   32  C   UNL     1      41.501 -14.172   3.029  1.00  0.00     0.061 C 
BRANCH  31  33
HETATM   33  C   UNL     1      42.656 -16.487   2.943  1.00  0.00    -0.003 A 
HETATM   34  C   UNL     1      43.137 -16.432   4.260  1.00  0.00     0.053 A 
HETATM   35  C   UNL     1      43.817 -17.519   4.823  1.00  0.00     0.102 A 
HETATM   36  C   UNL     1      44.038 -18.676   4.051  1.00  0.00     0.101 A 
HETATM   37  C   UNL     1      43.568 -18.728   2.736  1.00  0.00     0.040 A 
HETATM   38  C   UNL     1      42.880 -17.642   2.186  1.00  0.00     0.017 A 
BRANCH  35  39
HETATM   39  O   UNL     1      44.300 -17.550   6.108  1.00  0.00    -0.353 OA
HETATM   40  C   UNL     1      43.420 -17.162   7.155  1.00  0.00     0.210 C 
ENDBRANCH  35  39
BRANCH  36  41
HETATM   41  O   UNL     1      44.709 -19.698   4.674  1.00  0.00    -0.353 OA
HETATM   42  C   UNL     1      43.954 -20.827   5.092  1.00  0.00     0.210 C 
ENDBRANCH  36  41
ENDBRANCH  31  33
ENDBRANCH   1  27
TORSDOF 11
ENDMDL
MODEL 8
REMARK VINA RESULT:      -8.0      3.826      6.783
REMARK  11 active torsions:
REMARK  status: ('A' for Active; 'I' for Inactive)
REMARK    1  A    between atoms: C_4  and  C_5 
REMARK    2  A    between atoms: C_7  and  O_8 
REMARK    3  A    between atoms: C_10  and  O_11 
REMARK    4  A    between atoms: C_16  and  C_17 
REMARK    5  A    between atoms: C_20  and  C_21 
REMARK    6  A    between atoms: C_21  and  N_22 
REMARK    7  A    between atoms: N_22  and  C_23 
REMARK    8  A    between atoms: C_23  and  N_24 
REMARK    9  A    between atoms: N_24  and  C_25 
REMARK   10  A    between atoms: C_27  and  C_28 
REMARK   11  A    between atoms: C_28  and  O_29 
ROOT
HETATM    1  C   UNL     1      43.786 -10.258   7.580  1.00  0.00     0.067 C 
HETATM    2  C   UNL     1      45.173 -10.256   8.249  1.00  0.00     0.001 C 
HETATM    3  C   UNL     1      45.115 -10.757   9.707  1.00  0.00     0.040 C 
HETATM    4  C   UNL     1      44.239  -9.858  10.593  1.00  0.00     0.206 C 
HETATM    5  N   UNL     1      43.515  -8.891   9.659  1.00  0.00    -0.065 N 
HETATM    6  H   UNL     1      42.837  -8.338  10.201  1.00  0.00     0.280 HD
HETATM    7  C   UNL     1      42.760  -9.621   8.545  1.00  0.00     0.246 C 
HETATM    8  C   UNL     1      45.612  -8.770   8.337  1.00  0.00     0.033 C 
HETATM    9  C   UNL     1      44.534  -7.935   9.046  1.00  0.00     0.236 C 
ENDROOT
BRANCH   4  10
HETATM   10  C   UNL     1      43.264 -10.642  11.503  1.00  0.00     0.155 C 
BRANCH  10  11
HETATM   11  N   UNL     1      41.931 -10.042  11.549  1.00  0.00    -0.365 N 
HETATM   12  H   UNL     1      41.361 -10.118  10.711  1.00  0.00     0.161 HD
BRANCH  11  13
HETATM   13  C   UNL     1      41.168  -9.870  12.673  1.00  0.00     0.172 C 
HETATM   14  S   UNL     1      39.737 -10.668  12.994  1.00  0.00    -0.041 SA
BRANCH  13  15
HETATM   15  N   UNL     1      41.602  -8.952  13.587  1.00  0.00    -0.333 N 
HETATM   16  H   UNL     1      42.614  -8.837  13.570  1.00  0.00     0.168 HD
BRANCH  15  17
HETATM   17  C   UNL     1      40.912  -8.050  14.425  1.00  0.00     0.035 A 
HETATM   18  C   UNL     1      40.023  -7.077  13.966  1.00  0.00     0.047 A 
HETATM   19  C   UNL     1      39.387  -6.197  14.857  1.00  0.00     0.041 A 
HETATM   20  C   UNL     1      39.668  -6.274  16.223  1.00  0.00     0.018 A 
HETATM   21  C   UNL     1      40.580  -7.220  16.688  1.00  0.00     0.003 A 
HETATM   22  C   UNL     1      41.200  -8.099  15.793  1.00  0.00     0.029 A 
BRANCH  19  23
HETATM   23  C   UNL     1      38.429  -5.213  14.284  1.00  0.00     0.293 C 
HETATM   24  O   UNL     1      38.621  -4.644  13.218  1.00  0.00    -0.259 OA
BRANCH  23  25
HETATM   25  O   UNL     1      37.355  -5.058  15.092  1.00  0.00    -0.323 OA
HETATM   26  C   UNL     1      36.925  -3.704  15.249  1.00  0.00     0.213 C 
ENDBRANCH  23  25
ENDBRANCH  19  23
ENDBRANCH  15  17
ENDBRANCH  13  15
ENDBRANCH  11  13
ENDBRANCH  10  11
ENDBRANCH   4  10
BRANCH   1  27
HETATM   27  C   UNL     1      43.238 -11.488   6.908  1.00  0.00     0.038 C 
HETATM   28  N   UNL     1      42.076 -11.706   6.200  1.00  0.00    -0.277 N 
HETATM   29  C   UNL     1      40.905 -10.886   6.004  1.00  0.00     0.179 C 
HETATM   30  N   UNL     1      42.052 -12.900   5.586  1.00  0.00    -0.172 NA
HETATM   31  C   UNL     1      43.115 -13.566   6.040  1.00  0.00     0.089 C 
HETATM   32  C   UNL     1      43.882 -12.721   6.873  1.00  0.00     0.061 C 
BRANCH  31  33
HETATM   33  C   UNL     1      43.391 -14.946   5.644  1.00  0.00    -0.003 A 
HETATM   34  C   UNL     1      43.010 -15.403   4.374  1.00  0.00     0.053 A 
HETATM   35  C   UNL     1      43.287 -16.715   3.969  1.00  0.00     0.102 A 
HETATM   36  C   UNL     1      43.940 -17.593   4.857  1.00  0.00     0.101 A 
HETATM   37  C   UNL     1      44.311 -17.141   6.127  1.00  0.00     0.040 A 
HETATM   38  C   UNL     1      44.040 -15.825   6.517  1.00  0.00     0.017 A 
BRANCH  35  39
HETATM   39  O   UNL     1      42.965 -17.231   2.738  1.00  0.00    -0.353 OA
HETATM   40  C   UNL     1      41.733 -16.830   2.155  1.00  0.00     0.210 C 
ENDBRANCH  35  39
BRANCH  36  41
HETATM   41  O   UNL     1      44.178 -18.860   4.386  1.00  0.00    -0.353 OA
HETATM   42  C   UNL     1      44.106 -19.934   5.312  1.00  0.00     0.210 C 
ENDBRANCH  36  41
ENDBRANCH  31  33
ENDBRANCH   1  27
TORSDOF 11
ENDMDL
MODEL 9
REMARK VINA RESULT:      -8.0      5.541     12.648
REMARK  11 active torsions:
REMARK  status: ('A' for Active; 'I' for Inactive)
REMARK    1  A    between atoms: C_4  and  C_5 
REMARK    2  A    between atoms: C_7  and  O_8 
REMARK    3  A    between atoms: C_10  and  O_11 
REMARK    4  A    between atoms: C_16  and  C_17 
REMARK    5  A    between atoms: C_20  and  C_21 
REMARK    6  A    between atoms: C_21  and  N_22 
REMARK    7  A    between atoms: N_22  and  C_23 
REMARK    8  A    between atoms: C_23  and  N_24 
REMARK    9  A    between atoms: N_24  and  C_25 
REMARK   10  A    between atoms: C_27  and  C_28 
REMARK   11  A    between atoms: C_28  and  O_29 
ROOT
HETATM    1  C   UNL     1      42.416  -8.799  12.924  1.00  0.00     0.067 C 
HETATM    2  C   UNL     1      43.162  -8.097  11.773  1.00  0.00     0.001 C 
HETATM    3  C   UNL     1      42.239  -7.812  10.571  1.00  0.00     0.040 C 
HETATM    4  C   UNL     1      41.671  -9.102   9.958  1.00  0.00     0.206 C 
HETATM    5  N   UNL     1      42.031 -10.238  10.914  1.00  0.00    -0.065 N 
HETATM    6  H   UNL     1      41.580 -11.107  10.594  1.00  0.00     0.280 HD
HETATM    7  C   UNL     1      41.569  -9.955  12.346  1.00  0.00     0.246 C 
HETATM    8  C   UNL     1      44.216  -9.113  11.256  1.00  0.00     0.033 C 
HETATM    9  C   UNL     1      43.542 -10.446  10.893  1.00  0.00     0.236 C 
ENDROOT
BRANCH   4  10
HETATM   10  C   UNL     1      40.155  -9.036   9.662  1.00  0.00     0.155 C 
BRANCH  10  11
HETATM   11  N   UNL     1      39.700 -10.130   8.804  1.00  0.00    -0.365 N 
HETATM   12  H   UNL     1      38.996 -10.755   9.188  1.00  0.00     0.161 HD
BRANCH  11  13
HETATM   13  C   UNL     1      39.689 -10.124   7.436  1.00  0.00     0.172 C 
HETATM   14  S   UNL     1      39.318  -8.803   6.484  1.00  0.00    -0.041 SA
BRANCH  13  15
HETATM   15  N   UNL     1      39.978 -11.300   6.804  1.00  0.00    -0.333 N 
HETATM   16  H   UNL     1      39.189 -11.945   6.808  1.00  0.00     0.168 HD
BRANCH  15  17
HETATM   17  C   UNL     1      41.088 -11.719   6.039  1.00  0.00     0.035 A 
HETATM   18  C   UNL     1      42.412 -11.404   6.345  1.00  0.00     0.047 A 
HETATM   19  C   UNL     1      43.469 -11.836   5.526  1.00  0.00     0.041 A 
HETATM   20  C   UNL     1      43.191 -12.570   4.370  1.00  0.00     0.018 A 
HETATM   21  C   UNL     1      41.869 -12.860   4.038  1.00  0.00     0.003 A 
HETATM   22  C   UNL     1      40.825 -12.433   4.866  1.00  0.00     0.029 A 
BRANCH  19  23
HETATM   23  C   UNL     1      44.852 -11.484   5.946  1.00  0.00     0.293 C 
HETATM   24  O   UNL     1      45.723 -11.156   5.152  1.00  0.00    -0.259 OA
BRANCH  23  25
HETATM   25  O   UNL     1      44.987 -11.576   7.289  1.00  0.00    -0.323 OA
HETATM   26  C   UNL     1      45.891 -10.627   7.859  1.00  0.00     0.213 C 
ENDBRANCH  23  25
ENDBRANCH  19  23
ENDBRANCH  15  17
ENDBRANCH  13  15
ENDBRANCH  11  13
ENDBRANCH  10  11
ENDBRANCH   4  10
BRANCH   1  27
HETATM   27  C   UNL     1      41.662  -8.015  13.965  1.00  0.00     0.038 C 
HETATM   28  N   UNL     1      40.558  -7.196  13.873  1.00  0.00    -0.277 N 
HETATM   29  C   UNL     1      39.847  -6.668  12.734  1.00  0.00     0.179 C 
HETATM   30  N   UNL     1      40.068  -6.841  15.071  1.00  0.00    -0.172 NA
HETATM   31  C   UNL     1      40.959  -7.262  15.971  1.00  0.00     0.089 C 
HETATM   32  C   UNL     1      41.974  -7.998  15.320  1.00  0.00     0.061 C 
BRANCH  31  33
HETATM   33  C   UNL     1      40.802  -6.996  17.399  1.00  0.00    -0.003 A 
HETATM   34  C   UNL     1      40.242  -7.970  18.240  1.00  0.00     0.053 A 
HETATM   35  C   UNL     1      40.106  -7.741  19.614  1.00  0.00     0.102 A 
HETATM   36  C   UNL     1      40.519  -6.509  20.158  1.00  0.00     0.101 A 
HETATM   37  C   UNL     1      41.069  -5.535  19.320  1.00  0.00     0.040 A 
HETATM   38  C   UNL     1      41.211  -5.777  17.950  1.00  0.00     0.017 A 
BRANCH  35  39
HETATM   39  O   UNL     1      39.586  -8.649  20.504  1.00  0.00    -0.353 OA
HETATM   40  C   UNL     1      40.283  -9.876  20.679  1.00  0.00     0.210 C 
ENDBRANCH  35  39
BRANCH  36  41
HETATM   41  O   UNL     1      40.356  -6.363  21.513  1.00  0.00    -0.353 OA
HETATM   42  C   UNL     1      41.524  -6.313  22.319  1.00  0.00     0.210 C 
ENDBRANCH  36  41
ENDBRANCH  31  33
ENDBRANCH   1  27
TORSDOF 11
ENDMDL
MODEL 10
REMARK VINA RESULT:      -7.9      2.153      2.695
REMARK  11 active torsions:
REMARK  status: ('A' for Active; 'I' for Inactive)
REMARK    1  A    between atoms: C_4  and  C_5 
REMARK    2  A    between atoms: C_7  and  O_8 
REMARK    3  A    between atoms: C_10  and  O_11 
REMARK    4  A    between atoms: C_16  and  C_17 
REMARK    5  A    between atoms: C_20  and  C_21 
REMARK    6  A    between atoms: C_21  and  N_22 
REMARK    7  A    between atoms: N_22  and  C_23 
REMARK    8  A    between atoms: C_23  and  N_24 
REMARK    9  A    between atoms: N_24  and  C_25 
REMARK   10  A    between atoms: C_27  and  C_28 
REMARK   11  A    between atoms: C_28  and  O_29 
ROOT
HETATM    1  C   UNL     1      40.265 -12.190   2.628  1.00  0.00     0.067 C 
HETATM    2  C   UNL     1      41.198 -10.966   2.547  1.00  0.00     0.001 C 
HETATM    3  C   UNL     1      41.942 -10.714   3.874  1.00  0.00     0.040 C 
HETATM    4  C   UNL     1      40.976 -10.409   5.030  1.00  0.00     0.206 C 
HETATM    5  N   UNL     1      39.568 -10.701   4.515  1.00  0.00    -0.065 N 
HETATM    6  H   UNL     1      38.897 -10.609   5.290  1.00  0.00     0.280 HD
HETATM    7  C   UNL     1      39.446 -12.113   3.937  1.00  0.00     0.246 C 
HETATM    8  C   UNL     1      40.279  -9.732   2.344  1.00  0.00     0.033 C 
HETATM    9  C   UNL     1      39.208  -9.675   3.445  1.00  0.00     0.236 C 
ENDROOT
BRANCH   4  10
HETATM   10  C   UNL     1      41.301 -11.178   6.332  1.00  0.00     0.155 C 
BRANCH  10  11
HETATM   11  N   UNL     1      41.945 -10.335   7.339  1.00  0.00    -0.365 N 
HETATM   12  H   UNL     1      41.335  -9.843   7.987  1.00  0.00     0.161 HD
BRANCH  11  13
HETATM   13  C   UNL     1      43.199 -10.519   7.854  1.00  0.00     0.172 C 
HETATM   14  S   UNL     1      44.567 -10.851   6.956  1.00  0.00    -0.041 SA
BRANCH  13  15
HETATM   15  N   UNL     1      43.333 -10.453   9.212  1.00  0.00    -0.333 N 
HETATM   16  H   UNL     1      43.747 -11.298   9.602  1.00  0.00     0.168 HD
BRANCH  15  17
HETATM   17  C   UNL     1      43.143  -9.400  10.133  1.00  0.00     0.035 A 
HETATM   18  C   UNL     1      42.879  -8.079   9.769  1.00  0.00     0.047 A 
HETATM   19  C   UNL     1      42.723  -7.076  10.740  1.00  0.00     0.041 A 
HETATM   20  C   UNL     1      42.862  -7.396  12.093  1.00  0.00     0.018 A 
HETATM   21  C   UNL     1      43.159  -8.707  12.465  1.00  0.00     0.003 A 
HETATM   22  C   UNL     1      43.302  -9.699  11.490  1.00  0.00     0.029 A 
BRANCH  19  23
HETATM   23  C   UNL     1      42.410  -5.701  10.264  1.00  0.00     0.293 C 
HETATM   24  O   UNL     1      42.067  -5.461   9.114  1.00  0.00    -0.259 OA
BRANCH  23  25
HETATM   25  O   UNL     1      42.554  -4.800  11.262  1.00  0.00    -0.323 OA
HETATM   26  C   UNL     1      42.974  -3.504  10.830  1.00  0.00     0.213 C 
ENDBRANCH  23  25
ENDBRANCH  19  23
ENDBRANCH  15  17
ENDBRANCH  13  15
ENDBRANCH  11  13
ENDBRANCH  10  11
ENDBRANCH   4  10
BRANCH   1  27
HETATM   27  C   UNL     1      40.770 -13.582   2.361  1.00  0.00     0.038 C 
HETATM   28  N   UNL     1      40.788 -14.345   1.213  1.00  0.00    -0.277 N 
HETATM   29  C   UNL     1      40.180 -14.147  -0.080  1.00  0.00     0.179 C 
HETATM   30  N   UNL     1      41.513 -15.468   1.342  1.00  0.00    -0.172 NA
HETATM   31  C   UNL     1      41.822 -15.557   2.637  1.00  0.00     0.089 C 
HETATM   32  C   UNL     1      41.372 -14.400   3.310  1.00  0.00     0.061 C 
BRANCH  31  33
HETATM   33  C   UNL     1      42.558 -16.697   3.180  1.00  0.00    -0.003 A 
HETATM   34  C   UNL     1      42.841 -16.764   4.553  1.00  0.00     0.053 A 
HETATM   35  C   UNL     1      43.525 -17.859   5.094  1.00  0.00     0.102 A 
HETATM   36  C   UNL     1      43.951 -18.900   4.246  1.00  0.00     0.101 A 
HETATM   37  C   UNL     1      43.677 -18.831   2.877  1.00  0.00     0.040 A 
HETATM   38  C   UNL     1      42.984 -17.738   2.348  1.00  0.00     0.017 A 
BRANCH  35  39
HETATM   39  O   UNL     1      43.822 -18.006   6.426  1.00  0.00    -0.353 OA
HETATM   40  C   UNL     1      43.912 -16.829   7.218  1.00  0.00     0.210 C 
ENDBRANCH  35  39
BRANCH  36  41
HETATM   41  O   UNL     1      44.611 -19.939   4.851  1.00  0.00    -0.353 OA
HETATM   42  C   UNL     1      43.911 -21.165   5.012  1.00  0.00     0.210 C 
ENDBRANCH  36  41
ENDBRANCH  31  33
ENDBRANCH   1  27
TORSDOF 11
ENDMDL
