MODEL 1
REMARK VINA RESULT:      -7.0      0.000      0.000
REMARK  5 active torsions:
REMARK  status: ('A' for Active; 'I' for Inactive)
REMARK    1  A    between atoms: C_2  and  N_3 
REMARK    2  A    between atoms: N_3  and  C_6 
REMARK    3  A    between atoms: C_6  and  C_7 
REMARK    4  A    between atoms: C_8  and  N_9 
REMARK       I    between atoms: N_9  and  C_10 
REMARK    5  A    between atoms: C_10  and  C_11 
ROOT
HETATM    1  N   UNL     1      42.367 -16.142   3.234  1.00  0.00    -0.326 N 
HETATM    2  C   UNL     1      41.269 -15.567   3.840  1.00  0.00     0.231 C 
HETATM    3  O   UNL     1      40.625 -16.095   4.743  1.00  0.00    -0.272 OA
HETATM    4  H   UNL     1      42.724 -15.613   2.442  1.00  0.00     0.169 HD
ENDROOT
BRANCH   1   5
HETATM    5  C   UNL     1      42.988 -17.408   3.408  1.00  0.00     0.042 A 
HETATM    6  C   UNL     1      43.690 -17.919   4.524  1.00  0.00    -0.006 A 
HETATM    7  C   UNL     1      44.168 -19.256   4.464  1.00  0.00     0.011 A 
HETATM    8  C   UNL     1      43.992 -20.058   3.340  1.00  0.00     0.001 A 
HETATM    9  C   UNL     1      43.334 -19.546   2.239  1.00  0.00     0.002 A 
HETATM   10  C   UNL     1      42.844 -18.241   2.275  1.00  0.00     0.030 A 
BRANCH   6  11
HETATM   11  C   UNL     1      44.034 -17.188   5.797  1.00  0.00     0.273 C 
BRANCH  11  12
HETATM   12  N   UNL     1      42.889 -17.119   6.745  1.00  0.00    -0.072 N 
HETATM   13  H   UNL     1      42.851 -17.955   7.336  1.00  0.00     0.277 HD
HETATM   14  H   UNL     1      42.062 -17.164   6.119  1.00  0.00     0.277 HD
BRANCH  12  15
HETATM   15  C   UNL     1      42.769 -15.865   7.526  1.00  0.00     0.228 C 
HETATM   16  C   UNL     1      43.418 -14.739   6.746  1.00  0.00     0.034 C 
ENDBRANCH  12  15
ENDBRANCH  11  12
ENDBRANCH   6  11
ENDBRANCH   1   5
BRANCH   2  17
HETATM   17  C   UNL     1      40.832 -14.240   3.201  1.00  0.00     0.122 C 
HETATM   18  C   UNL     1      40.797 -13.146   4.247  1.00  0.00    -0.028 A 
HETATM   19  C   UNL     1      41.962 -12.371   4.301  1.00  0.00     0.007 A 
HETATM   20  C   UNL     1      39.766 -12.918   5.155  1.00  0.00     0.009 A 
HETATM   21  C   UNL     1      42.131 -11.390   5.264  1.00  0.00     0.019 A 
HETATM   22  S   UNL     1      43.112 -12.789   3.025  1.00  0.00    -0.128 SA
HETATM   23  C   UNL     1      41.104 -11.169   6.182  1.00  0.00     0.001 A 
HETATM   24  C   UNL     1      39.925 -11.924   6.121  1.00  0.00     0.001 A 
HETATM   25  C   UNL     1      41.856 -13.777   2.147  1.00  0.00     0.098 C 
ENDBRANCH   2  17
TORSDOF 5
ENDMDL
MODEL 2
REMARK VINA RESULT:      -6.9      3.636      5.390
REMARK  5 active torsions:
REMARK  status: ('A' for Active; 'I' for Inactive)
REMARK    1  A    between atoms: C_2  and  N_3 
REMARK    2  A    between atoms: N_3  and  C_6 
REMARK    3  A    between atoms: C_6  and  C_7 
REMARK    4  A    between atoms: C_8  and  N_9 
REMARK       I    between atoms: N_9  and  C_10 
REMARK    5  A    between atoms: C_10  and  C_11 
ROOT
HETATM    1  N   UNL     1      42.045 -14.381   1.262  1.00  0.00    -0.326 N 
HETATM    2  C   UNL     1      40.826 -14.105   0.678  1.00  0.00     0.231 C 
HETATM    3  O   UNL     1      39.775 -14.663   0.979  1.00  0.00    -0.272 OA
HETATM    4  H   UNL     1      42.828 -13.897   0.830  1.00  0.00     0.169 HD
ENDROOT
BRANCH   1   5
HETATM    5  C   UNL     1      42.428 -15.334   2.245  1.00  0.00     0.042 A 
HETATM    6  C   UNL     1      42.195 -15.330   3.639  1.00  0.00    -0.006 A 
HETATM    7  C   UNL     1      42.637 -16.448   4.398  1.00  0.00     0.011 A 
HETATM    8  C   UNL     1      43.310 -17.520   3.819  1.00  0.00     0.001 A 
HETATM    9  C   UNL     1      43.564 -17.506   2.461  1.00  0.00     0.002 A 
HETATM   10  C   UNL     1      43.131 -16.428   1.690  1.00  0.00     0.030 A 
BRANCH   6  11
HETATM   11  C   UNL     1      41.546 -14.239   4.452  1.00  0.00     0.273 C 
BRANCH  11  12
HETATM   12  N   UNL     1      40.084 -14.130   4.199  1.00  0.00    -0.072 N 
HETATM   13  H   UNL     1      39.547 -14.592   4.939  1.00  0.00     0.277 HD
HETATM   14  H   UNL     1      39.950 -14.698   3.340  1.00  0.00     0.277 HD
BRANCH  12  15
HETATM   15  C   UNL     1      39.578 -12.769   3.897  1.00  0.00     0.228 C 
HETATM   16  C   UNL     1      40.760 -11.837   3.720  1.00  0.00     0.034 C 
ENDBRANCH  12  15
ENDBRANCH  11  12
ENDBRANCH   6  11
ENDBRANCH   1   5
BRANCH   2  17
HETATM   17  C   UNL     1      40.910 -13.108  -0.489  1.00  0.00     0.122 C 
HETATM   18  C   UNL     1      39.777 -13.352  -1.463  1.00  0.00    -0.028 A 
HETATM   19  C   UNL     1      38.661 -12.531  -1.258  1.00  0.00     0.007 A 
HETATM   20  C   UNL     1      39.748 -14.333  -2.452  1.00  0.00     0.009 A 
HETATM   21  C   UNL     1      37.503 -12.689  -2.002  1.00  0.00     0.019 A 
HETATM   22  S   UNL     1      38.935 -11.322   0.002  1.00  0.00    -0.128 SA
HETATM   23  C   UNL     1      37.469 -13.679  -2.984  1.00  0.00     0.001 A 
HETATM   24  C   UNL     1      38.589 -14.490  -3.212  1.00  0.00     0.001 A 
HETATM   25  C   UNL     1      40.725 -11.663   0.012  1.00  0.00     0.098 C 
ENDBRANCH   2  17
TORSDOF 5
ENDMDL
MODEL 3
REMARK VINA RESULT:      -6.7      3.396      6.030
REMARK  5 active torsions:
REMARK  status: ('A' for Active; 'I' for Inactive)
REMARK    1  A    between atoms: C_2  and  N_3 
REMARK    2  A    between atoms: N_3  and  C_6 
REMARK    3  A    between atoms: C_6  and  C_7 
REMARK    4  A    between atoms: C_8  and  N_9 
REMARK       I    between atoms: N_9  and  C_10 
REMARK    5  A    between atoms: C_10  and  C_11 
ROOT
HETATM    1  N   UNL     1      41.164 -14.254  -0.024  1.00  0.00    -0.326 N 
HETATM    2  C   UNL     1      41.307 -15.139   1.025  1.00  0.00     0.231 C 
HETATM    3  O   UNL     1      40.371 -15.705   1.583  1.00  0.00    -0.272 OA
HETATM    4  H   UNL     1      42.032 -13.805  -0.305  1.00  0.00     0.169 HD
ENDROOT
BRANCH   1   5
HETATM    5  C   UNL     1      40.010 -13.736  -0.672  1.00  0.00     0.042 A 
HETATM    6  C   UNL     1      39.088 -12.764  -0.224  1.00  0.00    -0.006 A 
HETATM    7  C   UNL     1      38.041 -12.374  -1.102  1.00  0.00     0.011 A 
HETATM    8  C   UNL     1      37.882 -12.937  -2.365  1.00  0.00     0.001 A 
HETATM    9  C   UNL     1      38.766 -13.910  -2.788  1.00  0.00     0.002 A 
HETATM   10  C   UNL     1      39.811 -14.303  -1.952  1.00  0.00     0.030 A 
BRANCH   6  11
HETATM   11  C   UNL     1      39.056 -12.091   1.125  1.00  0.00     0.273 C 
BRANCH  11  12
HETATM   12  N   UNL     1      38.735 -13.035   2.228  1.00  0.00    -0.072 N 
HETATM   13  H   UNL     1      38.735 -14.004   1.895  1.00  0.00     0.277 HD
HETATM   14  H   UNL     1      37.748 -12.804   2.457  1.00  0.00     0.277 HD
BRANCH  12  15
HETATM   15  C   UNL     1      39.516 -12.865   3.477  1.00  0.00     0.228 C 
HETATM   16  C   UNL     1      39.801 -11.389   3.676  1.00  0.00     0.034 C 
ENDBRANCH  12  15
ENDBRANCH  11  12
ENDBRANCH   6  11
ENDBRANCH   1   5
BRANCH   2  17
HETATM   17  C   UNL     1      42.753 -15.273   1.530  1.00  0.00     0.122 C 
HETATM   18  C   UNL     1      42.965 -14.386   2.738  1.00  0.00    -0.028 A 
HETATM   19  C   UNL     1      42.811 -15.045   3.965  1.00  0.00     0.007 A 
HETATM   20  C   UNL     1      43.222 -13.017   2.710  1.00  0.00     0.009 A 
HETATM   21  C   UNL     1      42.879 -14.358   5.166  1.00  0.00     0.019 A 
HETATM   22  S   UNL     1      42.551 -16.782   3.770  1.00  0.00    -0.128 SA
HETATM   23  C   UNL     1      43.124 -12.985   5.138  1.00  0.00     0.001 A 
HETATM   24  C   UNL     1      43.302 -12.321   3.917  1.00  0.00     0.001 A 
HETATM   25  C   UNL     1      43.032 -16.709   2.013  1.00  0.00     0.098 C 
ENDBRANCH   2  17
TORSDOF 5
ENDMDL
MODEL 4
REMARK VINA RESULT:      -6.6      2.930      6.457
REMARK  5 active torsions:
REMARK  status: ('A' for Active; 'I' for Inactive)
REMARK    1  A    between atoms: C_2  and  N_3 
REMARK    2  A    between atoms: N_3  and  C_6 
REMARK    3  A    between atoms: C_6  and  C_7 
REMARK    4  A    between atoms: C_8  and  N_9 
REMARK       I    between atoms: N_9  and  C_10 
REMARK    5  A    between atoms: C_10  and  C_11 
ROOT
HETATM    1  N   UNL     1      40.405 -14.592   0.954  1.00  0.00    -0.326 N 
HETATM    2  C   UNL     1      41.435 -15.108   1.713  1.00  0.00     0.231 C 
HETATM    3  O   UNL     1      42.618 -14.820   1.554  1.00  0.00    -0.272 OA
HETATM    4  H   UNL     1      39.498 -15.007   1.155  1.00  0.00     0.169 HD
ENDROOT
BRANCH   1   5
HETATM    5  C   UNL     1      40.401 -13.711  -0.161  1.00  0.00     0.042 A 
HETATM    6  C   UNL     1      40.619 -12.315  -0.204  1.00  0.00    -0.006 A 
HETATM    7  C   UNL     1      40.620 -11.673  -1.471  1.00  0.00     0.011 A 
HETATM    8  C   UNL     1      40.386 -12.366  -2.656  1.00  0.00     0.001 A 
HETATM    9  C   UNL     1      40.141 -13.724  -2.608  1.00  0.00     0.002 A 
HETATM   10  C   UNL     1      40.147 -14.383  -1.378  1.00  0.00     0.030 A 
BRANCH   6  11
HETATM   11  C   UNL     1      40.824 -11.388   0.967  1.00  0.00     0.273 C 
BRANCH  11  12
HETATM   12  N   UNL     1      42.128 -11.608   1.650  1.00  0.00    -0.072 N 
HETATM   13  H   UNL     1      42.837 -10.951   1.308  1.00  0.00     0.277 HD
HETATM   14  H   UNL     1      42.414 -12.548   1.315  1.00  0.00     0.277 HD
BRANCH  12  15
HETATM   15  C   UNL     1      42.083 -11.674   3.130  1.00  0.00     0.228 C 
HETATM   16  C   UNL     1      43.498 -11.587   3.665  1.00  0.00     0.034 C 
ENDBRANCH  12  15
ENDBRANCH  11  12
ENDBRANCH   6  11
ENDBRANCH   1   5
BRANCH   2  17
HETATM   17  C   UNL     1      40.989 -16.185   2.714  1.00  0.00     0.122 C 
HETATM   18  C   UNL     1      42.152 -17.094   3.051  1.00  0.00    -0.028 A 
HETATM   19  C   UNL     1      42.833 -16.739   4.222  1.00  0.00     0.007 A 
HETATM   20  C   UNL     1      42.604 -18.161   2.278  1.00  0.00     0.009 A 
HETATM   21  C   UNL     1      43.978 -17.410   4.622  1.00  0.00     0.019 A 
HETATM   22  S   UNL     1      42.058 -15.399   5.075  1.00  0.00    -0.128 SA
HETATM   23  C   UNL     1      44.438 -18.471   3.842  1.00  0.00     0.001 A 
HETATM   24  C   UNL     1      43.750 -18.848   2.681  1.00  0.00     0.001 A 
HETATM   25  C   UNL     1      40.559 -15.547   4.048  1.00  0.00     0.098 C 
ENDBRANCH   2  17
TORSDOF 5
ENDMDL
MODEL 5
REMARK VINA RESULT:      -6.6      2.259      2.880
REMARK  5 active torsions:
REMARK  status: ('A' for Active; 'I' for Inactive)
REMARK    1  A    between atoms: C_2  and  N_3 
REMARK    2  A    between atoms: N_3  and  C_6 
REMARK    3  A    between atoms: C_6  and  C_7 
REMARK    4  A    between atoms: C_8  and  N_9 
REMARK       I    between atoms: N_9  and  C_10 
REMARK    5  A    between atoms: C_10  and  C_11 
ROOT
HETATM    1  N   UNL     1      41.387 -16.431   2.285  1.00  0.00    -0.326 N 
HETATM    2  C   UNL     1      41.416 -15.213   1.638  1.00  0.00     0.231 C 
HETATM    3  O   UNL     1      42.423 -14.520   1.519  1.00  0.00    -0.272 OA
HETATM    4  H   UNL     1      40.455 -16.828   2.375  1.00  0.00     0.169 HD
ENDROOT
BRANCH   1   5
HETATM    5  C   UNL     1      42.391 -17.153   2.987  1.00  0.00     0.042 A 
HETATM    6  C   UNL     1      42.964 -16.896   4.252  1.00  0.00    -0.006 A 
HETATM    7  C   UNL     1      43.919 -17.819   4.759  1.00  0.00     0.011 A 
HETATM    8  C   UNL     1      44.323 -18.940   4.040  1.00  0.00     0.001 A 
HETATM    9  C   UNL     1      43.785 -19.172   2.789  1.00  0.00     0.002 A 
HETATM   10  C   UNL     1      42.836 -18.289   2.273  1.00  0.00     0.030 A 
BRANCH   6  11
HETATM   11  C   UNL     1      42.705 -15.710   5.146  1.00  0.00     0.273 C 
BRANCH  11  12
HETATM   12  N   UNL     1      43.200 -14.434   4.563  1.00  0.00    -0.072 N 
HETATM   13  H   UNL     1      43.348 -14.525   3.553  1.00  0.00     0.277 HD
HETATM   14  H   UNL     1      44.141 -14.329   4.990  1.00  0.00     0.277 HD
BRANCH  12  15
HETATM   15  C   UNL     1      42.430 -13.218   4.916  1.00  0.00     0.228 C 
HETATM   16  C   UNL     1      42.838 -12.094   3.984  1.00  0.00     0.034 C 
ENDBRANCH  12  15
ENDBRANCH  11  12
ENDBRANCH   6  11
ENDBRANCH   1   5
BRANCH   2  17
HETATM   17  C   UNL     1      40.035 -14.725   1.174  1.00  0.00     0.122 C 
HETATM   18  C   UNL     1      39.747 -13.356   1.751  1.00  0.00    -0.028 A 
HETATM   19  C   UNL     1      40.060 -12.296   0.890  1.00  0.00     0.007 A 
HETATM   20  C   UNL     1      39.281 -13.094   3.038  1.00  0.00     0.009 A 
HETATM   21  C   UNL     1      39.945 -10.977   1.299  1.00  0.00     0.019 A 
HETATM   22  S   UNL     1      40.575 -12.852  -0.706  1.00  0.00    -0.128 SA
HETATM   23  C   UNL     1      39.490 -10.714   2.592  1.00  0.00     0.001 A 
HETATM   24  C   UNL     1      39.153 -11.767   3.452  1.00  0.00     0.001 A 
HETATM   25  C   UNL     1      40.004 -14.547  -0.356  1.00  0.00     0.098 C 
ENDBRANCH   2  17
TORSDOF 5
ENDMDL
MODEL 6
REMARK VINA RESULT:      -6.5      2.486      6.684
REMARK  5 active torsions:
REMARK  status: ('A' for Active; 'I' for Inactive)
REMARK    1  A    between atoms: C_2  and  N_3 
REMARK    2  A    between atoms: N_3  and  C_6 
REMARK    3  A    between atoms: C_6  and  C_7 
REMARK    4  A    between atoms: C_8  and  N_9 
REMARK       I    between atoms: N_9  and  C_10 
REMARK    5  A    between atoms: C_10  and  C_11 
ROOT
HETATM    1  N   UNL     1      42.492 -13.835   6.175  1.00  0.00    -0.326 N 
HETATM    2  C   UNL     1      42.473 -14.534   4.985  1.00  0.00     0.231 C 
HETATM    3  O   UNL     1      42.877 -14.086   3.916  1.00  0.00    -0.272 OA
HETATM    4  H   UNL     1      42.034 -14.318   6.943  1.00  0.00     0.169 HD
ENDROOT
BRANCH   1   5
HETATM    5  C   UNL     1      42.888 -12.506   6.483  1.00  0.00     0.042 A 
HETATM    6  C   UNL     1      42.265 -11.282   6.149  1.00  0.00    -0.006 A 
HETATM    7  C   UNL     1      42.841 -10.078   6.638  1.00  0.00     0.011 A 
HETATM    8  C   UNL     1      44.004 -10.068   7.403  1.00  0.00     0.001 A 
HETATM    9  C   UNL     1      44.629 -11.263   7.701  1.00  0.00     0.002 A 
HETATM   10  C   UNL     1      44.079 -12.461   7.245  1.00  0.00     0.030 A 
BRANCH   6  11
HETATM   11  C   UNL     1      41.046 -11.086   5.285  1.00  0.00     0.273 C 
BRANCH  11  12
HETATM   12  N   UNL     1      41.350 -11.193   3.833  1.00  0.00    -0.072 N 
HETATM   13  H   UNL     1      42.304 -11.538   3.682  1.00  0.00     0.277 HD
HETATM   14  H   UNL     1      41.342 -10.204   3.516  1.00  0.00     0.277 HD
BRANCH  12  15
HETATM   15  C   UNL     1      40.350 -11.916   3.012  1.00  0.00     0.228 C 
HETATM   16  C   UNL     1      39.435 -12.697   3.934  1.00  0.00     0.034 C 
ENDBRANCH  12  15
ENDBRANCH  11  12
ENDBRANCH   6  11
ENDBRANCH   1   5
BRANCH   2  17
HETATM   17  C   UNL     1      41.780 -15.903   5.082  1.00  0.00     0.122 C 
HETATM   18  C   UNL     1      42.528 -16.924   4.252  1.00  0.00    -0.028 A 
HETATM   19  C   UNL     1      43.445 -17.691   4.982  1.00  0.00     0.007 A 
HETATM   20  C   UNL     1      42.420 -17.092   2.874  1.00  0.00     0.009 A 
HETATM   21  C   UNL     1      44.279 -18.605   4.357  1.00  0.00     0.019 A 
HETATM   22  S   UNL     1      43.376 -17.357   6.716  1.00  0.00    -0.128 SA
HETATM   23  C   UNL     1      44.179 -18.766   2.975  1.00  0.00     0.001 A 
HETATM   24  C   UNL     1      43.249 -18.019   2.240  1.00  0.00     0.001 A 
HETATM   25  C   UNL     1      41.816 -16.433   6.528  1.00  0.00     0.098 C 
ENDBRANCH   2  17
TORSDOF 5
ENDMDL
MODEL 7
REMARK VINA RESULT:      -6.3      6.978     10.608
REMARK  5 active torsions:
REMARK  status: ('A' for Active; 'I' for Inactive)
REMARK    1  A    between atoms: C_2  and  N_3 
REMARK    2  A    between atoms: N_3  and  C_6 
REMARK    3  A    between atoms: C_6  and  C_7 
REMARK    4  A    between atoms: C_8  and  N_9 
REMARK       I    between atoms: N_9  and  C_10 
REMARK    5  A    between atoms: C_10  and  C_11 
ROOT
HETATM    1  N   UNL     1      42.721  -8.001  11.280  1.00  0.00    -0.326 N 
HETATM    2  C   UNL     1      43.690  -8.690  10.581  1.00  0.00     0.231 C 
HETATM    3  O   UNL     1      44.378  -9.588  11.059  1.00  0.00    -0.272 OA
HETATM    4  H   UNL     1      42.312  -7.227  10.763  1.00  0.00     0.169 HD
ENDROOT
BRANCH   1   5
HETATM    5  C   UNL     1      42.306  -8.070  12.638  1.00  0.00     0.042 A 
HETATM    6  C   UNL     1      41.389  -8.952  13.253  1.00  0.00    -0.006 A 
HETATM    7  C   UNL     1      41.193  -8.848  14.657  1.00  0.00     0.011 A 
HETATM    8  C   UNL     1      41.849  -7.894  15.429  1.00  0.00     0.001 A 
HETATM    9  C   UNL     1      42.721  -7.012  14.820  1.00  0.00     0.002 A 
HETATM   10  C   UNL     1      42.941  -7.100  13.446  1.00  0.00     0.030 A 
BRANCH   6  11
HETATM   11  C   UNL     1      40.541 -10.001  12.579  1.00  0.00     0.273 C 
BRANCH  11  12
HETATM   12  N   UNL     1      39.377  -9.421  11.858  1.00  0.00    -0.072 N 
HETATM   13  H   UNL     1      39.176  -8.472  12.189  1.00  0.00     0.277 HD
HETATM   14  H   UNL     1      38.585 -10.015  12.171  1.00  0.00     0.277 HD
BRANCH  12  15
HETATM   15  C   UNL     1      39.421  -9.508  10.379  1.00  0.00     0.228 C 
HETATM   16  C   UNL     1      39.022  -8.166   9.799  1.00  0.00     0.034 C 
ENDBRANCH  12  15
ENDBRANCH  11  12
ENDBRANCH   6  11
ENDBRANCH   1   5
BRANCH   2  17
HETATM   17  C   UNL     1      43.930  -8.153   9.161  1.00  0.00     0.122 C 
HETATM   18  C   UNL     1      44.617  -9.205   8.316  1.00  0.00    -0.028 A 
HETATM   19  C   UNL     1      43.742  -9.971   7.536  1.00  0.00     0.007 A 
HETATM   20  C   UNL     1      45.980  -9.489   8.317  1.00  0.00     0.009 A 
HETATM   21  C   UNL     1      44.198 -11.038   6.778  1.00  0.00     0.019 A 
HETATM   22  S   UNL     1      42.071  -9.404   7.639  1.00  0.00    -0.128 SA
HETATM   23  C   UNL     1      45.562 -11.331   6.788  1.00  0.00     0.001 A 
HETATM   24  C   UNL     1      46.448 -10.555   7.547  1.00  0.00     0.001 A 
HETATM   25  C   UNL     1      42.593  -7.859   8.454  1.00  0.00     0.098 C 
ENDBRANCH   2  17
TORSDOF 5
ENDMDL
MODEL 8
REMARK VINA RESULT:      -6.1      3.009      6.781
REMARK  5 active torsions:
REMARK  status: ('A' for Active; 'I' for Inactive)
REMARK    1  A    between atoms: C_2  and  N_3 
REMARK    2  A    between atoms: N_3  and  C_6 
REMARK    3  A    between atoms: C_6  and  C_7 
REMARK    4  A    between atoms: C_8  and  N_9 
REMARK       I    between atoms: N_9  and  C_10 
REMARK    5  A    between atoms: C_10  and  C_11 
ROOT
HETATM    1  N   UNL     1      43.075 -12.941   6.944  1.00  0.00    -0.326 N 
HETATM    2  C   UNL     1      42.562 -13.482   5.783  1.00  0.00     0.231 C 
HETATM    3  O   UNL     1      42.568 -12.911   4.696  1.00  0.00    -0.272 OA
HETATM    4  H   UNL     1      42.904 -13.506   7.772  1.00  0.00     0.169 HD
ENDROOT
BRANCH   1   5
HETATM    5  C   UNL     1      43.652 -11.672   7.222  1.00  0.00     0.042 A 
HETATM    6  C   UNL     1      43.032 -10.407   7.328  1.00  0.00    -0.006 A 
HETATM    7  C   UNL     1      43.838  -9.290   7.679  1.00  0.00     0.011 A 
HETATM    8  C   UNL     1      45.210  -9.400   7.889  1.00  0.00     0.001 A 
HETATM    9  C   UNL     1      45.819 -10.633   7.753  1.00  0.00     0.002 A 
HETATM   10  C   UNL     1      45.050 -11.748   7.422  1.00  0.00     0.030 A 
BRANCH   6  11
HETATM   11  C   UNL     1      41.583 -10.078   7.076  1.00  0.00     0.273 C 
BRANCH  11  12
HETATM   12  N   UNL     1      41.240 -10.072   5.628  1.00  0.00    -0.072 N 
HETATM   13  H   UNL     1      42.021 -10.423   5.064  1.00  0.00     0.277 HD
HETATM   14  H   UNL     1      41.153  -9.060   5.411  1.00  0.00     0.277 HD
BRANCH  12  15
HETATM   15  C   UNL     1      39.949 -10.702   5.265  1.00  0.00     0.228 C 
HETATM   16  C   UNL     1      39.475 -11.549   6.428  1.00  0.00     0.034 C 
ENDBRANCH  12  15
ENDBRANCH  11  12
ENDBRANCH   6  11
ENDBRANCH   1   5
BRANCH   2  17
HETATM   17  C   UNL     1      41.860 -14.833   5.986  1.00  0.00     0.122 C 
HETATM   18  C   UNL     1      42.092 -15.725   4.785  1.00  0.00    -0.028 A 
HETATM   19  C   UNL     1      43.161 -16.618   4.935  1.00  0.00     0.007 A 
HETATM   20  C   UNL     1      41.394 -15.671   3.581  1.00  0.00     0.009 A 
HETATM   21  C   UNL     1      43.567 -17.438   3.895  1.00  0.00     0.019 A 
HETATM   22  S   UNL     1      43.865 -16.562   6.555  1.00  0.00    -0.128 SA
HETATM   23  C   UNL     1      42.875 -17.376   2.685  1.00  0.00     0.001 A 
HETATM   24  C   UNL     1      41.790 -16.503   2.533  1.00  0.00     0.001 A 
HETATM   25  C   UNL     1      42.460 -15.587   7.187  1.00  0.00     0.098 C 
ENDBRANCH   2  17
TORSDOF 5
ENDMDL
MODEL 9
REMARK VINA RESULT:      -6.1      4.139      6.830
REMARK  5 active torsions:
REMARK  status: ('A' for Active; 'I' for Inactive)
REMARK    1  A    between atoms: C_2  and  N_3 
REMARK    2  A    between atoms: N_3  and  C_6 
REMARK    3  A    between atoms: C_6  and  C_7 
REMARK    4  A    between atoms: C_8  and  N_9 
REMARK       I    between atoms: N_9  and  C_10 
REMARK    5  A    between atoms: C_10  and  C_11 
ROOT
HETATM    1  N   UNL     1      40.925 -14.228   0.045  1.00  0.00    -0.326 N 
HETATM    2  C   UNL     1      41.019 -14.972   1.203  1.00  0.00     0.231 C 
HETATM    3  O   UNL     1      40.068 -15.536   1.738  1.00  0.00    -0.272 OA
HETATM    4  H   UNL     1      41.788 -13.753  -0.210  1.00  0.00     0.169 HD
ENDROOT
BRANCH   1   5
HETATM    5  C   UNL     1      39.812 -13.873  -0.764  1.00  0.00     0.042 A 
HETATM    6  C   UNL     1      38.900 -12.803  -0.619  1.00  0.00    -0.006 A 
HETATM    7  C   UNL     1      37.898 -12.634  -1.612  1.00  0.00     0.011 A 
HETATM    8  C   UNL     1      37.771 -13.499  -2.695  1.00  0.00     0.001 A 
HETATM    9  C   UNL     1      38.644 -14.563  -2.817  1.00  0.00     0.002 A 
HETATM   10  C   UNL     1      39.645 -14.746  -1.864  1.00  0.00     0.030 A 
BRANCH   6  11
HETATM   11  C   UNL     1      38.836 -11.807   0.511  1.00  0.00     0.273 C 
BRANCH  11  12
HETATM   12  N   UNL     1      37.448 -11.579   0.995  1.00  0.00    -0.072 N 
HETATM   13  H   UNL     1      37.242 -12.165   1.810  1.00  0.00     0.277 HD
HETATM   14  H   UNL     1      36.864 -11.942   0.216  1.00  0.00     0.277 HD
BRANCH  12  15
HETATM   15  C   UNL     1      37.057 -10.164   1.200  1.00  0.00     0.228 C 
HETATM   16  C   UNL     1      35.801  -9.884   0.398  1.00  0.00     0.034 C 
ENDBRANCH  12  15
ENDBRANCH  11  12
ENDBRANCH   6  11
ENDBRANCH   1   5
BRANCH   2  17
HETATM   17  C   UNL     1      42.413 -14.941   1.849  1.00  0.00     0.122 C 
HETATM   18  C   UNL     1      42.291 -15.055   3.353  1.00  0.00    -0.028 A 
HETATM   19  C   UNL     1      42.442 -16.360   3.841  1.00  0.00     0.007 A 
HETATM   20  C   UNL     1      41.986 -14.015   4.229  1.00  0.00     0.009 A 
HETATM   21  C   UNL     1      42.266 -16.652   5.184  1.00  0.00     0.019 A 
HETATM   22  S   UNL     1      42.882 -17.508   2.572  1.00  0.00    -0.128 SA
HETATM   23  C   UNL     1      41.949 -15.613   6.059  1.00  0.00     0.001 A 
HETATM   24  C   UNL     1      41.818 -14.301   5.584  1.00  0.00     0.001 A 
HETATM   25  C   UNL     1      43.249 -16.157   1.405  1.00  0.00     0.098 C 
ENDBRANCH   2  17
TORSDOF 5
ENDMDL
MODEL 10
REMARK VINA RESULT:      -5.7      4.011      7.135
REMARK  5 active torsions:
REMARK  status: ('A' for Active; 'I' for Inactive)
REMARK    1  A    between atoms: C_2  and  N_3 
REMARK    2  A    between atoms: N_3  and  C_6 
REMARK    3  A    between atoms: C_6  and  C_7 
REMARK    4  A    between atoms: C_8  and  N_9 
REMARK       I    between atoms: N_9  and  C_10 
REMARK    5  A    between atoms: C_10  and  C_11 
ROOT
HETATM    1  N   UNL     1      40.108 -13.697   0.962  1.00  0.00    -0.326 N 
HETATM    2  C   UNL     1      39.604 -13.311   2.186  1.00  0.00     0.231 C 
HETATM    3  O   UNL     1      38.613 -12.599   2.331  1.00  0.00    -0.272 OA
HETATM    4  H   UNL     1      40.986 -14.206   1.020  1.00  0.00     0.169 HD
ENDROOT
BRANCH   1   5
HETATM    5  C   UNL     1      39.714 -13.377  -0.366  1.00  0.00     0.042 A 
HETATM    6  C   UNL     1      39.620 -12.116  -0.997  1.00  0.00    -0.006 A 
HETATM    7  C   UNL     1      39.254 -12.076  -2.370  1.00  0.00     0.011 A 
HETATM    8  C   UNL     1      38.960 -13.227  -3.094  1.00  0.00     0.001 A 
HETATM    9  C   UNL     1      39.022 -14.456  -2.467  1.00  0.00     0.002 A 
HETATM   10  C   UNL     1      39.390 -14.526  -1.124  1.00  0.00     0.030 A 
BRANCH   6  11
HETATM   11  C   UNL     1      39.834 -10.764  -0.367  1.00  0.00     0.273 C 
BRANCH  11  12
HETATM   12  N   UNL     1      40.490  -9.799  -1.290  1.00  0.00    -0.072 N 
HETATM   13  H   UNL     1      40.059  -8.871  -1.219  1.00  0.00     0.277 HD
HETATM   14  H   UNL     1      40.242 -10.166  -2.229  1.00  0.00     0.277 HD
BRANCH  12  15
HETATM   15  C   UNL     1      41.969  -9.743  -1.227  1.00  0.00     0.228 C 
HETATM   16  C   UNL     1      42.424  -8.357  -1.639  1.00  0.00     0.034 C 
ENDBRANCH  12  15
ENDBRANCH  11  12
ENDBRANCH   6  11
ENDBRANCH   1   5
BRANCH   2  17
HETATM   17  C   UNL     1      40.467 -13.750   3.379  1.00  0.00     0.122 C 
HETATM   18  C   UNL     1      41.376 -14.890   2.971  1.00  0.00    -0.028 A 
HETATM   19  C   UNL     1      42.663 -14.487   2.594  1.00  0.00     0.007 A 
HETATM   20  C   UNL     1      41.013 -16.232   2.884  1.00  0.00     0.009 A 
HETATM   21  C   UNL     1      43.588 -15.395   2.104  1.00  0.00     0.019 A 
HETATM   22  S   UNL     1      42.928 -12.757   2.838  1.00  0.00    -0.128 SA
HETATM   23  C   UNL     1      43.222 -16.737   2.006  1.00  0.00     0.001 A 
HETATM   24  C   UNL     1      41.943 -17.153   2.401  1.00  0.00     0.001 A 
HETATM   25  C   UNL     1      41.403 -12.611   3.826  1.00  0.00     0.098 C 
ENDBRANCH   2  17
TORSDOF 5
ENDMDL
