MODEL 1
REMARK VINA RESULT:      -9.5      0.000      0.000
REMARK  3 active torsions:
REMARK  status: ('A' for Active; 'I' for Inactive)
REMARK    1  A    between atoms: C_9  and  C_10 
REMARK       I    between atoms: C_10  and  N_11 
REMARK    2  A    between atoms: N_11  and  C_12 
REMARK    3  A    between atoms: C_14  and  C_15 
ROOT
HETATM    1  C   UNL     1      43.240 -12.848   5.932  1.00  0.00     0.252 C 
HETATM    2  N   UNL     1      43.777 -12.683   7.200  1.00  0.00    -0.325 N 
HETATM    3  O   UNL     1      43.123 -11.975   5.077  1.00  0.00    -0.270 OA
HETATM    4  H   UNL     1      43.640 -13.463   7.836  1.00  0.00     0.169 HD
ENDROOT
BRANCH   2   5
HETATM    5  C   UNL     1      44.414 -11.534   7.713  1.00  0.00     0.035 A 
HETATM    6  C   UNL     1      43.839 -10.700   8.679  1.00  0.00     0.042 A 
HETATM    7  C   UNL     1      44.493  -9.544   9.138  1.00  0.00    -0.021 A 
HETATM    8  C   UNL     1      45.753  -9.238   8.610  1.00  0.00     0.012 A 
HETATM    9  C   UNL     1      46.336 -10.060   7.642  1.00  0.00     0.003 A 
HETATM   10  C   UNL     1      45.667 -11.200   7.193  1.00  0.00     0.029 A 
BRANCH   7  11
HETATM   11  C   UNL     1      43.852  -8.697  10.137  1.00  0.00     0.010 A 
HETATM   12  C   UNL     1      43.725  -8.859  11.540  1.00  0.00     0.152 A 
HETATM   13  N   UNL     1      43.042  -7.868  12.120  1.00  0.00    -0.187 NA
HETATM   14  N   UNL     1      42.725  -7.066  11.093  1.00  0.00    -0.289 N 
HETATM   15  H   UNL     1      42.188  -6.228  11.288  1.00  0.00     0.188 HD
HETATM   16  C   UNL     1      43.183  -7.516   9.888  1.00  0.00     0.123 A 
ENDBRANCH   7  11
ENDBRANCH   2   5
BRANCH   1  17
HETATM   17  C   UNL     1      42.894 -14.309   5.630  1.00  0.00     0.225 C 
HETATM   18  C   UNL     1      43.757 -15.273   6.451  1.00  0.00     0.083 C 
HETATM   19  C   UNL     1      43.714 -16.429   5.531  1.00  0.00    -0.021 A 
HETATM   20  C   UNL     1      43.308 -16.001   4.280  1.00  0.00     0.076 A 
HETATM   21  C   UNL     1      44.049 -17.750   5.761  1.00  0.00     0.017 A 
HETATM   22  C   UNL     1      43.217 -16.868   3.212  1.00  0.00     0.044 A 
HETATM   23  O   UNL     1      43.014 -14.658   4.231  1.00  0.00    -0.336 OA
HETATM   24  C   UNL     1      43.522 -18.225   3.420  1.00  0.00    -0.053 A 
HETATM   25  C   UNL     1      43.953 -18.667   4.700  1.00  0.00    -0.055 A 
HETATM   26  C   UNL     1      43.401 -19.187   2.268  1.00  0.00     0.049 C 
HETATM   27  C   UNL     1      44.280 -20.113   4.963  1.00  0.00     0.049 C 
ENDBRANCH   1  17
TORSDOF 3
ENDMDL
MODEL 2
REMARK VINA RESULT:      -8.7      6.503     10.395
REMARK  3 active torsions:
REMARK  status: ('A' for Active; 'I' for Inactive)
REMARK    1  A    between atoms: C_9  and  C_10 
REMARK       I    between atoms: C_10  and  N_11 
REMARK    2  A    between atoms: N_11  and  C_12 
REMARK    3  A    between atoms: C_14  and  C_15 
ROOT
HETATM    1  C   UNL     1      40.641 -15.109   0.762  1.00  0.00     0.252 C 
HETATM    2  N   UNL     1      41.945 -14.963   1.212  1.00  0.00    -0.325 N 
HETATM    3  O   UNL     1      39.832 -15.946   1.150  1.00  0.00    -0.270 OA
HETATM    4  H   UNL     1      42.527 -14.335   0.665  1.00  0.00     0.169 HD
ENDROOT
BRANCH   2   5
HETATM    5  C   UNL     1      42.557 -15.641   2.286  1.00  0.00     0.035 A 
HETATM    6  C   UNL     1      42.849 -17.010   2.267  1.00  0.00     0.042 A 
HETATM    7  C   UNL     1      43.427 -17.656   3.373  1.00  0.00    -0.021 A 
HETATM    8  C   UNL     1      43.719 -16.894   4.511  1.00  0.00     0.012 A 
HETATM    9  C   UNL     1      43.429 -15.528   4.544  1.00  0.00     0.003 A 
HETATM   10  C   UNL     1      42.847 -14.906   3.438  1.00  0.00     0.029 A 
BRANCH   7  11
HETATM   11  C   UNL     1      43.704 -19.087   3.314  1.00  0.00     0.010 A 
HETATM   12  C   UNL     1      43.674 -19.989   2.221  1.00  0.00     0.152 A 
HETATM   13  N   UNL     1      43.971 -21.243   2.571  1.00  0.00    -0.187 NA
HETATM   14  N   UNL     1      44.191 -21.154   3.891  1.00  0.00    -0.289 N 
HETATM   15  H   UNL     1      44.435 -22.001   4.393  1.00  0.00     0.188 HD
HETATM   16  C   UNL     1      44.043 -19.890   4.384  1.00  0.00     0.123 A 
ENDBRANCH   7  11
ENDBRANCH   2   5
BRANCH   1  17
HETATM   17  C   UNL     1      40.238 -14.011  -0.227  1.00  0.00     0.225 C 
HETATM   18  C   UNL     1      40.051 -12.663   0.476  1.00  0.00     0.083 C 
HETATM   19  C   UNL     1      39.086 -12.064  -0.471  1.00  0.00    -0.021 A 
HETATM   20  C   UNL     1      38.528 -13.065  -1.246  1.00  0.00     0.076 A 
HETATM   21  C   UNL     1      38.693 -10.747  -0.611  1.00  0.00     0.017 A 
HETATM   22  C   UNL     1      37.562 -12.795  -2.191  1.00  0.00     0.044 A 
HETATM   23  O   UNL     1      39.036 -14.314  -0.973  1.00  0.00    -0.336 OA
HETATM   24  C   UNL     1      37.160 -11.460  -2.380  1.00  0.00    -0.053 A 
HETATM   25  C   UNL     1      37.721 -10.431  -1.576  1.00  0.00    -0.055 A 
HETATM   26  C   UNL     1      36.125 -11.149  -3.427  1.00  0.00     0.049 C 
HETATM   27  C   UNL     1      37.323  -8.990  -1.756  1.00  0.00     0.049 C 
ENDBRANCH   1  17
TORSDOF 3
ENDMDL
MODEL 3
REMARK VINA RESULT:      -8.6      2.482      9.369
REMARK  3 active torsions:
REMARK  status: ('A' for Active; 'I' for Inactive)
REMARK    1  A    between atoms: C_9  and  C_10 
REMARK       I    between atoms: C_10  and  N_11 
REMARK    2  A    between atoms: N_11  and  C_12 
REMARK    3  A    between atoms: C_14  and  C_15 
ROOT
HETATM    1  C   UNL     1      45.013 -11.083   7.526  1.00  0.00     0.252 C 
HETATM    2  N   UNL     1      43.822 -11.790   7.449  1.00  0.00    -0.325 N 
HETATM    3  O   UNL     1      45.992 -11.236   6.801  1.00  0.00    -0.270 OA
HETATM    4  H   UNL     1      43.185 -11.657   8.230  1.00  0.00     0.169 HD
ENDROOT
BRANCH   2   5
HETATM    5  C   UNL     1      43.443 -12.717   6.456  1.00  0.00     0.035 A 
HETATM    6  C   UNL     1      43.600 -14.101   6.594  1.00  0.00     0.042 A 
HETATM    7  C   UNL     1      43.242 -14.989   5.565  1.00  0.00    -0.021 A 
HETATM    8  C   UNL     1      42.711 -14.459   4.383  1.00  0.00     0.012 A 
HETATM    9  C   UNL     1      42.554 -13.079   4.232  1.00  0.00     0.003 A 
HETATM   10  C   UNL     1      42.923 -12.213   5.262  1.00  0.00     0.029 A 
BRANCH   7  11
HETATM   11  C   UNL     1      43.432 -16.424   5.747  1.00  0.00     0.010 A 
HETATM   12  C   UNL     1      43.955 -17.405   4.866  1.00  0.00     0.152 A 
HETATM   13  N   UNL     1      43.950 -18.633   5.390  1.00  0.00    -0.187 NA
HETATM   14  N   UNL     1      43.420 -18.449   6.609  1.00  0.00    -0.289 N 
HETATM   15  H   UNL     1      43.308 -19.259   7.209  1.00  0.00     0.188 HD
HETATM   16  C   UNL     1      43.093 -17.150   6.870  1.00  0.00     0.123 A 
ENDBRANCH   7  11
ENDBRANCH   2   5
BRANCH   1  17
HETATM   17  C   UNL     1      44.960  -9.961   8.566  1.00  0.00     0.225 C 
HETATM   18  C   UNL     1      44.679 -10.508   9.969  1.00  0.00     0.083 C 
HETATM   19  C   UNL     1      44.043  -9.303  10.542  1.00  0.00    -0.021 A 
HETATM   20  C   UNL     1      43.651  -8.463   9.515  1.00  0.00     0.076 A 
HETATM   21  C   UNL     1      43.788  -8.985  11.862  1.00  0.00     0.017 A 
HETATM   22  C   UNL     1      42.992  -7.278   9.759  1.00  0.00     0.044 A 
HETATM   23  O   UNL     1      43.985  -8.935   8.266  1.00  0.00    -0.336 OA
HETATM   24  C   UNL     1      42.743  -6.910  11.095  1.00  0.00    -0.053 A 
HETATM   25  C   UNL     1      43.132  -7.776  12.152  1.00  0.00    -0.055 A 
HETATM   26  C   UNL     1      42.048  -5.606  11.377  1.00  0.00     0.049 C 
HETATM   27  C   UNL     1      42.890  -7.413  13.594  1.00  0.00     0.049 C 
ENDBRANCH   1  17
TORSDOF 3
ENDMDL
MODEL 4
REMARK VINA RESULT:      -8.5      5.999      9.969
REMARK  3 active torsions:
REMARK  status: ('A' for Active; 'I' for Inactive)
REMARK    1  A    between atoms: C_9  and  C_10 
REMARK       I    between atoms: C_10  and  N_11 
REMARK    2  A    between atoms: N_11  and  C_12 
REMARK    3  A    between atoms: C_14  and  C_15 
ROOT
HETATM    1  C   UNL     1      40.422 -14.935   1.762  1.00  0.00     0.252 C 
HETATM    2  N   UNL     1      41.780 -14.948   2.041  1.00  0.00    -0.325 N 
HETATM    3  O   UNL     1      39.578 -15.685   2.245  1.00  0.00    -0.270 OA
HETATM    4  H   UNL     1      42.356 -14.378   1.428  1.00  0.00     0.169 HD
ENDROOT
BRANCH   2   5
HETATM    5  C   UNL     1      42.442 -15.715   3.022  1.00  0.00     0.035 A 
HETATM    6  C   UNL     1      42.770 -17.065   2.852  1.00  0.00     0.042 A 
HETATM    7  C   UNL     1      43.399 -17.804   3.869  1.00  0.00    -0.021 A 
HETATM    8  C   UNL     1      43.702 -17.156   5.073  1.00  0.00     0.012 A 
HETATM    9  C   UNL     1      43.376 -15.810   5.256  1.00  0.00     0.003 A 
HETATM   10  C   UNL     1      42.744 -15.095   4.236  1.00  0.00     0.029 A 
BRANCH   7  11
HETATM   11  C   UNL     1      43.713 -19.212   3.654  1.00  0.00     0.010 A 
HETATM   12  C   UNL     1      43.620 -20.011   2.486  1.00  0.00     0.152 A 
HETATM   13  N   UNL     1      43.983 -21.280   2.692  1.00  0.00    -0.187 NA
HETATM   14  N   UNL     1      44.308 -21.304   3.992  1.00  0.00    -0.289 N 
HETATM   15  H   UNL     1      44.618 -22.183   4.392  1.00  0.00     0.188 HD
HETATM   16  C   UNL     1      44.163 -20.096   4.613  1.00  0.00     0.123 A 
ENDBRANCH   7  11
ENDBRANCH   2   5
BRANCH   1  17
HETATM   17  C   UNL     1      40.024 -13.777   0.842  1.00  0.00     0.225 C 
HETATM   18  C   UNL     1      40.422 -14.053  -0.612  1.00  0.00     0.083 C 
HETATM   19  C   UNL     1      40.560 -12.651  -1.061  1.00  0.00    -0.021 A 
HETATM   20  C   UNL     1      40.670 -11.827   0.044  1.00  0.00     0.076 A 
HETATM   21  C   UNL     1      40.628 -12.141  -2.343  1.00  0.00     0.017 A 
HETATM   22  C   UNL     1      40.851 -10.466  -0.081  1.00  0.00     0.044 A 
HETATM   23  O   UNL     1      40.581 -12.502   1.239  1.00  0.00    -0.336 OA
HETATM   24  C   UNL     1      40.894  -9.911  -1.373  1.00  0.00    -0.053 A 
HETATM   25  C   UNL     1      40.795 -10.755  -2.512  1.00  0.00    -0.055 A 
HETATM   26  C   UNL     1      41.064  -8.422  -1.524  1.00  0.00     0.049 C 
HETATM   27  C   UNL     1      40.829 -10.196  -3.910  1.00  0.00     0.049 C 
ENDBRANCH   1  17
TORSDOF 3
ENDMDL
MODEL 5
REMARK VINA RESULT:      -8.5      1.932      2.648
REMARK  3 active torsions:
REMARK  status: ('A' for Active; 'I' for Inactive)
REMARK    1  A    between atoms: C_9  and  C_10 
REMARK       I    between atoms: C_10  and  N_11 
REMARK    2  A    between atoms: N_11  and  C_12 
REMARK    3  A    between atoms: C_14  and  C_15 
ROOT
HETATM    1  C   UNL     1      42.531 -13.757   4.185  1.00  0.00     0.252 C 
HETATM    2  N   UNL     1      41.913 -13.202   5.295  1.00  0.00    -0.325 N 
HETATM    3  O   UNL     1      43.226 -13.158   3.369  1.00  0.00    -0.270 OA
HETATM    4  H   UNL     1      41.240 -13.801   5.764  1.00  0.00     0.169 HD
ENDROOT
BRANCH   2   5
HETATM    5  C   UNL     1      42.063 -11.889   5.787  1.00  0.00     0.035 A 
HETATM    6  C   UNL     1      42.967 -11.543   6.798  1.00  0.00     0.042 A 
HETATM    7  C   UNL     1      43.060 -10.228   7.285  1.00  0.00    -0.021 A 
HETATM    8  C   UNL     1      42.225  -9.251   6.728  1.00  0.00     0.012 A 
HETATM    9  C   UNL     1      41.316  -9.585   5.722  1.00  0.00     0.003 A 
HETATM   10  C   UNL     1      41.233 -10.899   5.257  1.00  0.00     0.029 A 
BRANCH   7  11
HETATM   11  C   UNL     1      44.008  -9.913   8.347  1.00  0.00     0.010 A 
HETATM   12  C   UNL     1      43.858  -9.942   9.757  1.00  0.00     0.152 A 
HETATM   13  N   UNL     1      44.960  -9.560  10.408  1.00  0.00    -0.187 NA
HETATM   14  N   UNL     1      45.824  -9.282   9.420  1.00  0.00    -0.289 N 
HETATM   15  H   UNL     1      46.752  -8.961   9.672  1.00  0.00     0.188 HD
HETATM   16  C   UNL     1      45.304  -9.475   8.172  1.00  0.00     0.123 A 
ENDBRANCH   7  11
ENDBRANCH   2   5
BRANCH   1  17
HETATM   17  C   UNL     1      42.362 -15.278   4.121  1.00  0.00     0.225 C 
HETATM   18  C   UNL     1      43.166 -15.980   5.220  1.00  0.00     0.083 C 
HETATM   19  C   UNL     1      43.365 -17.277   4.540  1.00  0.00    -0.021 A 
HETATM   20  C   UNL     1      43.124 -17.123   3.186  1.00  0.00     0.076 A 
HETATM   21  C   UNL     1      43.771 -18.490   5.060  1.00  0.00     0.017 A 
HETATM   22  C   UNL     1      43.275 -18.167   2.300  1.00  0.00     0.044 A 
HETATM   23  O   UNL     1      42.729 -15.851   2.843  1.00  0.00    -0.336 OA
HETATM   24  C   UNL     1      43.659 -19.425   2.802  1.00  0.00    -0.053 A 
HETATM   25  C   UNL     1      43.921 -19.584   4.190  1.00  0.00    -0.055 A 
HETATM   26  C   UNL     1      43.802 -20.581   1.848  1.00  0.00     0.049 C 
HETATM   27  C   UNL     1      44.325 -20.916   4.765  1.00  0.00     0.049 C 
ENDBRANCH   1  17
TORSDOF 3
ENDMDL
MODEL 6
REMARK VINA RESULT:      -8.4      2.785      9.148
REMARK  3 active torsions:
REMARK  status: ('A' for Active; 'I' for Inactive)
REMARK    1  A    between atoms: C_9  and  C_10 
REMARK       I    between atoms: C_10  and  N_11 
REMARK    2  A    between atoms: N_11  and  C_12 
REMARK    3  A    between atoms: C_14  and  C_15 
ROOT
HETATM    1  C   UNL     1      44.416 -11.493   7.093  1.00  0.00     0.252 C 
HETATM    2  N   UNL     1      43.524 -12.527   7.333  1.00  0.00    -0.325 N 
HETATM    3  O   UNL     1      45.262 -11.460   6.203  1.00  0.00    -0.270 OA
HETATM    4  H   UNL     1      43.013 -12.467   8.209  1.00  0.00     0.169 HD
ENDROOT
BRANCH   2   5
HETATM    5  C   UNL     1      43.313 -13.673   6.538  1.00  0.00     0.035 A 
HETATM    6  C   UNL     1      42.319 -13.757   5.556  1.00  0.00     0.042 A 
HETATM    7  C   UNL     1      42.118 -14.930   4.810  1.00  0.00    -0.021 A 
HETATM    8  C   UNL     1      42.947 -16.031   5.063  1.00  0.00     0.012 A 
HETATM    9  C   UNL     1      43.939 -15.960   6.043  1.00  0.00     0.003 A 
HETATM   10  C   UNL     1      44.118 -14.788   6.780  1.00  0.00     0.029 A 
BRANCH   7  11
HETATM   11  C   UNL     1      41.063 -14.978   3.804  1.00  0.00     0.010 A 
HETATM   12  C   UNL     1      40.741 -15.978   2.851  1.00  0.00     0.152 A 
HETATM   13  N   UNL     1      39.704 -15.646   2.077  1.00  0.00    -0.187 NA
HETATM   14  N   UNL     1      39.357 -14.431   2.526  1.00  0.00    -0.289 N 
HETATM   15  H   UNL     1      38.578 -13.961   2.079  1.00  0.00     0.188 HD
HETATM   16  C   UNL     1      40.137 -13.987   3.554  1.00  0.00     0.123 A 
ENDBRANCH   7  11
ENDBRANCH   2   5
BRANCH   1  17
HETATM   17  C   UNL     1      44.170 -10.285   8.002  1.00  0.00     0.225 C 
HETATM   18  C   UNL     1      44.847 -10.462   9.366  1.00  0.00     0.083 C 
HETATM   19  C   UNL     1      43.943  -9.603  10.161  1.00  0.00    -0.021 A 
HETATM   20  C   UNL     1      42.770  -9.400   9.457  1.00  0.00     0.076 A 
HETATM   21  C   UNL     1      44.118  -9.077  11.427  1.00  0.00     0.017 A 
HETATM   22  C   UNL     1      41.728  -8.666   9.981  1.00  0.00     0.044 A 
HETATM   23  O   UNL     1      42.769  -9.995   8.216  1.00  0.00    -0.336 OA
HETATM   24  C   UNL     1      41.886  -8.091  11.255  1.00  0.00    -0.053 A 
HETATM   25  C   UNL     1      43.084  -8.309  11.988  1.00  0.00    -0.055 A 
HETATM   26  C   UNL     1      40.766  -7.264  11.828  1.00  0.00     0.049 C 
HETATM   27  C   UNL     1      43.291  -7.702  13.351  1.00  0.00     0.049 C 
ENDBRANCH   1  17
TORSDOF 3
ENDMDL
MODEL 7
REMARK VINA RESULT:      -8.1      6.112      8.497
REMARK  3 active torsions:
REMARK  status: ('A' for Active; 'I' for Inactive)
REMARK    1  A    between atoms: C_9  and  C_10 
REMARK       I    between atoms: C_10  and  N_11 
REMARK    2  A    between atoms: N_11  and  C_12 
REMARK    3  A    between atoms: C_14  and  C_15 
ROOT
HETATM    1  C   UNL     1      41.795 -13.830   2.900  1.00  0.00     0.252 C 
HETATM    2  N   UNL     1      41.756 -13.220   1.655  1.00  0.00    -0.325 N 
HETATM    3  O   UNL     1      41.101 -13.538   3.870  1.00  0.00    -0.270 OA
HETATM    4  H   UNL     1      42.513 -13.468   1.025  1.00  0.00     0.169 HD
ENDROOT
BRANCH   2   5
HETATM    5  C   UNL     1      40.834 -12.250   1.209  1.00  0.00     0.035 A 
HETATM    6  C   UNL     1      39.923 -12.473   0.171  1.00  0.00     0.042 A 
HETATM    7  C   UNL     1      39.044 -11.467  -0.266  1.00  0.00    -0.021 A 
HETATM    8  C   UNL     1      39.091 -10.219   0.367  1.00  0.00     0.012 A 
HETATM    9  C   UNL     1      40.000  -9.984   1.402  1.00  0.00     0.003 A 
HETATM   10  C   UNL     1      40.870 -10.993   1.817  1.00  0.00     0.029 A 
BRANCH   7  11
HETATM   11  C   UNL     1      38.117 -11.739  -1.359  1.00  0.00     0.010 A 
HETATM   12  C   UNL     1      37.141 -10.912  -1.969  1.00  0.00     0.152 A 
HETATM   13  N   UNL     1      36.463 -11.532  -2.939  1.00  0.00    -0.187 NA
HETATM   14  N   UNL     1      36.998 -12.761  -2.956  1.00  0.00    -0.289 N 
HETATM   15  H   UNL     1      36.635 -13.432  -3.623  1.00  0.00     0.188 HD
HETATM   16  C   UNL     1      37.988 -12.937  -2.032  1.00  0.00     0.123 A 
ENDBRANCH   7  11
ENDBRANCH   2   5
BRANCH   1  17
HETATM   17  C   UNL     1      42.743 -15.033   2.932  1.00  0.00     0.225 C 
HETATM   18  C   UNL     1      42.392 -16.053   1.844  1.00  0.00     0.083 C 
HETATM   19  C   UNL     1      42.929 -17.260   2.507  1.00  0.00    -0.021 A 
HETATM   20  C   UNL     1      43.099 -17.002   3.855  1.00  0.00     0.076 A 
HETATM   21  C   UNL     1      43.205 -18.506   1.977  1.00  0.00     0.017 A 
HETATM   22  C   UNL     1      43.552 -17.969   4.727  1.00  0.00     0.044 A 
HETATM   23  O   UNL     1      42.776 -15.713   4.209  1.00  0.00    -0.336 OA
HETATM   24  C   UNL     1      43.871 -19.240   4.214  1.00  0.00    -0.053 A 
HETATM   25  C   UNL     1      43.684 -19.514   2.832  1.00  0.00    -0.055 A 
HETATM   26  C   UNL     1      44.391 -20.298   5.150  1.00  0.00     0.049 C 
HETATM   27  C   UNL     1      44.023 -20.859   2.245  1.00  0.00     0.049 C 
ENDBRANCH   1  17
TORSDOF 3
ENDMDL
MODEL 8
REMARK VINA RESULT:      -8.1      6.785      9.689
REMARK  3 active torsions:
REMARK  status: ('A' for Active; 'I' for Inactive)
REMARK    1  A    between atoms: C_9  and  C_10 
REMARK       I    between atoms: C_10  and  N_11 
REMARK    2  A    between atoms: N_11  and  C_12 
REMARK    3  A    between atoms: C_14  and  C_15 
ROOT
HETATM    1  C   UNL     1      40.482 -13.759   1.228  1.00  0.00     0.252 C 
HETATM    2  N   UNL     1      40.541 -14.125  -0.109  1.00  0.00    -0.325 N 
HETATM    3  O   UNL     1      39.608 -13.075   1.752  1.00  0.00    -0.270 OA
HETATM    4  H   UNL     1      41.416 -14.545  -0.407  1.00  0.00     0.169 HD
ENDROOT
BRANCH   2   5
HETATM    5  C   UNL     1      39.557 -13.909  -1.096  1.00  0.00     0.035 A 
HETATM    6  C   UNL     1      38.790 -12.741  -1.177  1.00  0.00     0.042 A 
HETATM    7  C   UNL     1      37.794 -12.580  -2.155  1.00  0.00    -0.021 A 
HETATM    8  C   UNL     1      37.581 -13.621  -3.067  1.00  0.00     0.012 A 
HETATM    9  C   UNL     1      38.337 -14.794  -2.993  1.00  0.00     0.003 A 
HETATM   10  C   UNL     1      39.317 -14.938  -2.009  1.00  0.00     0.029 A 
BRANCH   7  11
HETATM   11  C   UNL     1      37.011 -11.351  -2.197  1.00  0.00     0.010 A 
HETATM   12  C   UNL     1      36.147 -10.839  -3.199  1.00  0.00     0.152 A 
HETATM   13  N   UNL     1      35.619  -9.655  -2.878  1.00  0.00    -0.187 NA
HETATM   14  N   UNL     1      36.142  -9.398  -1.670  1.00  0.00    -0.289 N 
HETATM   15  H   UNL     1      35.885  -8.530  -1.213  1.00  0.00     0.188 HD
HETATM   16  C   UNL     1      36.980 -10.377  -1.220  1.00  0.00     0.123 A 
ENDBRANCH   7  11
ENDBRANCH   2   5
BRANCH   1  17
HETATM   17  C   UNL     1      41.592 -14.408   2.061  1.00  0.00     0.225 C 
HETATM   18  C   UNL     1      42.077 -15.717   1.429  1.00  0.00     0.083 C 
HETATM   19  C   UNL     1      42.550 -16.382   2.661  1.00  0.00    -0.021 A 
HETATM   20  C   UNL     1      41.998 -15.750   3.761  1.00  0.00     0.076 A 
HETATM   21  C   UNL     1      43.366 -17.488   2.807  1.00  0.00     0.017 A 
HETATM   22  C   UNL     1      42.238 -16.189   5.045  1.00  0.00     0.044 A 
HETATM   23  O   UNL     1      41.213 -14.669   3.432  1.00  0.00    -0.336 OA
HETATM   24  C   UNL     1      43.089 -17.294   5.230  1.00  0.00    -0.053 A 
HETATM   25  C   UNL     1      43.647 -17.955   4.102  1.00  0.00    -0.055 A 
HETATM   26  C   UNL     1      43.380 -17.768   6.629  1.00  0.00     0.049 C 
HETATM   27  C   UNL     1      44.569 -19.135   4.261  1.00  0.00     0.049 C 
ENDBRANCH   1  17
TORSDOF 3
ENDMDL
MODEL 9
REMARK VINA RESULT:      -8.0      6.668      9.044
REMARK  3 active torsions:
REMARK  status: ('A' for Active; 'I' for Inactive)
REMARK    1  A    between atoms: C_9  and  C_10 
REMARK       I    between atoms: C_10  and  N_11 
REMARK    2  A    between atoms: N_11  and  C_12 
REMARK    3  A    between atoms: C_14  and  C_15 
ROOT
HETATM    1  C   UNL     1      40.006 -14.211   1.535  1.00  0.00     0.252 C 
HETATM    2  N   UNL     1      40.457 -14.331   0.229  1.00  0.00    -0.325 N 
HETATM    3  O   UNL     1      39.279 -13.322   1.970  1.00  0.00    -0.270 OA
HETATM    4  H   UNL     1      41.185 -15.025   0.082  1.00  0.00     0.169 HD
ENDROOT
BRANCH   2   5
HETATM    5  C   UNL     1      40.073 -13.552  -0.881  1.00  0.00     0.035 A 
HETATM    6  C   UNL     1      40.646 -12.312  -1.188  1.00  0.00     0.042 A 
HETATM    7  C   UNL     1      40.209 -11.550  -2.285  1.00  0.00    -0.021 A 
HETATM    8  C   UNL     1      39.177 -12.061  -3.083  1.00  0.00     0.012 A 
HETATM    9  C   UNL     1      38.594 -13.294  -2.783  1.00  0.00     0.003 A 
HETATM   10  C   UNL     1      39.037 -14.034  -1.685  1.00  0.00     0.029 A 
BRANCH   7  11
HETATM   11  C   UNL     1      40.827 -10.258  -2.562  1.00  0.00     0.010 A 
HETATM   12  C   UNL     1      40.807  -9.458  -3.733  1.00  0.00     0.152 A 
HETATM   13  N   UNL     1      41.519  -8.334  -3.609  1.00  0.00    -0.187 NA
HETATM   14  N   UNL     1      42.002  -8.408  -2.360  1.00  0.00    -0.289 N 
HETATM   15  H   UNL     1      42.591  -7.652  -2.029  1.00  0.00     0.188 HD
HETATM   16  C   UNL     1      41.620  -9.537  -1.694  1.00  0.00     0.123 A 
ENDBRANCH   7  11
ENDBRANCH   2   5
BRANCH   1  17
HETATM   17  C   UNL     1      40.415 -15.402   2.407  1.00  0.00     0.225 C 
HETATM   18  C   UNL     1      40.691 -14.972   3.851  1.00  0.00     0.083 C 
HETATM   19  C   UNL     1      41.640 -16.047   4.212  1.00  0.00    -0.021 A 
HETATM   20  C   UNL     1      42.120 -16.638   3.057  1.00  0.00     0.076 A 
HETATM   21  C   UNL     1      42.085 -16.446   5.458  1.00  0.00     0.017 A 
HETATM   22  C   UNL     1      43.056 -17.649   3.096  1.00  0.00     0.044 A 
HETATM   23  O   UNL     1      41.569 -16.118   1.909  1.00  0.00    -0.336 OA
HETATM   24  C   UNL     1      43.508 -18.099   4.350  1.00  0.00    -0.053 A 
HETATM   25  C   UNL     1      43.028 -17.485   5.538  1.00  0.00    -0.055 A 
HETATM   26  C   UNL     1      44.511 -19.220   4.407  1.00  0.00     0.049 C 
HETATM   27  C   UNL     1      43.482 -17.946   6.898  1.00  0.00     0.049 C 
ENDBRANCH   1  17
TORSDOF 3
ENDMDL
MODEL 10
REMARK VINA RESULT:      -7.9     17.514     19.459
REMARK  3 active torsions:
REMARK  status: ('A' for Active; 'I' for Inactive)
REMARK    1  A    between atoms: C_9  and  C_10 
REMARK       I    between atoms: C_10  and  N_11 
REMARK    2  A    between atoms: N_11  and  C_12 
REMARK    3  A    between atoms: C_14  and  C_15 
ROOT
HETATM    1  C   UNL     1      47.476 -28.972   2.789  1.00  0.00     0.252 C 
HETATM    2  N   UNL     1      46.491 -29.878   2.426  1.00  0.00    -0.325 N 
HETATM    3  O   UNL     1      47.632 -27.847   2.323  1.00  0.00    -0.270 OA
HETATM    4  H   UNL     1      46.611 -30.820   2.786  1.00  0.00     0.169 HD
ENDROOT
BRANCH   2   5
HETATM    5  C   UNL     1      45.400 -29.649   1.562  1.00  0.00     0.035 A 
HETATM    6  C   UNL     1      45.539 -29.428   0.187  1.00  0.00     0.042 A 
HETATM    7  C   UNL     1      44.428 -29.169  -0.634  1.00  0.00    -0.021 A 
HETATM    8  C   UNL     1      43.157 -29.140  -0.046  1.00  0.00     0.012 A 
HETATM    9  C   UNL     1      43.006 -29.354   1.327  1.00  0.00     0.003 A 
HETATM   10  C   UNL     1      44.123 -29.603   2.127  1.00  0.00     0.029 A 
BRANCH   7  11
HETATM   11  C   UNL     1      44.619 -28.933  -2.060  1.00  0.00     0.010 A 
HETATM   12  C   UNL     1      44.075 -29.600  -3.187  1.00  0.00     0.152 A 
HETATM   13  N   UNL     1      44.510 -29.103  -4.348  1.00  0.00    -0.187 NA
HETATM   14  N   UNL     1      45.337 -28.116  -3.974  1.00  0.00    -0.289 N 
HETATM   15  H   UNL     1      45.803 -27.581  -4.699  1.00  0.00     0.188 HD
HETATM   16  C   UNL     1      45.439 -27.975  -2.620  1.00  0.00     0.123 A 
ENDBRANCH   7  11
ENDBRANCH   2   5
BRANCH   1  17
HETATM   17  C   UNL     1      48.326 -29.473   3.961  1.00  0.00     0.225 C 
HETATM   18  C   UNL     1      49.817 -29.495   3.605  1.00  0.00     0.083 C 
HETATM   19  C   UNL     1      50.239 -30.565   4.534  1.00  0.00    -0.021 A 
HETATM   20  C   UNL     1      49.126 -31.275   4.947  1.00  0.00     0.076 A 
HETATM   21  C   UNL     1      51.508 -30.919   4.950  1.00  0.00     0.017 A 
HETATM   22  C   UNL     1      49.230 -32.360   5.790  1.00  0.00     0.044 A 
HETATM   23  O   UNL     1      47.946 -30.785   4.437  1.00  0.00    -0.336 OA
HETATM   24  C   UNL     1      50.505 -32.728   6.257  1.00  0.00    -0.053 A 
HETATM   25  C   UNL     1      51.653 -32.010   5.823  1.00  0.00    -0.055 A 
HETATM   26  C   UNL     1      50.631 -33.895   7.199  1.00  0.00     0.049 C 
HETATM   27  C   UNL     1      53.033 -32.370   6.308  1.00  0.00     0.049 C 
ENDBRANCH   1  17
TORSDOF 3
ENDMDL
