MODEL 1
REMARK VINA RESULT:      -9.9      0.000      0.000
REMARK  7 active torsions:
REMARK  status: ('A' for Active; 'I' for Inactive)
REMARK    1  A    between atoms: C_5  and  C_6 
REMARK    2  A    between atoms: C_10  and  C_11 
REMARK       I    between atoms: C_11  and  N_12 
REMARK    3  A    between atoms: N_12  and  N_13 
REMARK       I    between atoms: N_13  and  C_14 
REMARK       I    between atoms: C_14  and  N_15 
REMARK    4  A    between atoms: N_15  and  C_16 
REMARK    5  A    between atoms: C_16  and  C_17 
REMARK    6  A    between atoms: C_17  and  C_18 
REMARK    7  A    between atoms: C_21  and  O_22 
ROOT
HETATM    1  C   UNL     1      44.372 -11.395   7.868  1.00  0.00     0.288 C 
HETATM    2  N   UNL     1      43.438 -12.368   7.588  1.00  0.00    -0.261 N 
HETATM    3  O   UNL     1      45.460 -11.353   7.295  1.00  0.00    -0.264 OA
HETATM    4  H   UNL     1      42.499 -12.388   7.975  1.00  0.00     0.190 HD
ENDROOT
BRANCH   2   5
HETATM    5  N   UNL     1      43.773 -13.408   6.706  1.00  0.00    -0.249 N 
HETATM    6  C   UNL     1      42.805 -13.794   5.803  1.00  0.00     0.335 C 
HETATM    7  N   UNL     1      43.245 -14.798   4.983  1.00  0.00    -0.337 N 
HETATM    8  O   UNL     1      41.678 -13.310   5.777  1.00  0.00    -0.246 OA
HETATM    9  H   UNL     1      44.051 -15.317   5.300  1.00  0.00     0.164 HD
HETATM   10  H   UNL     1      44.740 -13.403   6.389  1.00  0.00     0.192 HD
BRANCH   7  11
HETATM   11  C   UNL     1      42.396 -15.403   3.961  1.00  0.00     0.086 C 
HETATM   12  C   UNL     1      41.403 -16.387   4.588  1.00  0.00     0.032 C 
BRANCH  11  13
HETATM   13  C   UNL     1      43.238 -16.136   2.893  1.00  0.00     0.063 C 
BRANCH  13  14
HETATM   14  C   UNL     1      43.455 -17.619   3.106  1.00  0.00    -0.056 A 
HETATM   15  C   UNL     1      42.998 -18.529   2.137  1.00  0.00     0.010 A 
HETATM   16  C   UNL     1      43.200 -19.902   2.290  1.00  0.00     0.037 A 
HETATM   17  C   UNL     1      43.873 -20.371   3.412  1.00  0.00     0.065 A 
HETATM   18  C   UNL     1      44.348 -19.489   4.374  1.00  0.00     0.037 A 
HETATM   19  C   UNL     1      44.148 -18.116   4.218  1.00  0.00     0.010 A 
BRANCH  17  20
HETATM   20  O   UNL     1      44.093 -21.702   3.604  1.00  0.00    -0.361 OA
HETATM   21  H   UNL     1      43.785 -21.943   4.493  1.00  0.00     0.217 HD
ENDBRANCH  17  20
ENDBRANCH  13  14
ENDBRANCH  11  13
ENDBRANCH   7  11
ENDBRANCH   2   5
BRANCH   1  22
HETATM   22  C   UNL     1      43.998 -10.459   8.891  1.00  0.00     0.121 A 
HETATM   23  N   UNL     1      44.253  -9.122   8.771  1.00  0.00    -0.272 N 
HETATM   24  N   UNL     1      43.931  -8.401   9.854  1.00  0.00    -0.174 NA
HETATM   25  H   UNL     1      44.680  -8.652   7.978  1.00  0.00     0.189 HD
HETATM   26  C   UNL     1      43.415  -9.293  10.714  1.00  0.00     0.089 A 
HETATM   27  C   UNL     1      43.413 -10.593  10.134  1.00  0.00     0.071 A 
BRANCH  26  28
HETATM   28  C   UNL     1      42.987  -8.912  12.062  1.00  0.00    -0.006 A 
HETATM   29  C   UNL     1      43.544  -7.803  12.712  1.00  0.00     0.014 A 
HETATM   30  C   UNL     1      43.090  -7.417  13.979  1.00  0.00     0.007 A 
HETATM   31  C   UNL     1      42.076  -8.137  14.620  1.00  0.00    -0.062 A 
HETATM   32  C   UNL     1      41.550  -7.691  15.952  1.00  0.00     0.048 C 
HETATM   33  C   UNL     1      41.517  -9.244  13.973  1.00  0.00     0.007 A 
HETATM   34  C   UNL     1      41.975  -9.632  12.710  1.00  0.00     0.014 A 
ENDBRANCH  26  28
ENDBRANCH   1  22
TORSDOF 7
ENDMDL
MODEL 2
REMARK VINA RESULT:      -9.2      2.065      3.013
REMARK  7 active torsions:
REMARK  status: ('A' for Active; 'I' for Inactive)
REMARK    1  A    between atoms: C_5  and  C_6 
REMARK    2  A    between atoms: C_10  and  C_11 
REMARK       I    between atoms: C_11  and  N_12 
REMARK    3  A    between atoms: N_12  and  N_13 
REMARK       I    between atoms: N_13  and  C_14 
REMARK       I    between atoms: C_14  and  N_15 
REMARK    4  A    between atoms: N_15  and  C_16 
REMARK    5  A    between atoms: C_16  and  C_17 
REMARK    6  A    between atoms: C_17  and  C_18 
REMARK    7  A    between atoms: C_21  and  O_22 
ROOT
HETATM    1  C   UNL     1      44.669 -11.387   7.656  1.00  0.00     0.288 C 
HETATM    2  N   UNL     1      43.771 -12.418   7.498  1.00  0.00    -0.261 N 
HETATM    3  O   UNL     1      45.579 -11.187   6.852  1.00  0.00    -0.264 OA
HETATM    4  H   UNL     1      42.958 -12.565   8.089  1.00  0.00     0.190 HD
ENDROOT
BRANCH   2   5
HETATM    5  N   UNL     1      43.958 -13.338   6.455  1.00  0.00    -0.249 N 
HETATM    6  C   UNL     1      43.292 -14.541   6.558  1.00  0.00     0.335 C 
HETATM    7  N   UNL     1      43.532 -15.351   5.480  1.00  0.00    -0.337 N 
HETATM    8  O   UNL     1      42.603 -14.847   7.525  1.00  0.00    -0.246 OA
HETATM    9  H   UNL     1      44.343 -15.128   4.921  1.00  0.00     0.164 HD
HETATM   10  H   UNL     1      44.042 -12.922   5.529  1.00  0.00     0.192 HD
BRANCH   7  11
HETATM   11  C   UNL     1      42.966 -16.691   5.367  1.00  0.00     0.086 C 
HETATM   12  C   UNL     1      43.793 -17.703   6.167  1.00  0.00     0.032 C 
BRANCH  11  13
HETATM   13  C   UNL     1      42.888 -17.146   3.892  1.00  0.00     0.063 C 
BRANCH  13  14
HETATM   14  C   UNL     1      41.971 -16.350   2.988  1.00  0.00    -0.056 A 
HETATM   15  C   UNL     1      42.473 -15.827   1.785  1.00  0.00     0.010 A 
HETATM   16  C   UNL     1      41.650 -15.106   0.917  1.00  0.00     0.037 A 
HETATM   17  C   UNL     1      40.314 -14.915   1.245  1.00  0.00     0.065 A 
HETATM   18  C   UNL     1      39.791 -15.438   2.422  1.00  0.00     0.037 A 
HETATM   19  C   UNL     1      40.615 -16.161   3.287  1.00  0.00     0.010 A 
BRANCH  17  20
HETATM   20  O   UNL     1      39.473 -14.218   0.430  1.00  0.00    -0.361 OA
HETATM   21  H   UNL     1      39.097 -13.477   0.931  1.00  0.00     0.217 HD
ENDBRANCH  17  20
ENDBRANCH  13  14
ENDBRANCH  11  13
ENDBRANCH   7  11
ENDBRANCH   2   5
BRANCH   1  22
HETATM   22  C   UNL     1      44.486 -10.585   8.833  1.00  0.00     0.121 A 
HETATM   23  N   UNL     1      45.464  -9.748   9.294  1.00  0.00    -0.272 N 
HETATM   24  N   UNL     1      45.172  -9.148  10.456  1.00  0.00    -0.174 NA
HETATM   25  H   UNL     1      46.369  -9.577   8.867  1.00  0.00     0.189 HD
HETATM   26  C   UNL     1      43.939  -9.582  10.762  1.00  0.00     0.089 A 
HETATM   27  C   UNL     1      43.462 -10.464   9.752  1.00  0.00     0.071 A 
BRANCH  26  28
HETATM   28  C   UNL     1      43.269  -9.198  12.006  1.00  0.00    -0.006 A 
HETATM   29  C   UNL     1      43.620  -8.025  12.686  1.00  0.00     0.014 A 
HETATM   30  C   UNL     1      42.936  -7.641  13.846  1.00  0.00     0.007 A 
HETATM   31  C   UNL     1      41.896  -8.428  14.350  1.00  0.00    -0.062 A 
HETATM   32  C   UNL     1      41.127  -7.989  15.561  1.00  0.00     0.048 C 
HETATM   33  C   UNL     1      41.543  -9.601  13.674  1.00  0.00     0.007 A 
HETATM   34  C   UNL     1      42.229  -9.986  12.519  1.00  0.00     0.014 A 
ENDBRANCH  26  28
ENDBRANCH   1  22
TORSDOF 7
ENDMDL
MODEL 3
REMARK VINA RESULT:      -9.1      2.259     11.704
REMARK  7 active torsions:
REMARK  status: ('A' for Active; 'I' for Inactive)
REMARK    1  A    between atoms: C_5  and  C_6 
REMARK    2  A    between atoms: C_10  and  C_11 
REMARK       I    between atoms: C_11  and  N_12 
REMARK    3  A    between atoms: N_12  and  N_13 
REMARK       I    between atoms: N_13  and  C_14 
REMARK       I    between atoms: C_14  and  N_15 
REMARK    4  A    between atoms: N_15  and  C_16 
REMARK    5  A    between atoms: C_16  and  C_17 
REMARK    6  A    between atoms: C_17  and  C_18 
REMARK    7  A    between atoms: C_21  and  O_22 
ROOT
HETATM    1  C   UNL     1      42.310 -12.223   5.714  1.00  0.00     0.288 C 
HETATM    2  N   UNL     1      43.335 -11.358   6.025  1.00  0.00    -0.261 N 
HETATM    3  O   UNL     1      41.163 -12.046   6.123  1.00  0.00    -0.264 OA
HETATM    4  H   UNL     1      44.273 -11.420   5.639  1.00  0.00     0.190 HD
ENDROOT
BRANCH   2   5
HETATM    5  N   UNL     1      43.098 -10.306   6.923  1.00  0.00    -0.249 N 
HETATM    6  C   UNL     1      43.757 -10.359   8.133  1.00  0.00     0.335 C 
HETATM    7  N   UNL     1      43.467  -9.277   8.920  1.00  0.00    -0.337 N 
HETATM    8  O   UNL     1      44.482 -11.292   8.463  1.00  0.00    -0.246 OA
HETATM    9  H   UNL     1      42.636  -8.755   8.679  1.00  0.00     0.164 HD
HETATM   10  H   UNL     1      42.981  -9.393   6.488  1.00  0.00     0.192 HD
BRANCH   7  11
HETATM   11  C   UNL     1      44.016  -9.115  10.262  1.00  0.00     0.086 C 
HETATM   12  C   UNL     1      45.482  -9.557  10.309  1.00  0.00     0.032 C 
BRANCH  11  13
HETATM   13  C   UNL     1      43.205  -9.918  11.303  1.00  0.00     0.063 C 
BRANCH  13  14
HETATM   14  C   UNL     1      42.785  -9.172  12.552  1.00  0.00    -0.056 A 
HETATM   15  C   UNL     1      43.466  -7.997  12.914  1.00  0.00     0.010 A 
HETATM   16  C   UNL     1      43.092  -7.272  14.048  1.00  0.00     0.037 A 
HETATM   17  C   UNL     1      42.024  -7.714  14.819  1.00  0.00     0.065 A 
HETATM   18  C   UNL     1      41.326  -8.864  14.470  1.00  0.00     0.037 A 
HETATM   19  C   UNL     1      41.699  -9.586  13.335  1.00  0.00     0.010 A 
BRANCH  17  20
HETATM   20  O   UNL     1      41.624  -7.040  15.933  1.00  0.00    -0.361 OA
HETATM   21  H   UNL     1      41.445  -6.117  15.690  1.00  0.00     0.217 HD
ENDBRANCH  17  20
ENDBRANCH  13  14
ENDBRANCH  11  13
ENDBRANCH   7  11
ENDBRANCH   2   5
BRANCH   1  22
HETATM   22  C   UNL     1      42.679 -13.353   4.909  1.00  0.00     0.121 A 
HETATM   23  N   UNL     1      42.882 -13.242   3.562  1.00  0.00    -0.272 N 
HETATM   24  N   UNL     1      43.123 -14.406   2.944  1.00  0.00    -0.174 NA
HETATM   25  H   UNL     1      42.831 -12.393   3.007  1.00  0.00     0.189 HD
HETATM   26  C   UNL     1      43.110 -15.321   3.926  1.00  0.00     0.089 A 
HETATM   27  C   UNL     1      42.863 -14.694   5.180  1.00  0.00     0.071 A 
BRANCH  26  28
HETATM   28  C   UNL     1      43.279 -16.750   3.656  1.00  0.00    -0.006 A 
HETATM   29  C   UNL     1      42.824 -17.321   2.461  1.00  0.00     0.014 A 
HETATM   30  C   UNL     1      43.039 -18.678   2.191  1.00  0.00     0.007 A 
HETATM   31  C   UNL     1      43.706 -19.488   3.115  1.00  0.00    -0.062 A 
HETATM   32  C   UNL     1      43.985 -20.929   2.802  1.00  0.00     0.048 C 
HETATM   33  C   UNL     1      44.163 -18.923   4.310  1.00  0.00     0.007 A 
HETATM   34  C   UNL     1      43.943 -17.569   4.580  1.00  0.00     0.014 A 
ENDBRANCH  26  28
ENDBRANCH   1  22
TORSDOF 7
ENDMDL
MODEL 4
REMARK VINA RESULT:      -9.0      2.838     10.627
REMARK  7 active torsions:
REMARK  status: ('A' for Active; 'I' for Inactive)
REMARK    1  A    between atoms: C_5  and  C_6 
REMARK    2  A    between atoms: C_10  and  C_11 
REMARK       I    between atoms: C_11  and  N_12 
REMARK    3  A    between atoms: N_12  and  N_13 
REMARK       I    between atoms: N_13  and  C_14 
REMARK       I    between atoms: C_14  and  N_15 
REMARK    4  A    between atoms: N_15  and  C_16 
REMARK    5  A    between atoms: C_16  and  C_17 
REMARK    6  A    between atoms: C_17  and  C_18 
REMARK    7  A    between atoms: C_21  and  O_22 
ROOT
HETATM    1  C   UNL     1      43.107 -11.971   6.346  1.00  0.00     0.288 C 
HETATM    2  N   UNL     1      42.268 -11.013   5.822  1.00  0.00    -0.261 N 
HETATM    3  O   UNL     1      44.030 -11.682   7.106  1.00  0.00    -0.264 OA
HETATM    4  H   UNL     1      41.445 -11.217   5.262  1.00  0.00     0.190 HD
ENDROOT
BRANCH   2   5
HETATM    5  N   UNL     1      42.534  -9.657   6.069  1.00  0.00    -0.249 N 
HETATM    6  C   UNL     1      41.989  -9.114   7.214  1.00  0.00     0.335 C 
HETATM    7  N   UNL     1      42.328  -7.795   7.363  1.00  0.00    -0.337 N 
HETATM    8  O   UNL     1      41.259  -9.740   7.974  1.00  0.00    -0.246 OA
HETATM    9  H   UNL     1      42.656  -7.318   6.535  1.00  0.00     0.164 HD
HETATM   10  H   UNL     1      43.466  -9.350   5.797  1.00  0.00     0.192 HD
BRANCH   7  11
HETATM   11  C   UNL     1      41.850  -6.986   8.479  1.00  0.00     0.086 C 
HETATM   12  C   UNL     1      41.534  -5.558   8.022  1.00  0.00     0.032 C 
BRANCH  11  13
HETATM   13  C   UNL     1      42.885  -6.939   9.624  1.00  0.00     0.063 C 
BRANCH  13  14
HETATM   14  C   UNL     1      43.174  -8.250  10.326  1.00  0.00    -0.056 A 
HETATM   15  C   UNL     1      42.234  -8.767  11.234  1.00  0.00     0.010 A 
HETATM   16  C   UNL     1      42.457  -9.983  11.883  1.00  0.00     0.037 A 
HETATM   17  C   UNL     1      43.620 -10.696  11.615  1.00  0.00     0.065 A 
HETATM   18  C   UNL     1      44.554 -10.212  10.708  1.00  0.00     0.037 A 
HETATM   19  C   UNL     1      44.328  -8.997  10.058  1.00  0.00     0.010 A 
BRANCH  17  20
HETATM   20  O   UNL     1      43.880 -11.886  12.224  1.00  0.00    -0.361 OA
HETATM   21  H   UNL     1      43.377 -12.583  11.773  1.00  0.00     0.217 HD
ENDBRANCH  17  20
ENDBRANCH  13  14
ENDBRANCH  11  13
ENDBRANCH   7  11
ENDBRANCH   2   5
BRANCH   1  22
HETATM   22  C   UNL     1      42.846 -13.317   5.919  1.00  0.00     0.121 A 
HETATM   23  N   UNL     1      42.056 -14.163   6.646  1.00  0.00    -0.272 N 
HETATM   24  N   UNL     1      41.995 -15.411   6.163  1.00  0.00    -0.174 NA
HETATM   25  H   UNL     1      41.561 -13.945   7.506  1.00  0.00     0.189 HD
HETATM   26  C   UNL     1      42.751 -15.383   5.054  1.00  0.00     0.089 A 
HETATM   27  C   UNL     1      43.280 -14.077   4.851  1.00  0.00     0.071 A 
BRANCH  26  28
HETATM   28  C   UNL     1      42.994 -16.583   4.251  1.00  0.00    -0.006 A 
HETATM   29  C   UNL     1      43.857 -17.592   4.697  1.00  0.00     0.014 A 
HETATM   30  C   UNL     1      44.040 -18.758   3.945  1.00  0.00     0.007 A 
HETATM   31  C   UNL     1      43.368 -18.933   2.731  1.00  0.00    -0.062 A 
HETATM   32  C   UNL     1      43.521 -20.207   1.953  1.00  0.00     0.048 C 
HETATM   33  C   UNL     1      42.505 -17.929   2.282  1.00  0.00     0.007 A 
HETATM   34  C   UNL     1      42.327 -16.762   3.031  1.00  0.00     0.014 A 
ENDBRANCH  26  28
ENDBRANCH   1  22
TORSDOF 7
ENDMDL
MODEL 5
REMARK VINA RESULT:      -9.0      2.691     10.962
REMARK  7 active torsions:
REMARK  status: ('A' for Active; 'I' for Inactive)
REMARK    1  A    between atoms: C_5  and  C_6 
REMARK    2  A    between atoms: C_10  and  C_11 
REMARK       I    between atoms: C_11  and  N_12 
REMARK    3  A    between atoms: N_12  and  N_13 
REMARK       I    between atoms: N_13  and  C_14 
REMARK       I    between atoms: C_14  and  N_15 
REMARK    4  A    between atoms: N_15  and  C_16 
REMARK    5  A    between atoms: C_16  and  C_17 
REMARK    6  A    between atoms: C_17  and  C_18 
REMARK    7  A    between atoms: C_21  and  O_22 
ROOT
HETATM    1  C   UNL     1      43.927 -11.577   7.447  1.00  0.00     0.288 C 
HETATM    2  N   UNL     1      43.054 -10.531   7.646  1.00  0.00    -0.261 N 
HETATM    3  O   UNL     1      45.060 -11.581   7.929  1.00  0.00    -0.264 OA
HETATM    4  H   UNL     1      42.086 -10.527   7.340  1.00  0.00     0.190 HD
ENDROOT
BRANCH   2   5
HETATM    5  N   UNL     1      43.499  -9.384   8.323  1.00  0.00    -0.249 N 
HETATM    6  C   UNL     1      42.537  -8.613   8.941  1.00  0.00     0.335 C 
HETATM    7  N   UNL     1      43.084  -7.535   9.583  1.00  0.00    -0.337 N 
HETATM    8  O   UNL     1      41.337  -8.858   8.879  1.00  0.00    -0.246 OA
HETATM    9  H   UNL     1      44.017  -7.269   9.303  1.00  0.00     0.164 HD
HETATM   10  H   UNL     1      44.396  -9.488   8.793  1.00  0.00     0.192 HD
BRANCH   7  11
HETATM   11  C   UNL     1      42.271  -6.548  10.287  1.00  0.00     0.086 C 
HETATM   12  C   UNL     1      42.783  -5.129  10.020  1.00  0.00     0.032 C 
BRANCH  11  13
HETATM   13  C   UNL     1      42.261  -6.811  11.810  1.00  0.00     0.063 C 
BRANCH  13  14
HETATM   14  C   UNL     1      41.535  -8.056  12.274  1.00  0.00    -0.056 A 
HETATM   15  C   UNL     1      40.131  -8.091  12.229  1.00  0.00     0.010 A 
HETATM   16  C   UNL     1      39.428  -9.230  12.629  1.00  0.00     0.037 A 
HETATM   17  C   UNL     1      40.132 -10.346  13.066  1.00  0.00     0.065 A 
HETATM   18  C   UNL     1      41.521 -10.339  13.102  1.00  0.00     0.037 A 
HETATM   19  C   UNL     1      42.221  -9.201  12.699  1.00  0.00     0.010 A 
BRANCH  17  20
HETATM   20  O   UNL     1      39.489 -11.479  13.466  1.00  0.00    -0.361 OA
HETATM   21  H   UNL     1      39.683 -11.631  14.405  1.00  0.00     0.217 HD
ENDBRANCH  17  20
ENDBRANCH  13  14
ENDBRANCH  11  13
ENDBRANCH   7  11
ENDBRANCH   2   5
BRANCH   1  22
HETATM   22  C   UNL     1      43.434 -12.641   6.619  1.00  0.00     0.121 A 
HETATM   23  N   UNL     1      42.098 -12.903   6.500  1.00  0.00    -0.272 N 
HETATM   24  N   UNL     1      41.812 -13.989   5.769  1.00  0.00    -0.174 NA
HETATM   25  H   UNL     1      41.337 -12.387   6.932  1.00  0.00     0.189 HD
HETATM   26  C   UNL     1      43.006 -14.448   5.361  1.00  0.00     0.089 A 
HETATM   27  C   UNL     1      44.049 -13.611   5.851  1.00  0.00     0.071 A 
BRANCH  26  28
HETATM   28  C   UNL     1      43.137 -15.674   4.573  1.00  0.00    -0.006 A 
HETATM   29  C   UNL     1      43.937 -16.736   5.012  1.00  0.00     0.014 A 
HETATM   30  C   UNL     1      44.012 -17.924   4.275  1.00  0.00     0.007 A 
HETATM   31  C   UNL     1      43.294 -18.068   3.084  1.00  0.00    -0.062 A 
HETATM   32  C   UNL     1      43.331 -19.361   2.324  1.00  0.00     0.048 C 
HETATM   33  C   UNL     1      42.493 -17.010   2.642  1.00  0.00     0.007 A 
HETATM   34  C   UNL     1      42.423 -15.822   3.375  1.00  0.00     0.014 A 
ENDBRANCH  26  28
ENDBRANCH   1  22
TORSDOF 7
ENDMDL
MODEL 6
REMARK VINA RESULT:      -8.8      1.787      2.300
REMARK  7 active torsions:
REMARK  status: ('A' for Active; 'I' for Inactive)
REMARK    1  A    between atoms: C_5  and  C_6 
REMARK    2  A    between atoms: C_10  and  C_11 
REMARK       I    between atoms: C_11  and  N_12 
REMARK    3  A    between atoms: N_12  and  N_13 
REMARK       I    between atoms: N_13  and  C_14 
REMARK       I    between atoms: C_14  and  N_15 
REMARK    4  A    between atoms: N_15  and  C_16 
REMARK    5  A    between atoms: C_16  and  C_17 
REMARK    6  A    between atoms: C_17  and  C_18 
REMARK    7  A    between atoms: C_21  and  O_22 
ROOT
HETATM    1  C   UNL     1      44.442 -11.299   5.930  1.00  0.00     0.288 C 
HETATM    2  N   UNL     1      43.238 -11.868   5.578  1.00  0.00    -0.261 N 
HETATM    3  O   UNL     1      45.375 -11.206   5.134  1.00  0.00    -0.264 OA
HETATM    4  H   UNL     1      42.418 -11.886   6.177  1.00  0.00     0.190 HD
ENDROOT
BRANCH   2   5
HETATM    5  N   UNL     1      43.101 -12.458   4.313  1.00  0.00    -0.249 N 
HETATM    6  C   UNL     1      41.896 -13.070   4.038  1.00  0.00     0.335 C 
HETATM    7  N   UNL     1      41.867 -13.594   2.774  1.00  0.00    -0.337 N 
HETATM    8  O   UNL     1      40.985 -13.158   4.855  1.00  0.00    -0.246 OA
HETATM    9  H   UNL     1      42.760 -13.736   2.325  1.00  0.00     0.164 HD
HETATM   10  H   UNL     1      43.559 -11.955   3.556  1.00  0.00     0.192 HD
BRANCH   7  11
HETATM   11  C   UNL     1      40.713 -14.319   2.253  1.00  0.00     0.086 C 
HETATM   12  C   UNL     1      39.474 -13.418   2.214  1.00  0.00     0.032 C 
BRANCH  11  13
HETATM   13  C   UNL     1      40.406 -15.573   3.102  1.00  0.00     0.063 C 
BRANCH  13  14
HETATM   14  C   UNL     1      41.580 -16.478   3.415  1.00  0.00    -0.056 A 
HETATM   15  C   UNL     1      42.202 -17.186   2.372  1.00  0.00     0.010 A 
HETATM   16  C   UNL     1      43.300 -18.013   2.621  1.00  0.00     0.037 A 
HETATM   17  C   UNL     1      43.789 -18.125   3.917  1.00  0.00     0.065 A 
HETATM   18  C   UNL     1      43.200 -17.421   4.960  1.00  0.00     0.037 A 
HETATM   19  C   UNL     1      42.104 -16.593   4.709  1.00  0.00     0.010 A 
BRANCH  17  20
HETATM   20  O   UNL     1      44.857 -18.919   4.207  1.00  0.00    -0.361 OA
HETATM   21  H   UNL     1      45.536 -18.379   4.643  1.00  0.00     0.217 HD
ENDBRANCH  17  20
ENDBRANCH  13  14
ENDBRANCH  11  13
ENDBRANCH   7  11
ENDBRANCH   2   5
BRANCH   1  22
HETATM   22  C   UNL     1      44.539 -10.855   7.292  1.00  0.00     0.121 A 
HETATM   23  N   UNL     1      45.707 -10.942   7.997  1.00  0.00    -0.272 N 
HETATM   24  N   UNL     1      45.603 -10.576   9.282  1.00  0.00    -0.174 NA
HETATM   25  H   UNL     1      46.601 -11.280   7.653  1.00  0.00     0.189 HD
HETATM   26  C   UNL     1      44.322 -10.203   9.426  1.00  0.00     0.089 A 
HETATM   27  C   UNL     1      43.628 -10.336   8.190  1.00  0.00     0.071 A 
BRANCH  26  28
HETATM   28  C   UNL     1      43.778  -9.783  10.719  1.00  0.00    -0.006 A 
HETATM   29  C   UNL     1      43.673  -8.427  11.055  1.00  0.00     0.014 A 
HETATM   30  C   UNL     1      43.103  -8.036  12.272  1.00  0.00     0.007 A 
HETATM   31  C   UNL     1      42.635  -8.994  13.177  1.00  0.00    -0.062 A 
HETATM   32  C   UNL     1      41.974  -8.574  14.457  1.00  0.00     0.048 C 
HETATM   33  C   UNL     1      42.738 -10.349  12.846  1.00  0.00     0.007 A 
HETATM   34  C   UNL     1      43.313 -10.739  11.632  1.00  0.00     0.014 A 
ENDBRANCH  26  28
ENDBRANCH   1  22
TORSDOF 7
ENDMDL
MODEL 7
REMARK VINA RESULT:      -8.7      6.164     10.088
REMARK  7 active torsions:
REMARK  status: ('A' for Active; 'I' for Inactive)
REMARK    1  A    between atoms: C_5  and  C_6 
REMARK    2  A    between atoms: C_10  and  C_11 
REMARK       I    between atoms: C_11  and  N_12 
REMARK    3  A    between atoms: N_12  and  N_13 
REMARK       I    between atoms: N_13  and  C_14 
REMARK       I    between atoms: C_14  and  N_15 
REMARK    4  A    between atoms: N_15  and  C_16 
REMARK    5  A    between atoms: C_16  and  C_17 
REMARK    6  A    between atoms: C_17  and  C_18 
REMARK    7  A    between atoms: C_21  and  O_22 
ROOT
HETATM    1  C   UNL     1      39.937 -14.048   0.770  1.00  0.00     0.288 C 
HETATM    2  N   UNL     1      39.474 -13.860   2.053  1.00  0.00    -0.261 N 
HETATM    3  O   UNL     1      40.342 -15.142   0.378  1.00  0.00    -0.264 OA
HETATM    4  H   UNL     1      39.053 -12.998   2.388  1.00  0.00     0.190 HD
ENDROOT
BRANCH   2   5
HETATM    5  N   UNL     1      39.566 -14.910   2.978  1.00  0.00    -0.249 N 
HETATM    6  C   UNL     1      40.660 -14.906   3.818  1.00  0.00     0.335 C 
HETATM    7  N   UNL     1      40.638 -15.963   4.688  1.00  0.00    -0.337 N 
HETATM    8  O   UNL     1      41.555 -14.070   3.753  1.00  0.00    -0.246 OA
HETATM    9  H   UNL     1      40.039 -16.738   4.441  1.00  0.00     0.164 HD
HETATM   10  H   UNL     1      38.676 -15.219   3.363  1.00  0.00     0.192 HD
BRANCH   7  11
HETATM   11  C   UNL     1      41.701 -16.200   5.660  1.00  0.00     0.086 C 
HETATM   12  C   UNL     1      41.824 -15.022   6.632  1.00  0.00     0.032 C 
BRANCH  11  13
HETATM   13  C   UNL     1      43.060 -16.431   4.962  1.00  0.00     0.063 C 
BRANCH  13  14
HETATM   14  C   UNL     1      43.374 -17.854   4.551  1.00  0.00    -0.056 A 
HETATM   15  C   UNL     1      43.380 -18.192   3.187  1.00  0.00     0.010 A 
HETATM   16  C   UNL     1      43.686 -19.490   2.771  1.00  0.00     0.037 A 
HETATM   17  C   UNL     1      44.000 -20.454   3.720  1.00  0.00     0.065 A 
HETATM   18  C   UNL     1      44.017 -20.138   5.073  1.00  0.00     0.037 A 
HETATM   19  C   UNL     1      43.714 -18.840   5.488  1.00  0.00     0.010 A 
BRANCH  17  20
HETATM   20  O   UNL     1      44.304 -21.733   3.361  1.00  0.00    -0.361 OA
HETATM   21  H   UNL     1      44.670 -22.194   4.134  1.00  0.00     0.217 HD
ENDBRANCH  17  20
ENDBRANCH  13  14
ENDBRANCH  11  13
ENDBRANCH   7  11
ENDBRANCH   2   5
BRANCH   1  22
HETATM   22  C   UNL     1      39.941 -12.878  -0.063  1.00  0.00     0.121 A 
HETATM   23  N   UNL     1      38.879 -12.560  -0.862  1.00  0.00    -0.272 N 
HETATM   24  N   UNL     1      39.083 -11.493  -1.648  1.00  0.00    -0.174 NA
HETATM   25  H   UNL     1      38.000 -13.063  -0.935  1.00  0.00     0.189 HD
HETATM   26  C   UNL     1      40.318 -11.070  -1.334  1.00  0.00     0.089 A 
HETATM   27  C   UNL     1      40.879 -11.898  -0.320  1.00  0.00     0.071 A 
BRANCH  26  28
HETATM   28  C   UNL     1      40.949  -9.943  -2.021  1.00  0.00    -0.006 A 
HETATM   29  C   UNL     1      41.913  -9.152  -1.383  1.00  0.00     0.014 A 
HETATM   30  C   UNL     1      42.548  -8.109  -2.069  1.00  0.00     0.007 A 
HETATM   31  C   UNL     1      42.224  -7.835  -3.401  1.00  0.00    -0.062 A 
HETATM   32  C   UNL     1      42.944  -6.754  -4.152  1.00  0.00     0.048 C 
HETATM   33  C   UNL     1      41.263  -8.622  -4.043  1.00  0.00     0.007 A 
HETATM   34  C   UNL     1      40.625  -9.660  -3.356  1.00  0.00     0.014 A 
ENDBRANCH  26  28
ENDBRANCH   1  22
TORSDOF 7
ENDMDL
MODEL 8
REMARK VINA RESULT:      -8.4      2.748      4.361
REMARK  7 active torsions:
REMARK  status: ('A' for Active; 'I' for Inactive)
REMARK    1  A    between atoms: C_5  and  C_6 
REMARK    2  A    between atoms: C_10  and  C_11 
REMARK       I    between atoms: C_11  and  N_12 
REMARK    3  A    between atoms: N_12  and  N_13 
REMARK       I    between atoms: N_13  and  C_14 
REMARK       I    between atoms: C_14  and  N_15 
REMARK    4  A    between atoms: N_15  and  C_16 
REMARK    5  A    between atoms: C_16  and  C_17 
REMARK    6  A    between atoms: C_17  and  C_18 
REMARK    7  A    between atoms: C_21  and  O_22 
ROOT
HETATM    1  C   UNL     1      44.170 -11.479   5.869  1.00  0.00     0.288 C 
HETATM    2  N   UNL     1      43.299 -12.546   5.864  1.00  0.00    -0.261 N 
HETATM    3  O   UNL     1      44.802 -11.150   4.865  1.00  0.00    -0.264 OA
HETATM    4  H   UNL     1      42.697 -12.796   6.643  1.00  0.00     0.190 HD
ENDROOT
BRANCH   2   5
HETATM    5  N   UNL     1      43.208 -13.353   4.720  1.00  0.00    -0.249 N 
HETATM    6  C   UNL     1      42.384 -14.456   4.800  1.00  0.00     0.335 C 
HETATM    7  N   UNL     1      42.357 -15.158   3.625  1.00  0.00    -0.337 N 
HETATM    8  O   UNL     1      41.786 -14.776   5.822  1.00  0.00    -0.246 OA
HETATM    9  H   UNL     1      43.114 -14.985   2.979  1.00  0.00     0.164 HD
HETATM   10  H   UNL     1      43.235 -12.846   3.838  1.00  0.00     0.192 HD
BRANCH   7  11
HETATM   11  C   UNL     1      41.582 -16.384   3.463  1.00  0.00     0.086 C 
HETATM   12  C   UNL     1      42.252 -17.324   2.455  1.00  0.00     0.032 C 
BRANCH  11  13
HETATM   13  C   UNL     1      40.139 -16.082   3.001  1.00  0.00     0.063 C 
BRANCH  13  14
HETATM   14  C   UNL     1      39.974 -14.957   2.000  1.00  0.00    -0.056 A 
HETATM   15  C   UNL     1      40.136 -15.225   0.630  1.00  0.00     0.010 A 
HETATM   16  C   UNL     1      39.969 -14.217  -0.323  1.00  0.00     0.037 A 
HETATM   17  C   UNL     1      39.626 -12.936   0.093  1.00  0.00     0.065 A 
HETATM   18  C   UNL     1      39.444 -12.653   1.441  1.00  0.00     0.037 A 
HETATM   19  C   UNL     1      39.608 -13.662   2.392  1.00  0.00     0.010 A 
BRANCH  17  20
HETATM   20  O   UNL     1      39.454 -11.921  -0.800  1.00  0.00    -0.361 OA
HETATM   21  H   UNL     1      38.567 -11.546  -0.676  1.00  0.00     0.217 HD
ENDBRANCH  17  20
ENDBRANCH  13  14
ENDBRANCH  11  13
ENDBRANCH   7  11
ENDBRANCH   2   5
BRANCH   1  22
HETATM   22  C   UNL     1      44.308 -10.802   7.127  1.00  0.00     0.121 A 
HETATM   23  N   UNL     1      45.300 -11.122   8.012  1.00  0.00    -0.272 N 
HETATM   24  N   UNL     1      45.229 -10.466   9.179  1.00  0.00    -0.174 NA
HETATM   25  H   UNL     1      46.033 -11.813   7.881  1.00  0.00     0.189 HD
HETATM   26  C   UNL     1      44.166  -9.656   9.049  1.00  0.00     0.089 A 
HETATM   27  C   UNL     1      43.579  -9.817   7.763  1.00  0.00     0.071 A 
BRANCH  26  28
HETATM   28  C   UNL     1      43.708  -8.798  10.143  1.00  0.00    -0.006 A 
HETATM   29  C   UNL     1      43.098  -7.563   9.889  1.00  0.00     0.014 A 
HETATM   30  C   UNL     1      42.616  -6.776  10.942  1.00  0.00     0.007 A 
HETATM   31  C   UNL     1      42.742  -7.207  12.267  1.00  0.00    -0.062 A 
HETATM   32  C   UNL     1      42.177  -6.390  13.390  1.00  0.00     0.048 C 
HETATM   33  C   UNL     1      43.351  -8.439  12.525  1.00  0.00     0.007 A 
HETATM   34  C   UNL     1      43.837  -9.223  11.473  1.00  0.00     0.014 A 
ENDBRANCH  26  28
ENDBRANCH   1  22
TORSDOF 7
ENDMDL
MODEL 9
REMARK VINA RESULT:      -8.4     17.779     19.939
REMARK  7 active torsions:
REMARK  status: ('A' for Active; 'I' for Inactive)
REMARK    1  A    between atoms: C_5  and  C_6 
REMARK    2  A    between atoms: C_10  and  C_11 
REMARK       I    between atoms: C_11  and  N_12 
REMARK    3  A    between atoms: N_12  and  N_13 
REMARK       I    between atoms: N_13  and  C_14 
REMARK       I    between atoms: C_14  and  N_15 
REMARK    4  A    between atoms: N_15  and  C_16 
REMARK    5  A    between atoms: C_16  and  C_17 
REMARK    6  A    between atoms: C_17  and  C_18 
REMARK    7  A    between atoms: C_21  and  O_22 
ROOT
HETATM    1  C   UNL     1      41.799 -30.411   2.669  1.00  0.00     0.288 C 
HETATM    2  N   UNL     1      42.902 -30.146   3.450  1.00  0.00    -0.261 N 
HETATM    3  O   UNL     1      41.620 -29.857   1.585  1.00  0.00    -0.264 OA
HETATM    4  H   UNL     1      43.129 -30.642   4.307  1.00  0.00     0.190 HD
ENDROOT
BRANCH   2   5
HETATM    5  N   UNL     1      43.794 -29.136   3.058  1.00  0.00    -0.249 N 
HETATM    6  C   UNL     1      45.019 -29.542   2.572  1.00  0.00     0.335 C 
HETATM    7  N   UNL     1      45.799 -28.478   2.204  1.00  0.00    -0.337 N 
HETATM    8  O   UNL     1      45.365 -30.717   2.519  1.00  0.00    -0.246 OA
HETATM    9  H   UNL     1      45.540 -27.578   2.581  1.00  0.00     0.164 HD
HETATM   10  H   UNL     1      43.357 -28.327   2.623  1.00  0.00     0.192 HD
BRANCH   7  11
HETATM   11  C   UNL     1      47.153 -28.643   1.687  1.00  0.00     0.086 C 
HETATM   12  C   UNL     1      48.192 -28.329   2.768  1.00  0.00     0.032 C 
BRANCH  11  13
HETATM   13  C   UNL     1      47.401 -27.737   0.460  1.00  0.00     0.063 C 
BRANCH  13  14
HETATM   14  C   UNL     1      46.787 -28.190  -0.848  1.00  0.00    -0.056 A 
HETATM   15  C   UNL     1      47.454 -29.153  -1.625  1.00  0.00     0.010 A 
HETATM   16  C   UNL     1      46.907 -29.610  -2.826  1.00  0.00     0.037 A 
HETATM   17  C   UNL     1      45.680 -29.114  -3.249  1.00  0.00     0.065 A 
HETATM   18  C   UNL     1      44.995 -28.174  -2.488  1.00  0.00     0.037 A 
HETATM   19  C   UNL     1      45.542 -27.720  -1.286  1.00  0.00     0.010 A 
BRANCH  17  20
HETATM   20  O   UNL     1      45.108 -29.530  -4.413  1.00  0.00    -0.361 OA
HETATM   21  H   UNL     1      45.682 -29.270  -5.152  1.00  0.00     0.217 HD
ENDBRANCH  17  20
ENDBRANCH  13  14
ENDBRANCH  11  13
ENDBRANCH   7  11
ENDBRANCH   2   5
BRANCH   1  22
HETATM   22  C   UNL     1      40.865 -31.352   3.221  1.00  0.00     0.121 A 
HETATM   23  N   UNL     1      40.208 -32.259   2.438  1.00  0.00    -0.272 N 
HETATM   24  N   UNL     1      39.300 -32.996   3.092  1.00  0.00    -0.174 NA
HETATM   25  H   UNL     1      40.319 -32.392   1.437  1.00  0.00     0.189 HD
HETATM   26  C   UNL     1      39.380 -32.581   4.367  1.00  0.00     0.089 A 
HETATM   27  C   UNL     1      40.373 -31.569   4.493  1.00  0.00     0.071 A 
BRANCH  26  28
HETATM   28  C   UNL     1      38.497 -33.106   5.409  1.00  0.00    -0.006 A 
HETATM   29  C   UNL     1      37.192 -33.521   5.113  1.00  0.00     0.014 A 
HETATM   30  C   UNL     1      36.375 -34.071   6.108  1.00  0.00     0.007 A 
HETATM   31  C   UNL     1      36.846 -34.208   7.418  1.00  0.00    -0.062 A 
HETATM   32  C   UNL     1      35.991 -34.848   8.471  1.00  0.00     0.048 C 
HETATM   33  C   UNL     1      38.148 -33.794   7.718  1.00  0.00     0.007 A 
HETATM   34  C   UNL     1      38.961 -33.241   6.725  1.00  0.00     0.014 A 
ENDBRANCH  26  28
ENDBRANCH   1  22
TORSDOF 7
ENDMDL
MODEL 10
REMARK VINA RESULT:      -8.2      7.765     10.649
REMARK  7 active torsions:
REMARK  status: ('A' for Active; 'I' for Inactive)
REMARK    1  A    between atoms: C_5  and  C_6 
REMARK    2  A    between atoms: C_10  and  C_11 
REMARK       I    between atoms: C_11  and  N_12 
REMARK    3  A    between atoms: N_12  and  N_13 
REMARK       I    between atoms: N_13  and  C_14 
REMARK       I    between atoms: C_14  and  N_15 
REMARK    4  A    between atoms: N_15  and  C_16 
REMARK    5  A    between atoms: C_16  and  C_17 
REMARK    6  A    between atoms: C_17  and  C_18 
REMARK    7  A    between atoms: C_21  and  O_22 
ROOT
HETATM    1  C   UNL     1      39.881 -13.769   1.647  1.00  0.00     0.288 C 
HETATM    2  N   UNL     1      38.993 -12.972   2.335  1.00  0.00    -0.261 N 
HETATM    3  O   UNL     1      39.861 -13.856   0.419  1.00  0.00    -0.264 OA
HETATM    4  H   UNL     1      39.031 -12.807   3.336  1.00  0.00     0.190 HD
ENDROOT
BRANCH   2   5
HETATM    5  N   UNL     1      37.964 -12.325   1.633  1.00  0.00    -0.249 N 
HETATM    6  C   UNL     1      38.283 -11.131   1.022  1.00  0.00     0.335 C 
HETATM    7  N   UNL     1      37.213 -10.599   0.354  1.00  0.00    -0.337 N 
HETATM    8  O   UNL     1      39.387 -10.604   1.109  1.00  0.00    -0.246 OA
HETATM    9  H   UNL     1      36.301 -10.949   0.612  1.00  0.00     0.164 HD
HETATM   10  H   UNL     1      37.322 -12.948   1.148  1.00  0.00     0.192 HD
BRANCH   7  11
HETATM   11  C   UNL     1      37.285  -9.323  -0.350  1.00  0.00     0.086 C 
HETATM   12  C   UNL     1      36.009  -8.504  -0.129  1.00  0.00     0.032 C 
BRANCH  11  13
HETATM   13  C   UNL     1      37.506  -9.527  -1.866  1.00  0.00     0.063 C 
BRANCH  13  14
HETATM   14  C   UNL     1      38.599 -10.497  -2.263  1.00  0.00    -0.056 A 
HETATM   15  C   UNL     1      38.255 -11.810  -2.629  1.00  0.00     0.010 A 
HETATM   16  C   UNL     1      39.235 -12.725  -3.022  1.00  0.00     0.037 A 
HETATM   17  C   UNL     1      40.564 -12.325  -3.061  1.00  0.00     0.065 A 
HETATM   18  C   UNL     1      40.925 -11.027  -2.720  1.00  0.00     0.037 A 
HETATM   19  C   UNL     1      39.944 -10.113  -2.331  1.00  0.00     0.010 A 
BRANCH  17  20
HETATM   20  O   UNL     1      41.554 -13.183  -3.438  1.00  0.00    -0.361 OA
HETATM   21  H   UNL     1      41.300 -14.083  -3.178  1.00  0.00     0.217 HD
ENDBRANCH  17  20
ENDBRANCH  13  14
ENDBRANCH  11  13
ENDBRANCH   7  11
ENDBRANCH   2   5
BRANCH   1  22
HETATM   22  C   UNL     1      40.805 -14.508   2.460  1.00  0.00     0.121 A 
HETATM   23  N   UNL     1      41.772 -13.886   3.198  1.00  0.00    -0.272 N 
HETATM   24  N   UNL     1      42.612 -14.723   3.822  1.00  0.00    -0.174 NA
HETATM   25  H   UNL     1      41.925 -12.885   3.281  1.00  0.00     0.189 HD
HETATM   26  C   UNL     1      42.164 -15.950   3.510  1.00  0.00     0.089 A 
HETATM   27  C   UNL     1      41.012 -15.856   2.679  1.00  0.00     0.071 A 
BRANCH  26  28
HETATM   28  C   UNL     1      42.852 -17.163   3.955  1.00  0.00    -0.006 A 
HETATM   29  C   UNL     1      43.028 -17.437   5.317  1.00  0.00     0.014 A 
HETATM   30  C   UNL     1      43.641 -18.626   5.731  1.00  0.00     0.007 A 
HETATM   31  C   UNL     1      44.094 -19.557   4.791  1.00  0.00    -0.062 A 
HETATM   32  C   UNL     1      44.700 -20.855   5.235  1.00  0.00     0.048 C 
HETATM   33  C   UNL     1      43.920 -19.287   3.429  1.00  0.00     0.007 A 
HETATM   34  C   UNL     1      43.312 -18.097   3.016  1.00  0.00     0.014 A 
ENDBRANCH  26  28
ENDBRANCH   1  22
TORSDOF 7
ENDMDL
