MODEL 1
REMARK VINA RESULT:      -9.4      0.000      0.000
REMARK  5 active torsions:
REMARK  status: ('A' for Active; 'I' for Inactive)
REMARK    1  A    between atoms: C_6  and  O_7 
REMARK    2  A    between atoms: O_7  and  C_8 
REMARK    3  A    between atoms: C_8  and  C_9 
REMARK    4  A    between atoms: C_11  and  C_12 
REMARK       I    between atoms: C_12  and  N_13 
REMARK    5  A    between atoms: N_13  and  C_14 
ROOT
HETATM    1  C   UNL     1      43.803 -13.316   6.384  1.00  0.00     0.078 A 
HETATM    2  O   UNL     1      43.950 -12.876   7.664  1.00  0.00    -0.307 OA
HETATM    3  C   UNL     1      44.139 -11.519   7.629  1.00  0.00     0.143 A 
HETATM    4  C   UNL     1      44.126 -11.102   6.308  1.00  0.00     0.045 A 
HETATM    5  C   UNL     1      43.910 -12.256   5.511  1.00  0.00     0.038 A 
ENDROOT
BRANCH   3   6
HETATM    6  C   UNL     1      44.313 -10.843   8.907  1.00  0.00     0.279 C 
HETATM    7  N   UNL     1      43.134 -10.369   9.476  1.00  0.00    -0.321 N 
HETATM    8  H   UNL     1      42.283 -10.541   8.958  1.00  0.00     0.169 HD
HETATM    9  O   UNL     1      45.418 -10.701   9.426  1.00  0.00    -0.265 OA
BRANCH   7  10
HETATM   10  C   UNL     1      42.996  -9.640  10.677  1.00  0.00     0.035 A 
HETATM   11  C   UNL     1      42.842  -8.253  10.729  1.00  0.00     0.039 A 
HETATM   12  C   UNL     1      42.675  -7.638  11.961  1.00  0.00    -0.022 A 
HETATM   13  C   UNL     1      42.659  -8.375  13.144  1.00  0.00    -0.025 A 
HETATM   14  C   UNL     1      42.448  -6.190  12.228  1.00  0.00     0.274 C 
HETATM   15  C   UNL     1      42.405  -7.482  14.310  1.00  0.00     0.273 C 
HETATM   16  C   UNL     1      42.824  -9.748  13.121  1.00  0.00     0.012 A 
HETATM   17  N   UNL     1      42.458  -6.065  13.748  1.00  0.00    -0.067 N 
HETATM   18  H   UNL     1      43.381  -5.692  13.995  1.00  0.00     0.280 HD
HETATM   19  C   UNL     1      41.413  -5.152  14.285  1.00  0.00     0.270 C 
HETATM   20  C   UNL     1      42.997 -10.376  11.880  1.00  0.00     0.030 A 
ENDBRANCH   7  10
ENDBRANCH   3   6
BRANCH   1  21
HETATM   21  C   UNL     1      43.570 -14.773   6.204  1.00  0.00     0.240 C 
BRANCH  21  22
HETATM   22  O   UNL     1      43.173 -14.948   4.847  1.00  0.00    -0.344 OA
BRANCH  22  23
HETATM   23  C   UNL     1      43.356 -16.189   4.294  1.00  0.00     0.075 A 
HETATM   24  C   UNL     1      43.057 -16.295   2.925  1.00  0.00    -0.028 A 
HETATM   25  C   UNL     1      43.190 -17.539   2.283  1.00  0.00     0.016 A 
HETATM   26  C   UNL     1      42.537 -15.120   2.144  1.00  0.00     0.051 C 
HETATM   27  C   UNL     1      43.629 -18.669   2.981  1.00  0.00    -0.061 A 
HETATM   28  C   UNL     1      43.803 -19.981   2.276  1.00  0.00     0.048 C 
HETATM   29  C   UNL     1      43.956 -18.540   4.333  1.00  0.00     0.009 A 
HETATM   30  C   UNL     1      43.815 -17.313   4.986  1.00  0.00     0.038 A 
ENDBRANCH  22  23
ENDBRANCH  21  22
ENDBRANCH   1  21
TORSDOF 5
ENDMDL
MODEL 2
REMARK VINA RESULT:      -9.3      2.671     10.847
REMARK  5 active torsions:
REMARK  status: ('A' for Active; 'I' for Inactive)
REMARK    1  A    between atoms: C_6  and  O_7 
REMARK    2  A    between atoms: O_7  and  C_8 
REMARK    3  A    between atoms: C_8  and  C_9 
REMARK    4  A    between atoms: C_11  and  C_12 
REMARK       I    between atoms: C_12  and  N_13 
REMARK    5  A    between atoms: N_13  and  C_14 
ROOT
HETATM    1  C   UNL     1      44.315 -10.461  10.354  1.00  0.00     0.078 A 
HETATM    2  O   UNL     1      43.894 -11.286   9.356  1.00  0.00    -0.307 OA
HETATM    3  C   UNL     1      44.629 -11.006   8.234  1.00  0.00     0.143 A 
HETATM    4  C   UNL     1      45.514  -9.981   8.526  1.00  0.00     0.045 A 
HETATM    5  C   UNL     1      45.310  -9.633   9.887  1.00  0.00     0.038 A 
ENDROOT
BRANCH   3   6
HETATM    6  C   UNL     1      44.338 -11.788   7.041  1.00  0.00     0.279 C 
HETATM    7  N   UNL     1      43.371 -12.774   7.218  1.00  0.00    -0.321 N 
HETATM    8  H   UNL     1      42.966 -12.848   8.140  1.00  0.00     0.169 HD
HETATM    9  O   UNL     1      44.914 -11.591   5.974  1.00  0.00    -0.265 OA
BRANCH   7  10
HETATM   10  C   UNL     1      42.918 -13.710   6.262  1.00  0.00     0.035 A 
HETATM   11  C   UNL     1      41.821 -13.493   5.424  1.00  0.00     0.039 A 
HETATM   12  C   UNL     1      41.482 -14.462   4.491  1.00  0.00    -0.022 A 
HETATM   13  C   UNL     1      42.211 -15.644   4.375  1.00  0.00    -0.025 A 
HETATM   14  C   UNL     1      40.389 -14.404   3.481  1.00  0.00     0.274 C 
HETATM   15  C   UNL     1      41.675 -16.479   3.262  1.00  0.00     0.273 C 
HETATM   16  C   UNL     1      43.291 -15.889   5.203  1.00  0.00     0.012 A 
HETATM   17  N   UNL     1      40.397 -15.776   2.815  1.00  0.00    -0.067 N 
HETATM   18  H   UNL     1      39.620 -16.298   3.234  1.00  0.00     0.280 HD
HETATM   19  C   UNL     1      40.205 -15.732   1.341  1.00  0.00     0.270 C 
HETATM   20  C   UNL     1      43.638 -14.917   6.150  1.00  0.00     0.030 A 
ENDBRANCH   7  10
ENDBRANCH   3   6
BRANCH   1  21
HETATM   21  C   UNL     1      43.646 -10.619  11.673  1.00  0.00     0.240 C 
BRANCH  21  22
HETATM   22  O   UNL     1      42.594  -9.659  11.703  1.00  0.00    -0.344 OA
BRANCH  22  23
HETATM   23  C   UNL     1      42.494  -8.871  12.821  1.00  0.00     0.075 A 
HETATM   24  C   UNL     1      41.382  -9.120  13.643  1.00  0.00    -0.028 A 
HETATM   25  C   UNL     1      41.187  -8.339  14.796  1.00  0.00     0.016 A 
HETATM   26  C   UNL     1      40.361 -10.163  13.285  1.00  0.00     0.051 C 
HETATM   27  C   UNL     1      42.088  -7.327  15.144  1.00  0.00    -0.061 A 
HETATM   28  C   UNL     1      41.889  -6.527  16.396  1.00  0.00     0.048 C 
HETATM   29  C   UNL     1      43.207  -7.115  14.336  1.00  0.00     0.009 A 
HETATM   30  C   UNL     1      43.407  -7.875  13.181  1.00  0.00     0.038 A 
ENDBRANCH  22  23
ENDBRANCH  21  22
ENDBRANCH   1  21
TORSDOF 5
ENDMDL
MODEL 3
REMARK VINA RESULT:      -8.9      1.301      2.178
REMARK  5 active torsions:
REMARK  status: ('A' for Active; 'I' for Inactive)
REMARK    1  A    between atoms: C_6  and  O_7 
REMARK    2  A    between atoms: O_7  and  C_8 
REMARK    3  A    between atoms: C_8  and  C_9 
REMARK    4  A    between atoms: C_11  and  C_12 
REMARK       I    between atoms: C_12  and  N_13 
REMARK    5  A    between atoms: N_13  and  C_14 
ROOT
HETATM    1  C   UNL     1      44.081 -11.564   6.526  1.00  0.00     0.078 A 
HETATM    2  O   UNL     1      43.715 -11.375   7.824  1.00  0.00    -0.307 OA
HETATM    3  C   UNL     1      44.783 -10.837   8.494  1.00  0.00     0.143 A 
HETATM    4  C   UNL     1      45.840 -10.699   7.608  1.00  0.00     0.045 A 
HETATM    5  C   UNL     1      45.387 -11.167   6.346  1.00  0.00     0.038 A 
ENDROOT
BRANCH   3   6
HETATM    6  C   UNL     1      44.599 -10.549   9.909  1.00  0.00     0.279 C 
HETATM    7  N   UNL     1      43.398  -9.917  10.218  1.00  0.00    -0.321 N 
HETATM    8  H   UNL     1      42.776  -9.727   9.445  1.00  0.00     0.169 HD
HETATM    9  O   UNL     1      45.447 -10.836  10.750  1.00  0.00    -0.265 OA
BRANCH   7  10
HETATM   10  C   UNL     1      42.964  -9.477  11.488  1.00  0.00     0.035 A 
HETATM   11  C   UNL     1      43.437  -8.318  12.110  1.00  0.00     0.039 A 
HETATM   12  C   UNL     1      42.916  -7.953  13.343  1.00  0.00    -0.022 A 
HETATM   13  C   UNL     1      41.936  -8.719  13.972  1.00  0.00    -0.025 A 
HETATM   14  C   UNL     1      43.246  -6.741  14.143  1.00  0.00     0.274 C 
HETATM   15  C   UNL     1      41.511  -8.075  15.247  1.00  0.00     0.273 C 
HETATM   16  C   UNL     1      41.462  -9.878  13.384  1.00  0.00     0.012 A 
HETATM   17  N   UNL     1      42.479  -6.913  15.450  1.00  0.00    -0.067 N 
HETATM   18  H   UNL     1      43.167  -7.230  16.142  1.00  0.00     0.280 HD
HETATM   19  C   UNL     1      41.842  -5.663  15.945  1.00  0.00     0.270 C 
HETATM   20  C   UNL     1      41.986 -10.255  12.140  1.00  0.00     0.030 A 
ENDBRANCH   7  10
ENDBRANCH   3   6
BRANCH   1  21
HETATM   21  C   UNL     1      43.048 -12.131   5.620  1.00  0.00     0.240 C 
BRANCH  21  22
HETATM   22  O   UNL     1      42.788 -13.451   6.089  1.00  0.00    -0.344 OA
BRANCH  22  23
HETATM   23  C   UNL     1      42.922 -14.476   5.188  1.00  0.00     0.075 A 
HETATM   24  C   UNL     1      43.076 -15.758   5.743  1.00  0.00    -0.028 A 
HETATM   25  C   UNL     1      43.248 -16.864   4.892  1.00  0.00     0.016 A 
HETATM   26  C   UNL     1      43.122 -15.966   7.231  1.00  0.00     0.051 C 
HETATM   27  C   UNL     1      43.255 -16.710   3.501  1.00  0.00    -0.061 A 
HETATM   28  C   UNL     1      43.401 -17.901   2.603  1.00  0.00     0.048 C 
HETATM   29  C   UNL     1      43.066 -15.435   2.963  1.00  0.00     0.009 A 
HETATM   30  C   UNL     1      42.907 -14.326   3.798  1.00  0.00     0.038 A 
ENDBRANCH  22  23
ENDBRANCH  21  22
ENDBRANCH   1  21
TORSDOF 5
ENDMDL
MODEL 4
REMARK VINA RESULT:      -8.5      1.592      2.119
REMARK  5 active torsions:
REMARK  status: ('A' for Active; 'I' for Inactive)
REMARK    1  A    between atoms: C_6  and  O_7 
REMARK    2  A    between atoms: O_7  and  C_8 
REMARK    3  A    between atoms: C_8  and  C_9 
REMARK    4  A    between atoms: C_11  and  C_12 
REMARK       I    between atoms: C_12  and  N_13 
REMARK    5  A    between atoms: N_13  and  C_14 
ROOT
HETATM    1  C   UNL     1      42.397 -12.969   4.730  1.00  0.00     0.078 A 
HETATM    2  O   UNL     1      42.029 -12.444   5.931  1.00  0.00    -0.307 OA
HETATM    3  C   UNL     1      42.449 -11.140   5.973  1.00  0.00     0.143 A 
HETATM    4  C   UNL     1      43.102 -10.845   4.787  1.00  0.00     0.045 A 
HETATM    5  C   UNL     1      43.068 -12.020   3.992  1.00  0.00     0.038 A 
ENDROOT
BRANCH   3   6
HETATM    6  C   UNL     1      42.148 -10.387   7.182  1.00  0.00     0.279 C 
HETATM    7  N   UNL     1      43.185 -10.345   8.110  1.00  0.00    -0.321 N 
HETATM    8  H   UNL     1      44.036 -10.828   7.858  1.00  0.00     0.169 HD
HETATM    9  O   UNL     1      41.059  -9.846   7.361  1.00  0.00    -0.265 OA
BRANCH   7  10
HETATM   10  C   UNL     1      43.170  -9.734   9.383  1.00  0.00     0.035 A 
HETATM   11  C   UNL     1      42.771  -8.413   9.605  1.00  0.00     0.039 A 
HETATM   12  C   UNL     1      42.757  -7.920  10.901  1.00  0.00    -0.022 A 
HETATM   13  C   UNL     1      43.131  -8.714  11.983  1.00  0.00    -0.025 A 
HETATM   14  C   UNL     1      42.323  -6.569  11.352  1.00  0.00     0.274 C 
HETATM   15  C   UNL     1      42.967  -7.965  13.261  1.00  0.00     0.273 C 
HETATM   16  C   UNL     1      43.544 -10.020  11.789  1.00  0.00     0.012 A 
HETATM   17  N   UNL     1      42.631  -6.536  12.845  1.00  0.00    -0.067 N 
HETATM   18  H   UNL     1      43.498  -5.997  12.943  1.00  0.00     0.280 HD
HETATM   19  C   UNL     1      41.571  -5.891  13.666  1.00  0.00     0.270 C 
HETATM   20  C   UNL     1      43.565 -10.524  10.482  1.00  0.00     0.030 A 
ENDBRANCH   7  10
ENDBRANCH   3   6
BRANCH   1  21
HETATM   21  C   UNL     1      42.017 -14.384   4.479  1.00  0.00     0.240 C 
BRANCH  21  22
HETATM   22  O   UNL     1      43.209 -15.149   4.627  1.00  0.00    -0.344 OA
BRANCH  22  23
HETATM   23  C   UNL     1      43.276 -16.344   3.958  1.00  0.00     0.075 A 
HETATM   24  C   UNL     1      43.840 -17.413   4.676  1.00  0.00    -0.028 A 
HETATM   25  C   UNL     1      43.974 -18.668   4.057  1.00  0.00     0.016 A 
HETATM   26  C   UNL     1      44.362 -17.227   6.075  1.00  0.00     0.051 C 
HETATM   27  C   UNL     1      43.542 -18.873   2.742  1.00  0.00    -0.061 A 
HETATM   28  C   UNL     1      43.656 -20.226   2.106  1.00  0.00     0.048 C 
HETATM   29  C   UNL     1      42.952 -17.812   2.053  1.00  0.00     0.009 A 
HETATM   30  C   UNL     1      42.825 -16.556   2.652  1.00  0.00     0.038 A 
ENDBRANCH  22  23
ENDBRANCH  21  22
ENDBRANCH   1  21
TORSDOF 5
ENDMDL
MODEL 5
REMARK VINA RESULT:      -8.4      2.872     11.191
REMARK  5 active torsions:
REMARK  status: ('A' for Active; 'I' for Inactive)
REMARK    1  A    between atoms: C_6  and  O_7 
REMARK    2  A    between atoms: O_7  and  C_8 
REMARK    3  A    between atoms: C_8  and  C_9 
REMARK    4  A    between atoms: C_11  and  C_12 
REMARK       I    between atoms: C_12  and  N_13 
REMARK    5  A    between atoms: N_13  and  C_14 
ROOT
HETATM    1  C   UNL     1      43.253 -10.121   7.257  1.00  0.00     0.078 A 
HETATM    2  O   UNL     1      43.695 -11.099   6.420  1.00  0.00    -0.307 OA
HETATM    3  C   UNL     1      42.645 -11.493   5.632  1.00  0.00     0.143 A 
HETATM    4  C   UNL     1      41.523 -10.762   5.988  1.00  0.00     0.045 A 
HETATM    5  C   UNL     1      41.915  -9.883   7.032  1.00  0.00     0.038 A 
ENDROOT
BRANCH   3   6
HETATM    6  C   UNL     1      42.908 -12.537   4.652  1.00  0.00     0.279 C 
HETATM    7  N   UNL     1      42.503 -13.810   5.041  1.00  0.00    -0.321 N 
HETATM    8  H   UNL     1      42.066 -13.887   5.949  1.00  0.00     0.169 HD
HETATM    9  O   UNL     1      43.455 -12.301   3.577  1.00  0.00    -0.265 OA
BRANCH   7  10
HETATM   10  C   UNL     1      42.666 -15.017   4.326  1.00  0.00     0.035 A 
HETATM   11  C   UNL     1      43.455 -16.081   4.769  1.00  0.00     0.039 A 
HETATM   12  C   UNL     1      43.517 -17.239   4.008  1.00  0.00    -0.022 A 
HETATM   13  C   UNL     1      42.811 -17.360   2.813  1.00  0.00    -0.025 A 
HETATM   14  C   UNL     1      44.255 -18.493   4.326  1.00  0.00     0.274 C 
HETATM   15  C   UNL     1      43.003 -18.719   2.230  1.00  0.00     0.273 C 
HETATM   16  C   UNL     1      42.034 -16.316   2.345  1.00  0.00     0.012 A 
HETATM   17  N   UNL     1      44.074 -19.377   3.096  1.00  0.00    -0.067 N 
HETATM   18  H   UNL     1      44.951 -19.311   2.569  1.00  0.00     0.280 HD
HETATM   19  C   UNL     1      43.812 -20.806   3.414  1.00  0.00     0.270 C 
HETATM   20  C   UNL     1      41.969 -15.142   3.106  1.00  0.00     0.030 A 
ENDBRANCH   7  10
ENDBRANCH   3   6
BRANCH   1  21
HETATM   21  C   UNL     1      44.254  -9.544   8.192  1.00  0.00     0.240 C 
BRANCH  21  22
HETATM   22  O   UNL     1      43.727  -8.290   8.615  1.00  0.00    -0.344 OA
BRANCH  22  23
HETATM   23  C   UNL     1      43.461  -8.138   9.952  1.00  0.00     0.075 A 
HETATM   24  C   UNL     1      42.742  -6.982  10.302  1.00  0.00    -0.028 A 
HETATM   25  C   UNL     1      42.450  -6.733  11.655  1.00  0.00     0.016 A 
HETATM   26  C   UNL     1      42.332  -5.972   9.267  1.00  0.00     0.051 C 
HETATM   27  C   UNL     1      42.851  -7.625  12.656  1.00  0.00    -0.061 A 
HETATM   28  C   UNL     1      42.501  -7.367  14.091  1.00  0.00     0.048 C 
HETATM   29  C   UNL     1      43.534  -8.786  12.289  1.00  0.00     0.009 A 
HETATM   30  C   UNL     1      43.843  -9.039  10.950  1.00  0.00     0.038 A 
ENDBRANCH  22  23
ENDBRANCH  21  22
ENDBRANCH   1  21
TORSDOF 5
ENDMDL
MODEL 6
REMARK VINA RESULT:      -8.4      6.365      9.575
REMARK  5 active torsions:
REMARK  status: ('A' for Active; 'I' for Inactive)
REMARK    1  A    between atoms: C_6  and  O_7 
REMARK    2  A    between atoms: O_7  and  C_8 
REMARK    3  A    between atoms: C_8  and  C_9 
REMARK    4  A    between atoms: C_11  and  C_12 
REMARK       I    between atoms: C_12  and  N_13 
REMARK    5  A    between atoms: N_13  and  C_14 
ROOT
HETATM    1  C   UNL     1      41.419 -14.336   5.341  1.00  0.00     0.078 A 
HETATM    2  O   UNL     1      41.223 -14.015   4.032  1.00  0.00    -0.307 OA
HETATM    3  C   UNL     1      40.190 -13.118   3.964  1.00  0.00     0.143 A 
HETATM    4  C   UNL     1      39.720 -12.882   5.246  1.00  0.00     0.045 A 
HETATM    5  C   UNL     1      40.510 -13.666   6.127  1.00  0.00     0.038 A 
ENDROOT
BRANCH   3   6
HETATM    6  C   UNL     1      39.819 -12.636   2.641  1.00  0.00     0.279 C 
HETATM    7  N   UNL     1      40.895 -12.377   1.797  1.00  0.00    -0.321 N 
HETATM    8  H   UNL     1      41.816 -12.549   2.175  1.00  0.00     0.169 HD
HETATM    9  O   UNL     1      38.647 -12.468   2.312  1.00  0.00    -0.265 OA
BRANCH   7  10
HETATM   10  C   UNL     1      40.848 -11.863   0.483  1.00  0.00     0.035 A 
HETATM   11  C   UNL     1      40.902 -10.499   0.181  1.00  0.00     0.039 A 
HETATM   12  C   UNL     1      40.888 -10.101  -1.148  1.00  0.00    -0.022 A 
HETATM   13  C   UNL     1      40.819 -11.031  -2.183  1.00  0.00    -0.025 A 
HETATM   14  C   UNL     1      40.986  -8.713  -1.678  1.00  0.00     0.274 C 
HETATM   15  C   UNL     1      40.880 -10.344  -3.505  1.00  0.00     0.273 C 
HETATM   16  C   UNL     1      40.750 -12.385  -1.911  1.00  0.00     0.012 A 
HETATM   17  N   UNL     1      40.796  -8.854  -3.185  1.00  0.00    -0.067 N 
HETATM   18  H   UNL     1      39.829  -8.573  -3.376  1.00  0.00     0.280 HD
HETATM   19  C   UNL     1      41.711  -8.001  -3.991  1.00  0.00     0.270 C 
HETATM   20  C   UNL     1      40.760 -12.795  -0.571  1.00  0.00     0.030 A 
ENDBRANCH   7  10
ENDBRANCH   3   6
BRANCH   1  21
HETATM   21  C   UNL     1      42.518 -15.295   5.632  1.00  0.00     0.240 C 
BRANCH  21  22
HETATM   22  O   UNL     1      43.269 -15.418   4.429  1.00  0.00    -0.344 OA
BRANCH  22  23
HETATM   23  C   UNL     1      43.415 -16.676   3.903  1.00  0.00     0.075 A 
HETATM   24  C   UNL     1      43.141 -16.798   2.530  1.00  0.00    -0.028 A 
HETATM   25  C   UNL     1      43.238 -18.059   1.916  1.00  0.00     0.016 A 
HETATM   26  C   UNL     1      42.685 -15.619   1.715  1.00  0.00     0.051 C 
HETATM   27  C   UNL     1      43.616 -19.191   2.646  1.00  0.00    -0.061 A 
HETATM   28  C   UNL     1      43.753 -20.522   1.970  1.00  0.00     0.048 C 
HETATM   29  C   UNL     1      43.919 -19.048   4.001  1.00  0.00     0.009 A 
HETATM   30  C   UNL     1      43.814 -17.803   4.628  1.00  0.00     0.038 A 
ENDBRANCH  22  23
ENDBRANCH  21  22
ENDBRANCH   1  21
TORSDOF 5
ENDMDL
MODEL 7
REMARK VINA RESULT:      -8.4      7.341     10.221
REMARK  5 active torsions:
REMARK  status: ('A' for Active; 'I' for Inactive)
REMARK    1  A    between atoms: C_6  and  O_7 
REMARK    2  A    between atoms: O_7  and  C_8 
REMARK    3  A    between atoms: C_8  and  C_9 
REMARK    4  A    between atoms: C_11  and  C_12 
REMARK       I    between atoms: C_12  and  N_13 
REMARK    5  A    between atoms: N_13  and  C_14 
ROOT
HETATM    1  C   UNL     1      41.150 -14.824   3.576  1.00  0.00     0.078 A 
HETATM    2  O   UNL     1      41.050 -13.709   2.802  1.00  0.00    -0.307 OA
HETATM    3  C   UNL     1      40.101 -13.940   1.840  1.00  0.00     0.143 A 
HETATM    4  C   UNL     1      39.607 -15.224   2.003  1.00  0.00     0.045 A 
HETATM    5  C   UNL     1      40.282 -15.790   3.117  1.00  0.00     0.038 A 
ENDROOT
BRANCH   3   6
HETATM    6  C   UNL     1      39.834 -12.859   0.902  1.00  0.00     0.279 C 
HETATM    7  N   UNL     1      40.873 -12.594   0.014  1.00  0.00    -0.321 N 
HETATM    8  H   UNL     1      41.698 -13.171   0.101  1.00  0.00     0.169 HD
HETATM    9  O   UNL     1      38.776 -12.234   0.911  1.00  0.00    -0.265 OA
BRANCH   7  10
HETATM   10  C   UNL     1      40.920 -11.583  -0.971  1.00  0.00     0.035 A 
HETATM   11  C   UNL     1      41.520 -10.337  -0.775  1.00  0.00     0.039 A 
HETATM   12  C   UNL     1      41.546  -9.428  -1.822  1.00  0.00    -0.022 A 
HETATM   13  C   UNL     1      40.985  -9.732  -3.061  1.00  0.00    -0.025 A 
HETATM   14  C   UNL     1      42.173  -8.077  -1.835  1.00  0.00     0.274 C 
HETATM   15  C   UNL     1      41.202  -8.612  -4.021  1.00  0.00     0.273 C 
HETATM   16  C   UNL     1      40.372 -10.953  -3.276  1.00  0.00     0.012 A 
HETATM   17  N   UNL     1      41.793  -7.480  -3.185  1.00  0.00    -0.067 N 
HETATM   18  H   UNL     1      41.024  -6.828  -3.000  1.00  0.00     0.280 HD
HETATM   19  C   UNL     1      42.900  -6.741  -3.851  1.00  0.00     0.270 C 
HETATM   20  C   UNL     1      40.339 -11.876  -2.222  1.00  0.00     0.030 A 
ENDBRANCH   7  10
ENDBRANCH   3   6
BRANCH   1  21
HETATM   21  C   UNL     1      42.124 -14.771   4.697  1.00  0.00     0.240 C 
BRANCH  21  22
HETATM   22  O   UNL     1      43.318 -15.382   4.217  1.00  0.00    -0.344 OA
BRANCH  22  23
HETATM   23  C   UNL     1      43.512 -16.705   4.520  1.00  0.00     0.075 A 
HETATM   24  C   UNL     1      43.628 -17.571   3.419  1.00  0.00    -0.028 A 
HETATM   25  C   UNL     1      43.801 -18.949   3.638  1.00  0.00     0.016 A 
HETATM   26  C   UNL     1      43.508 -17.064   2.008  1.00  0.00     0.051 C 
HETATM   27  C   UNL     1      43.873 -19.470   4.935  1.00  0.00    -0.061 A 
HETATM   28  C   UNL     1      44.096 -20.936   5.155  1.00  0.00     0.048 C 
HETATM   29  C   UNL     1      43.792 -18.593   6.019  1.00  0.00     0.009 A 
HETATM   30  C   UNL     1      43.607 -17.224   5.815  1.00  0.00     0.038 A 
ENDBRANCH  22  23
ENDBRANCH  21  22
ENDBRANCH   1  21
TORSDOF 5
ENDMDL
MODEL 8
REMARK VINA RESULT:      -8.2      2.444      4.377
REMARK  5 active torsions:
REMARK  status: ('A' for Active; 'I' for Inactive)
REMARK    1  A    between atoms: C_6  and  O_7 
REMARK    2  A    between atoms: O_7  and  C_8 
REMARK    3  A    between atoms: C_8  and  C_9 
REMARK    4  A    between atoms: C_11  and  C_12 
REMARK       I    between atoms: C_12  and  N_13 
REMARK    5  A    between atoms: N_13  and  C_14 
ROOT
HETATM    1  C   UNL     1      41.111 -14.051   2.214  1.00  0.00     0.078 A 
HETATM    2  O   UNL     1      41.864 -13.381   3.130  1.00  0.00    -0.307 OA
HETATM    3  C   UNL     1      41.370 -12.106   3.236  1.00  0.00     0.143 A 
HETATM    4  C   UNL     1      40.302 -11.969   2.364  1.00  0.00     0.045 A 
HETATM    5  C   UNL     1      40.138 -13.218   1.709  1.00  0.00     0.038 A 
ENDROOT
BRANCH   3   6
HETATM    6  C   UNL     1      42.036 -11.217   4.176  1.00  0.00     0.279 C 
HETATM    7  N   UNL     1      42.487 -11.836   5.339  1.00  0.00    -0.321 N 
HETATM    8  H   UNL     1      42.317 -12.830   5.415  1.00  0.00     0.169 HD
HETATM    9  O   UNL     1      42.172 -10.016   3.955  1.00  0.00    -0.265 OA
BRANCH   7  10
HETATM   10  C   UNL     1      43.123 -11.227   6.442  1.00  0.00     0.035 A 
HETATM   11  C   UNL     1      42.479 -10.353   7.323  1.00  0.00     0.039 A 
HETATM   12  C   UNL     1      43.186  -9.838   8.400  1.00  0.00    -0.022 A 
HETATM   13  C   UNL     1      44.520 -10.174   8.619  1.00  0.00    -0.025 A 
HETATM   14  C   UNL     1      42.675  -8.938   9.471  1.00  0.00     0.274 C 
HETATM   15  C   UNL     1      45.019  -9.536   9.871  1.00  0.00     0.273 C 
HETATM   16  C   UNL     1      45.184 -11.025   7.754  1.00  0.00     0.012 A 
HETATM   17  N   UNL     1      43.900  -8.597  10.313  1.00  0.00    -0.067 N 
HETATM   18  H   UNL     1      44.186  -7.654  10.027  1.00  0.00     0.280 HD
HETATM   19  C   UNL     1      43.644  -8.596  11.778  1.00  0.00     0.270 C 
HETATM   20  C   UNL     1      44.479 -11.546   6.662  1.00  0.00     0.030 A 
ENDBRANCH   7  10
ENDBRANCH   3   6
BRANCH   1  21
HETATM   21  C   UNL     1      41.478 -15.469   1.963  1.00  0.00     0.240 C 
BRANCH  21  22
HETATM   22  O   UNL     1      42.825 -15.616   2.401  1.00  0.00    -0.344 OA
BRANCH  22  23
HETATM   23  C   UNL     1      43.183 -16.826   2.939  1.00  0.00     0.075 A 
HETATM   24  C   UNL     1      43.401 -16.835   4.327  1.00  0.00    -0.028 A 
HETATM   25  C   UNL     1      43.798 -18.027   4.957  1.00  0.00     0.016 A 
HETATM   26  C   UNL     1      43.278 -15.580   5.147  1.00  0.00     0.051 C 
HETATM   27  C   UNL     1      43.968 -19.208   4.226  1.00  0.00    -0.061 A 
HETATM   28  C   UNL     1      44.355 -20.482   4.915  1.00  0.00     0.048 C 
HETATM   29  C   UNL     1      43.714 -19.192   2.853  1.00  0.00     0.009 A 
HETATM   30  C   UNL     1      43.331 -18.011   2.212  1.00  0.00     0.038 A 
ENDBRANCH  22  23
ENDBRANCH  21  22
ENDBRANCH   1  21
TORSDOF 5
ENDMDL
MODEL 9
REMARK VINA RESULT:      -7.9      3.304     10.955
REMARK  5 active torsions:
REMARK  status: ('A' for Active; 'I' for Inactive)
REMARK    1  A    between atoms: C_6  and  O_7 
REMARK    2  A    between atoms: O_7  and  C_8 
REMARK    3  A    between atoms: C_8  and  C_9 
REMARK    4  A    between atoms: C_11  and  C_12 
REMARK       I    between atoms: C_12  and  N_13 
REMARK    5  A    between atoms: N_13  and  C_14 
ROOT
HETATM    1  C   UNL     1      43.678 -10.077   8.106  1.00  0.00     0.078 A 
HETATM    2  O   UNL     1      43.097 -10.407   6.920  1.00  0.00    -0.307 OA
HETATM    3  C   UNL     1      43.961 -11.223   6.236  1.00  0.00     0.143 A 
HETATM    4  C   UNL     1      45.105 -11.397   6.996  1.00  0.00     0.045 A 
HETATM    5  C   UNL     1      44.922 -10.660   8.196  1.00  0.00     0.038 A 
ENDROOT
BRANCH   3   6
HETATM    6  C   UNL     1      43.525 -11.700   4.931  1.00  0.00     0.279 C 
HETATM    7  N   UNL     1      42.411 -12.534   4.962  1.00  0.00    -0.321 N 
HETATM    8  H   UNL     1      42.014 -12.721   5.872  1.00  0.00     0.169 HD
HETATM    9  O   UNL     1      44.109 -11.391   3.895  1.00  0.00    -0.265 OA
BRANCH   7  10
HETATM   10  C   UNL     1      41.794 -13.179   3.868  1.00  0.00     0.035 A 
HETATM   11  C   UNL     1      41.064 -12.508   2.883  1.00  0.00     0.039 A 
HETATM   12  C   UNL     1      40.530 -13.233   1.827  1.00  0.00    -0.022 A 
HETATM   13  C   UNL     1      40.706 -14.612   1.732  1.00  0.00    -0.025 A 
HETATM   14  C   UNL     1      39.769 -12.706   0.661  1.00  0.00     0.274 C 
HETATM   15  C   UNL     1      40.087 -15.130   0.478  1.00  0.00     0.273 C 
HETATM   16  C   UNL     1      41.411 -15.301   2.701  1.00  0.00     0.012 A 
HETATM   17  N   UNL     1      39.327 -13.945  -0.111  1.00  0.00    -0.067 N 
HETATM   18  H   UNL     1      38.340 -14.090   0.128  1.00  0.00     0.280 HD
HETATM   19  C   UNL     1      39.448 -13.812  -1.587  1.00  0.00     0.270 C 
HETATM   20  C   UNL     1      41.951 -14.577   3.773  1.00  0.00     0.030 A 
ENDBRANCH   7  10
ENDBRANCH   3   6
BRANCH   1  21
HETATM   21  C   UNL     1      42.888  -9.201   9.011  1.00  0.00     0.240 C 
BRANCH  21  22
HETATM   22  O   UNL     1      42.672  -9.951  10.203  1.00  0.00    -0.344 OA
BRANCH  22  23
HETATM   23  C   UNL     1      42.569  -9.250  11.377  1.00  0.00     0.075 A 
HETATM   24  C   UNL     1      41.295  -9.237  11.969  1.00  0.00    -0.028 A 
HETATM   25  C   UNL     1      41.093  -8.519  13.160  1.00  0.00     0.016 A 
HETATM   26  C   UNL     1      40.125  -9.925  11.322  1.00  0.00     0.051 C 
HETATM   27  C   UNL     1      42.144  -7.828  13.774  1.00  0.00    -0.061 A 
HETATM   28  C   UNL     1      41.925  -7.098  15.065  1.00  0.00     0.048 C 
HETATM   29  C   UNL     1      43.413  -7.879  13.193  1.00  0.00     0.009 A 
HETATM   30  C   UNL     1      43.624  -8.578  12.002  1.00  0.00     0.038 A 
ENDBRANCH  22  23
ENDBRANCH  21  22
ENDBRANCH   1  21
TORSDOF 5
ENDMDL
MODEL 10
REMARK VINA RESULT:      -7.9     19.253     20.442
REMARK  5 active torsions:
REMARK  status: ('A' for Active; 'I' for Inactive)
REMARK    1  A    between atoms: C_6  and  O_7 
REMARK    2  A    between atoms: O_7  and  C_8 
REMARK    3  A    between atoms: C_8  and  C_9 
REMARK    4  A    between atoms: C_11  and  C_12 
REMARK       I    between atoms: C_12  and  N_13 
REMARK    5  A    between atoms: N_13  and  C_14 
ROOT
HETATM    1  C   UNL     1      46.168 -28.514  -0.213  1.00  0.00     0.078 A 
HETATM    2  O   UNL     1      45.240 -28.785   0.746  1.00  0.00    -0.307 OA
HETATM    3  C   UNL     1      44.051 -29.060   0.124  1.00  0.00     0.143 A 
HETATM    4  C   UNL     1      44.229 -28.947  -1.245  1.00  0.00     0.045 A 
HETATM    5  C   UNL     1      45.588 -28.596  -1.459  1.00  0.00     0.038 A 
ENDROOT
BRANCH   3   6
HETATM    6  C   UNL     1      42.917 -29.384   0.978  1.00  0.00     0.279 C 
HETATM    7  N   UNL     1      43.042 -30.584   1.673  1.00  0.00    -0.321 N 
HETATM    8  H   UNL     1      43.895 -31.104   1.526  1.00  0.00     0.169 HD
HETATM    9  O   UNL     1      41.932 -28.654   1.061  1.00  0.00    -0.265 OA
BRANCH   7  10
HETATM   10  C   UNL     1      42.093 -31.176   2.535  1.00  0.00     0.035 A 
HETATM   11  C   UNL     1      42.258 -31.278   3.919  1.00  0.00     0.039 A 
HETATM   12  C   UNL     1      41.246 -31.844   4.680  1.00  0.00    -0.022 A 
HETATM   13  C   UNL     1      40.072 -32.313   4.093  1.00  0.00    -0.025 A 
HETATM   14  C   UNL     1      41.206 -32.000   6.160  1.00  0.00     0.274 C 
HETATM   15  C   UNL     1      39.133 -32.813   5.136  1.00  0.00     0.273 C 
HETATM   16  C   UNL     1      39.890 -32.237   2.724  1.00  0.00     0.012 A 
HETATM   17  N   UNL     1      39.930 -32.788   6.437  1.00  0.00    -0.067 N 
HETATM   18  H   UNL     1      40.226 -33.755   6.611  1.00  0.00     0.280 HD
HETATM   19  C   UNL     1      39.165 -32.302   7.616  1.00  0.00     0.270 C 
HETATM   20  C   UNL     1      40.909 -31.669   1.948  1.00  0.00     0.030 A 
ENDBRANCH   7  10
ENDBRANCH   3   6
BRANCH   1  21
HETATM   21  C   UNL     1      47.542 -28.203   0.260  1.00  0.00     0.240 C 
BRANCH  21  22
HETATM   22  O   UNL     1      48.219 -29.452   0.365  1.00  0.00    -0.344 OA
BRANCH  22  23
HETATM   23  C   UNL     1      48.871 -29.717   1.542  1.00  0.00     0.075 A 
HETATM   24  C   UNL     1      50.124 -30.341   1.417  1.00  0.00    -0.028 A 
HETATM   25  C   UNL     1      50.848 -30.674   2.575  1.00  0.00     0.016 A 
HETATM   26  C   UNL     1      50.680 -30.718   0.072  1.00  0.00     0.051 C 
HETATM   27  C   UNL     1      50.348 -30.382   3.849  1.00  0.00    -0.061 A 
HETATM   28  C   UNL     1      51.147 -30.708   5.075  1.00  0.00     0.048 C 
HETATM   29  C   UNL     1      49.118 -29.730   3.956  1.00  0.00     0.009 A 
HETATM   30  C   UNL     1      48.382 -29.405   2.814  1.00  0.00     0.038 A 
ENDBRANCH  22  23
ENDBRANCH  21  22
ENDBRANCH   1  21
TORSDOF 5
ENDMDL
