MODEL 1
REMARK VINA RESULT:      -8.8      0.000      0.000
REMARK  9 active torsions:
REMARK  status: ('A' for Active; 'I' for Inactive)
REMARK    1  A    between atoms: C_3  and  C_4 
REMARK    2  A    between atoms: C_4  and  C_5 
REMARK       I    between atoms: C_5  and  N_6 
REMARK    3  A    between atoms: N_6  and  C_7 
REMARK    4  A    between atoms: C_7  and  C_8 
REMARK    5  A    between atoms: C_17  and  N_18 
REMARK       I    between atoms: N_18  and  C_19 
REMARK    6  A    between atoms: C_19  and  C_20 
REMARK    7  A    between atoms: C_28  and  C_29 
REMARK    8  A    between atoms: C_29  and  O_30 
REMARK    9  A    between atoms: C_32  and  O_33 
ROOT
HETATM    1  C   UNL     1      38.932 -11.728   4.979  1.00  0.00     0.016 C 
HETATM    2  C   UNL     1      40.067 -11.566   3.918  1.00  0.00    -0.030 C 
HETATM    3  C   UNL     1      41.398 -12.279   4.436  1.00  0.00     0.056 C 
HETATM    4  C   UNL     1      41.337 -13.773   4.183  1.00  0.00     0.056 C 
HETATM    5  C   UNL     1      40.348 -14.390   3.442  1.00  0.00     0.012 C 
HETATM    6  S   UNL     1      40.618 -16.069   3.372  1.00  0.00    -0.055 SA
HETATM    7  C   UNL     1      42.156 -15.803   4.064  1.00  0.00     0.173 C 
HETATM    8  N   UNL     1      42.389 -14.602   4.534  1.00  0.00    -0.227 NA
HETATM    9  C   UNL     1      39.234 -13.712   2.731  1.00  0.00     0.055 C 
HETATM   10  C   UNL     1      39.558 -12.202   2.554  1.00  0.00     0.012 C 
HETATM   11  C   UNL     1      40.412 -11.832   1.257  1.00  0.00     0.008 C 
HETATM   12  C   UNL     1      39.421 -11.847   0.054  1.00  0.00     0.020 C 
HETATM   13  C   UNL     1      40.984 -10.383   1.362  1.00  0.00     0.128 C 
HETATM   14  C   UNL     1      40.189  -9.514   2.326  1.00  0.00     0.033 C 
HETATM   15  C   UNL     1      40.304 -10.030   3.759  1.00  0.00     0.013 C 
ENDROOT
BRANCH   3  16
HETATM   16  C   UNL     1      41.697 -11.965   5.913  1.00  0.00     0.114 C 
BRANCH  16  17
HETATM   17  C   UNL     1      43.065 -11.355   6.137  1.00  0.00     0.218 C 
HETATM   18  N   UNL     1      43.687 -11.768   7.285  1.00  0.00    -0.355 N 
HETATM   19  H   UNL     1      43.488 -12.725   7.579  1.00  0.00     0.162 HD
HETATM   20  O   UNL     1      43.529 -10.520   5.364  1.00  0.00    -0.274 OA
BRANCH  18  21
HETATM   21  C   UNL     1      44.973 -11.237   7.668  1.00  0.00     0.187 C 
BRANCH  21  22
HETATM   22  C   UNL     1      44.836 -10.556   8.981  1.00  0.00     0.070 A 
HETATM   23  O   UNL     1      44.042 -11.163   9.913  1.00  0.00    -0.325 OA
HETATM   24  C   UNL     1      44.060 -10.380  11.022  1.00  0.00     0.142 A 
HETATM   25  C   UNL     1      44.850  -9.273  10.820  1.00  0.00     0.027 A 
HETATM   26  C   UNL     1      45.346  -9.382   9.499  1.00  0.00     0.036 A 
ENDBRANCH  21  22
ENDBRANCH  18  21
ENDBRANCH  16  17
ENDBRANCH   3  16
BRANCH  11  27
HETATM   27  C   UNL     1      41.577 -12.795   0.898  1.00  0.00     0.176 C 
BRANCH  27  28
HETATM   28  O   UNL     1      41.235 -13.712  -0.135  1.00  0.00    -0.400 OA
HETATM   29  H   UNL     1      41.050 -13.171  -0.922  1.00  0.00     0.209 HD
ENDBRANCH  27  28
ENDBRANCH  11  27
BRANCH   7  30
HETATM   30  N   UNL     1      42.985 -16.881   3.940  1.00  0.00    -0.305 N 
HETATM   31  C   UNL     1      43.507 -17.259   2.722  1.00  0.00     0.227 C 
HETATM   32  O   UNL     1      43.513 -16.556   1.708  1.00  0.00    -0.273 OA
HETATM   33  H   UNL     1      42.955 -17.534   4.707  1.00  0.00     0.171 HD
BRANCH  31  34
HETATM   34  C   UNL     1      44.066 -18.707   2.714  1.00  0.00     0.078 C 
HETATM   35  C   UNL     1      44.071 -19.556   4.021  1.00  0.00     0.014 C 
HETATM   36  C   UNL     1      43.739 -20.784   3.155  1.00  0.00     0.002 C 
HETATM   37  C   UNL     1      43.124 -19.807   2.137  1.00  0.00     0.014 C 
ENDBRANCH  31  34
ENDBRANCH   7  30
BRANCH  13  38
HETATM   38  O   UNL     1      42.346 -10.402   1.789  1.00  0.00    -0.395 OA
HETATM   39  H   UNL     1      42.404  -9.932   2.641  1.00  0.00     0.210 HD
ENDBRANCH  13  38
TORSDOF 9
ENDMDL
MODEL 2
REMARK VINA RESULT:      -8.8      3.043      8.541
REMARK  9 active torsions:
REMARK  status: ('A' for Active; 'I' for Inactive)
REMARK    1  A    between atoms: C_3  and  C_4 
REMARK    2  A    between atoms: C_4  and  C_5 
REMARK       I    between atoms: C_5  and  N_6 
REMARK    3  A    between atoms: N_6  and  C_7 
REMARK    4  A    between atoms: C_7  and  C_8 
REMARK    5  A    between atoms: C_17  and  N_18 
REMARK       I    between atoms: N_18  and  C_19 
REMARK    6  A    between atoms: C_19  and  C_20 
REMARK    7  A    between atoms: C_28  and  C_29 
REMARK    8  A    between atoms: C_29  and  O_30 
REMARK    9  A    between atoms: C_32  and  O_33 
ROOT
HETATM    1  C   UNL     1      43.579 -11.984   3.990  1.00  0.00     0.016 C 
HETATM    2  C   UNL     1      42.354 -12.267   4.917  1.00  0.00    -0.030 C 
HETATM    3  C   UNL     1      42.861 -12.682   6.372  1.00  0.00     0.056 C 
HETATM    4  C   UNL     1      43.224 -11.453   7.182  1.00  0.00     0.056 C 
HETATM    5  C   UNL     1      42.971 -10.157   6.773  1.00  0.00     0.012 C 
HETATM    6  S   UNL     1      43.512  -9.047   7.945  1.00  0.00    -0.055 SA
HETATM    7  C   UNL     1      43.759 -10.362   9.006  1.00  0.00     0.173 C 
HETATM    8  N   UNL     1      43.676 -11.561   8.486  1.00  0.00    -0.227 NA
HETATM    9  C   UNL     1      42.264  -9.753   5.531  1.00  0.00     0.055 C 
HETATM   10  C   UNL     1      41.459 -10.956   4.963  1.00  0.00     0.012 C 
HETATM   11  C   UNL     1      39.990 -11.140   5.560  1.00  0.00     0.008 C 
HETATM   12  C   UNL     1      39.086 -10.089   4.848  1.00  0.00     0.020 C 
HETATM   13  C   UNL     1      39.419 -12.550   5.208  1.00  0.00     0.128 C 
HETATM   14  C   UNL     1      40.095 -13.161   3.989  1.00  0.00     0.033 C 
HETATM   15  C   UNL     1      41.571 -13.450   4.261  1.00  0.00     0.013 C 
ENDROOT
BRANCH   3  16
HETATM   16  C   UNL     1      44.021 -13.693   6.325  1.00  0.00     0.114 C 
BRANCH  16  17
HETATM   17  C   UNL     1      43.581 -15.128   6.536  1.00  0.00     0.218 C 
HETATM   18  N   UNL     1      44.302 -16.050   5.825  1.00  0.00    -0.355 N 
HETATM   19  H   UNL     1      45.285 -15.823   5.670  1.00  0.00     0.162 HD
HETATM   20  O   UNL     1      42.620 -15.405   7.248  1.00  0.00    -0.274 OA
BRANCH  18  21
HETATM   21  C   UNL     1      43.972 -17.453   5.875  1.00  0.00     0.187 C 
BRANCH  21  22
HETATM   22  C   UNL     1      43.705 -17.931   4.494  1.00  0.00     0.070 A 
HETATM   23  O   UNL     1      44.234 -19.142   4.145  1.00  0.00    -0.325 OA
HETATM   24  C   UNL     1      43.872 -19.379   2.858  1.00  0.00     0.142 A 
HETATM   25  C   UNL     1      43.120 -18.338   2.369  1.00  0.00     0.027 A 
HETATM   26  C   UNL     1      43.018 -17.399   3.422  1.00  0.00     0.036 A 
ENDBRANCH  21  22
ENDBRANCH  18  21
ENDBRANCH  16  17
ENDBRANCH   3  16
BRANCH  11  27
HETATM   27  C   UNL     1      39.832 -10.914   7.089  1.00  0.00     0.176 C 
BRANCH  27  28
HETATM   28  O   UNL     1      38.485 -11.045   7.528  1.00  0.00    -0.400 OA
HETATM   29  H   UNL     1      38.530 -11.458   8.409  1.00  0.00     0.209 HD
ENDBRANCH  27  28
ENDBRANCH  11  27
BRANCH   7  30
HETATM   30  N   UNL     1      43.918  -9.969  10.305  1.00  0.00    -0.305 N 
HETATM   31  C   UNL     1      42.848  -9.588  11.084  1.00  0.00     0.227 C 
HETATM   32  O   UNL     1      41.664  -9.803  10.811  1.00  0.00    -0.273 OA
HETATM   33  H   UNL     1      44.855  -9.700  10.558  1.00  0.00     0.171 HD
BRANCH  31  34
HETATM   34  C   UNL     1      43.261  -8.798  12.355  1.00  0.00     0.078 C 
HETATM   35  C   UNL     1      42.821  -7.314  12.537  1.00  0.00     0.014 C 
HETATM   36  C   UNL     1      42.648  -7.610  14.036  1.00  0.00     0.002 C 
HETATM   37  C   UNL     1      42.434  -9.083  13.645  1.00  0.00     0.014 C 
ENDBRANCH  31  34
ENDBRANCH   7  30
BRANCH  13  38
HETATM   38  O   UNL     1      39.570 -13.450   6.307  1.00  0.00    -0.395 OA
HETATM   39  H   UNL     1      40.235 -14.120   6.063  1.00  0.00     0.210 HD
ENDBRANCH  13  38
TORSDOF 9
ENDMDL
MODEL 3
REMARK VINA RESULT:      -8.2      4.106      8.949
REMARK  9 active torsions:
REMARK  status: ('A' for Active; 'I' for Inactive)
REMARK    1  A    between atoms: C_3  and  C_4 
REMARK    2  A    between atoms: C_4  and  C_5 
REMARK       I    between atoms: C_5  and  N_6 
REMARK    3  A    between atoms: N_6  and  C_7 
REMARK    4  A    between atoms: C_7  and  C_8 
REMARK    5  A    between atoms: C_17  and  N_18 
REMARK       I    between atoms: N_18  and  C_19 
REMARK    6  A    between atoms: C_19  and  C_20 
REMARK    7  A    between atoms: C_28  and  C_29 
REMARK    8  A    between atoms: C_29  and  O_30 
REMARK    9  A    between atoms: C_32  and  O_33 
ROOT
HETATM    1  C   UNL     1      42.327  -5.658  10.900  1.00  0.00     0.016 C 
HETATM    2  C   UNL     1      41.384  -6.843  11.285  1.00  0.00    -0.030 C 
HETATM    3  C   UNL     1      41.138  -7.773  10.012  1.00  0.00     0.056 C 
HETATM    4  C   UNL     1      42.300  -8.727   9.815  1.00  0.00     0.056 C 
HETATM    5  C   UNL     1      43.330  -8.885  10.721  1.00  0.00     0.012 C 
HETATM    6  S   UNL     1      44.443 -10.044  10.160  1.00  0.00    -0.055 SA
HETATM    7  C   UNL     1      43.330 -10.448   8.930  1.00  0.00     0.173 C 
HETATM    8  N   UNL     1      42.304  -9.647   8.779  1.00  0.00    -0.227 NA
HETATM    9  C   UNL     1      43.448  -8.212  12.040  1.00  0.00     0.055 C 
HETATM   10  C   UNL     1      42.066  -7.647  12.472  1.00  0.00     0.012 C 
HETATM   11  C   UNL     1      41.119  -8.672  13.248  1.00  0.00     0.008 C 
HETATM   12  C   UNL     1      41.645  -8.740  14.713  1.00  0.00     0.020 C 
HETATM   13  C   UNL     1      39.653  -8.137  13.311  1.00  0.00     0.128 C 
HETATM   14  C   UNL     1      39.580  -6.626  13.145  1.00  0.00     0.033 C 
HETATM   15  C   UNL     1      40.039  -6.200  11.751  1.00  0.00     0.013 C 
ENDROOT
BRANCH   3  16
HETATM   16  C   UNL     1      40.846  -6.962   8.736  1.00  0.00     0.114 C 
BRANCH  16  17
HETATM   17  C   UNL     1      39.684  -7.502   7.928  1.00  0.00     0.218 C 
HETATM   18  N   UNL     1      40.051  -8.217   6.820  1.00  0.00    -0.355 N 
HETATM   19  H   UNL     1      40.922  -8.744   6.898  1.00  0.00     0.162 HD
HETATM   20  O   UNL     1      38.521  -7.256   8.236  1.00  0.00    -0.274 OA
BRANCH  18  21
HETATM   21  C   UNL     1      39.062  -8.752   5.917  1.00  0.00     0.187 C 
BRANCH  21  22
HETATM   22  C   UNL     1      39.296 -10.211   5.762  1.00  0.00     0.070 A 
HETATM   23  O   UNL     1      39.245 -10.714   4.492  1.00  0.00    -0.325 OA
HETATM   24  C   UNL     1      39.484 -12.048   4.582  1.00  0.00     0.142 A 
HETATM   25  C   UNL     1      39.686 -12.415   5.891  1.00  0.00     0.027 A 
HETATM   26  C   UNL     1      39.557 -11.231   6.654  1.00  0.00     0.036 A 
ENDBRANCH  21  22
ENDBRANCH  18  21
ENDBRANCH  16  17
ENDBRANCH   3  16
BRANCH  11  27
HETATM   27  C   UNL     1      41.088 -10.128  12.707  1.00  0.00     0.176 C 
BRANCH  27  28
HETATM   28  O   UNL     1      40.126 -10.941  13.372  1.00  0.00    -0.400 OA
HETATM   29  H   UNL     1      40.636 -11.593  13.883  1.00  0.00     0.209 HD
ENDBRANCH  27  28
ENDBRANCH  11  27
BRANCH   7  30
HETATM   30  N   UNL     1      43.622 -11.636   8.322  1.00  0.00    -0.305 N 
HETATM   31  C   UNL     1      44.334 -11.691   7.144  1.00  0.00     0.227 C 
HETATM   32  O   UNL     1      44.989 -10.759   6.671  1.00  0.00    -0.273 OA
HETATM   33  H   UNL     1      43.055 -12.416   8.613  1.00  0.00     0.171 HD
BRANCH  31  34
HETATM   34  C   UNL     1      44.205 -13.053   6.410  1.00  0.00     0.078 C 
HETATM   35  C   UNL     1      43.300 -14.180   6.994  1.00  0.00     0.014 C 
HETATM   36  C   UNL     1      42.915 -14.539   5.549  1.00  0.00     0.002 C 
HETATM   37  C   UNL     1      43.255 -13.085   5.175  1.00  0.00     0.014 C 
ENDBRANCH  31  34
ENDBRANCH   7  30
BRANCH  13  38
HETATM   38  O   UNL     1      38.846  -8.742  12.300  1.00  0.00    -0.395 OA
HETATM   39  H   UNL     1      38.704  -9.675  12.543  1.00  0.00     0.210 HD
ENDBRANCH  13  38
TORSDOF 9
ENDMDL
MODEL 4
REMARK VINA RESULT:      -8.2      2.596      6.718
REMARK  9 active torsions:
REMARK  status: ('A' for Active; 'I' for Inactive)
REMARK    1  A    between atoms: C_3  and  C_4 
REMARK    2  A    between atoms: C_4  and  C_5 
REMARK       I    between atoms: C_5  and  N_6 
REMARK    3  A    between atoms: N_6  and  C_7 
REMARK    4  A    between atoms: C_7  and  C_8 
REMARK    5  A    between atoms: C_17  and  N_18 
REMARK       I    between atoms: N_18  and  C_19 
REMARK    6  A    between atoms: C_19  and  C_20 
REMARK    7  A    between atoms: C_28  and  C_29 
REMARK    8  A    between atoms: C_29  and  O_30 
REMARK    9  A    between atoms: C_32  and  O_33 
ROOT
HETATM    1  C   UNL     1      40.277 -13.673   6.428  1.00  0.00     0.016 C 
HETATM    2  C   UNL     1      41.436 -13.103   5.549  1.00  0.00    -0.030 C 
HETATM    3  C   UNL     1      41.798 -14.141   4.392  1.00  0.00     0.056 C 
HETATM    4  C   UNL     1      40.824 -14.015   3.237  1.00  0.00     0.056 C 
HETATM    5  C   UNL     1      39.877 -13.014   3.133  1.00  0.00     0.012 C 
HETATM    6  S   UNL     1      38.975 -13.196   1.701  1.00  0.00    -0.055 SA
HETATM    7  C   UNL     1      40.093 -14.387   1.204  1.00  0.00     0.173 C 
HETATM    8  N   UNL     1      40.947 -14.804   2.106  1.00  0.00    -0.227 NA
HETATM    9  C   UNL     1      39.690 -11.883   4.076  1.00  0.00     0.055 C 
HETATM   10  C   UNL     1      40.961 -11.709   4.954  1.00  0.00     0.012 C 
HETATM   11  C   UNL     1      42.111 -10.798   4.324  1.00  0.00     0.008 C 
HETATM   12  C   UNL     1      41.665  -9.318   4.526  1.00  0.00     0.020 C 
HETATM   13  C   UNL     1      43.454 -10.983   5.098  1.00  0.00     0.128 C 
HETATM   14  C   UNL     1      43.242 -11.500   6.513  1.00  0.00     0.033 C 
HETATM   15  C   UNL     1      42.658 -12.912   6.504  1.00  0.00     0.013 C 
ENDROOT
BRANCH   3  16
HETATM   16  C   UNL     1      41.884 -15.590   4.906  1.00  0.00     0.114 C 
BRANCH  16  17
HETATM   17  C   UNL     1      43.136 -16.317   4.460  1.00  0.00     0.218 C 
HETATM   18  N   UNL     1      42.966 -17.110   3.357  1.00  0.00    -0.355 N 
HETATM   19  H   UNL     1      42.282 -16.782   2.674  1.00  0.00     0.162 HD
HETATM   20  O   UNL     1      44.188 -16.225   5.087  1.00  0.00    -0.274 OA
BRANCH  18  21
HETATM   21  C   UNL     1      44.050 -17.909   2.839  1.00  0.00     0.187 C 
BRANCH  21  22
HETATM   22  C   UNL     1      44.001 -19.250   3.476  1.00  0.00     0.070 A 
HETATM   23  O   UNL     1      44.405 -19.331   4.780  1.00  0.00    -0.325 OA
HETATM   24  C   UNL     1      44.280 -20.630   5.156  1.00  0.00     0.142 A 
HETATM   25  C   UNL     1      43.804 -21.390   4.115  1.00  0.00     0.027 A 
HETATM   26  C   UNL     1      43.630 -20.502   3.027  1.00  0.00     0.036 A 
ENDBRANCH  21  22
ENDBRANCH  18  21
ENDBRANCH  16  17
ENDBRANCH   3  16
BRANCH  11  27
HETATM   27  C   UNL     1      42.387 -10.986   2.807  1.00  0.00     0.176 C 
BRANCH  27  28
HETATM   28  O   UNL     1      41.878  -9.917   2.018  1.00  0.00    -0.400 OA
HETATM   29  H   UNL     1      41.189 -10.307   1.452  1.00  0.00     0.209 HD
ENDBRANCH  27  28
ENDBRANCH  11  27
BRANCH   7  30
HETATM   30  N   UNL     1      40.000 -14.676  -0.128  1.00  0.00    -0.305 N 
HETATM   31  C   UNL     1      40.306 -13.745  -1.095  1.00  0.00     0.227 C 
HETATM   32  O   UNL     1      40.925 -12.697  -0.895  1.00  0.00    -0.273 OA
HETATM   33  H   UNL     1      39.433 -15.478  -0.353  1.00  0.00     0.171 HD
BRANCH  31  34
HETATM   34  C   UNL     1      39.753 -14.110  -2.499  1.00  0.00     0.078 C 
HETATM   35  C   UNL     1      38.807 -15.336  -2.678  1.00  0.00     0.014 C 
HETATM   36  C   UNL     1      38.038 -14.516  -3.727  1.00  0.00     0.002 C 
HETATM   37  C   UNL     1      38.555 -13.254  -3.013  1.00  0.00     0.014 C 
ENDBRANCH  31  34
ENDBRANCH   7  30
BRANCH  13  38
HETATM   38  O   UNL     1      44.318 -11.888   4.410  1.00  0.00    -0.395 OA
HETATM   39  H   UNL     1      44.973 -12.227   5.047  1.00  0.00     0.210 HD
ENDBRANCH  13  38
TORSDOF 9
ENDMDL
MODEL 5
REMARK VINA RESULT:      -8.0      2.886      6.606
REMARK  9 active torsions:
REMARK  status: ('A' for Active; 'I' for Inactive)
REMARK    1  A    between atoms: C_3  and  C_4 
REMARK    2  A    between atoms: C_4  and  C_5 
REMARK       I    between atoms: C_5  and  N_6 
REMARK    3  A    between atoms: N_6  and  C_7 
REMARK    4  A    between atoms: C_7  and  C_8 
REMARK    5  A    between atoms: C_17  and  N_18 
REMARK       I    between atoms: N_18  and  C_19 
REMARK    6  A    between atoms: C_19  and  C_20 
REMARK    7  A    between atoms: C_28  and  C_29 
REMARK    8  A    between atoms: C_29  and  O_30 
REMARK    9  A    between atoms: C_32  and  O_33 
ROOT
HETATM    1  C   UNL     1      41.824 -12.415   1.846  1.00  0.00     0.016 C 
HETATM    2  C   UNL     1      42.166 -13.316   3.076  1.00  0.00    -0.030 C 
HETATM    3  C   UNL     1      42.675 -12.408   4.286  1.00  0.00     0.056 C 
HETATM    4  C   UNL     1      41.502 -11.797   5.026  1.00  0.00     0.056 C 
HETATM    5  C   UNL     1      40.182 -12.133   4.792  1.00  0.00     0.012 C 
HETATM    6  S   UNL     1      39.152 -11.246   5.816  1.00  0.00    -0.055 SA
HETATM    7  C   UNL     1      40.533 -10.722   6.673  1.00  0.00     0.173 C 
HETATM    8  N   UNL     1      41.696 -10.981   6.128  1.00  0.00    -0.227 NA
HETATM    9  C   UNL     1      39.697 -13.167   3.843  1.00  0.00     0.055 C 
HETATM   10  C   UNL     1      40.859 -14.129   3.467  1.00  0.00     0.012 C 
HETATM   11  C   UNL     1      41.080 -15.359   4.461  1.00  0.00     0.008 C 
HETATM   12  C   UNL     1      39.984 -16.411   4.116  1.00  0.00     0.020 C 
HETATM   13  C   UNL     1      42.463 -16.037   4.208  1.00  0.00     0.128 C 
HETATM   14  C   UNL     1      42.994 -15.766   2.807  1.00  0.00     0.033 C 
HETATM   15  C   UNL     1      43.302 -14.282   2.611  1.00  0.00     0.013 C 
ENDROOT
BRANCH   3  16
HETATM   16  C   UNL     1      43.683 -11.336   3.833  1.00  0.00     0.114 C 
BRANCH  16  17
HETATM   17  C   UNL     1      44.952 -11.312   4.660  1.00  0.00     0.218 C 
HETATM   18  N   UNL     1      44.745 -11.209   6.010  1.00  0.00    -0.355 N 
HETATM   19  H   UNL     1      43.899 -11.656   6.366  1.00  0.00     0.162 HD
HETATM   20  O   UNL     1      46.061 -11.329   4.133  1.00  0.00    -0.274 OA
BRANCH  18  21
HETATM   21  C   UNL     1      45.854 -11.120   6.929  1.00  0.00     0.187 C 
BRANCH  21  22
HETATM   22  C   UNL     1      45.370 -10.534   8.205  1.00  0.00     0.070 A 
HETATM   23  O   UNL     1      44.418 -11.238   8.888  1.00  0.00    -0.325 OA
HETATM   24  C   UNL     1      44.125 -10.530  10.008  1.00  0.00     0.142 A 
HETATM   25  C   UNL     1      44.870  -9.376  10.059  1.00  0.00     0.027 A 
HETATM   26  C   UNL     1      45.669  -9.374   8.891  1.00  0.00     0.036 A 
ENDBRANCH  21  22
ENDBRANCH  18  21
ENDBRANCH  16  17
ENDBRANCH   3  16
BRANCH  11  27
HETATM   27  C   UNL     1      40.954 -15.051   5.979  1.00  0.00     0.176 C 
BRANCH  27  28
HETATM   28  O   UNL     1      41.189 -16.195   6.793  1.00  0.00    -0.400 OA
HETATM   29  H   UNL     1      41.544 -16.878   6.198  1.00  0.00     0.209 HD
ENDBRANCH  27  28
ENDBRANCH  11  27
BRANCH   7  30
HETATM   30  N   UNL     1      40.227 -10.177   7.887  1.00  0.00    -0.305 N 
HETATM   31  C   UNL     1      40.104  -8.816   8.061  1.00  0.00     0.227 C 
HETATM   32  O   UNL     1      39.990  -7.996   7.147  1.00  0.00    -0.273 OA
HETATM   33  H   UNL     1      40.383 -10.780   8.679  1.00  0.00     0.171 HD
BRANCH  31  34
HETATM   34  C   UNL     1      40.167  -8.377   9.548  1.00  0.00     0.078 C 
HETATM   35  C   UNL     1      40.378  -9.434  10.673  1.00  0.00     0.014 C 
HETATM   36  C   UNL     1      41.248  -8.397  11.405  1.00  0.00     0.002 C 
HETATM   37  C   UNL     1      41.517  -7.762  10.029  1.00  0.00     0.014 C 
ENDBRANCH  31  34
ENDBRANCH   7  30
BRANCH  13  38
HETATM   38  O   UNL     1      43.433 -15.586   5.154  1.00  0.00    -0.395 OA
HETATM   39  H   UNL     1      44.294 -15.526   4.702  1.00  0.00     0.210 HD
ENDBRANCH  13  38
TORSDOF 9
ENDMDL
MODEL 6
REMARK VINA RESULT:      -8.0      2.721      3.683
REMARK  9 active torsions:
REMARK  status: ('A' for Active; 'I' for Inactive)
REMARK    1  A    between atoms: C_3  and  C_4 
REMARK    2  A    between atoms: C_4  and  C_5 
REMARK       I    between atoms: C_5  and  N_6 
REMARK    3  A    between atoms: N_6  and  C_7 
REMARK    4  A    between atoms: C_7  and  C_8 
REMARK    5  A    between atoms: C_17  and  N_18 
REMARK       I    between atoms: N_18  and  C_19 
REMARK    6  A    between atoms: C_19  and  C_20 
REMARK    7  A    between atoms: C_28  and  C_29 
REMARK    8  A    between atoms: C_29  and  O_30 
REMARK    9  A    between atoms: C_32  and  O_33 
ROOT
HETATM    1  C   UNL     1      37.839 -10.460   1.020  1.00  0.00     0.016 C 
HETATM    2  C   UNL     1      39.269 -10.308   0.409  1.00  0.00    -0.030 C 
HETATM    3  C   UNL     1      40.333 -11.059   1.332  1.00  0.00     0.056 C 
HETATM    4  C   UNL     1      40.337 -12.547   1.041  1.00  0.00     0.056 C 
HETATM    5  C   UNL     1      39.648 -13.130  -0.005  1.00  0.00     0.012 C 
HETATM    6  S   UNL     1      39.897 -14.814  -0.015  1.00  0.00    -0.055 SA
HETATM    7  C   UNL     1      41.114 -14.593   1.162  1.00  0.00     0.173 C 
HETATM    8  N   UNL     1      41.193 -13.406   1.709  1.00  0.00    -0.227 NA
HETATM    9  C   UNL     1      38.852 -12.417  -1.036  1.00  0.00     0.055 C 
HETATM   10  C   UNL     1      39.242 -10.912  -1.059  1.00  0.00     0.012 C 
HETATM   11  C   UNL     1      40.491 -10.542  -1.983  1.00  0.00     0.008 C 
HETATM   12  C   UNL     1      39.967 -10.517  -3.450  1.00  0.00     0.020 C 
HETATM   13  C   UNL     1      41.018  -9.108  -1.659  1.00  0.00     0.128 C 
HETATM   14  C   UNL     1      39.957  -8.236  -1.002  1.00  0.00     0.033 C 
HETATM   15  C   UNL     1      39.572  -8.776   0.374  1.00  0.00     0.013 C 
ENDROOT
BRANCH   3  16
HETATM   16  C   UNL     1      40.118 -10.774   2.830  1.00  0.00     0.114 C 
BRANCH  16  17
HETATM   17  C   UNL     1      41.405 -10.504   3.584  1.00  0.00     0.218 C 
HETATM   18  N   UNL     1      42.212 -11.600   3.734  1.00  0.00    -0.355 N 
HETATM   19  H   UNL     1      42.186 -12.279   2.972  1.00  0.00     0.162 HD
HETATM   20  O   UNL     1      41.650  -9.398   4.058  1.00  0.00    -0.274 OA
BRANCH  18  21
HETATM   21  C   UNL     1      43.447 -11.520   4.476  1.00  0.00     0.187 C 
BRANCH  21  22
HETATM   22  C   UNL     1      43.510 -12.663   5.423  1.00  0.00     0.070 A 
HETATM   23  O   UNL     1      43.082 -13.876   4.958  1.00  0.00    -0.325 OA
HETATM   24  C   UNL     1      43.225 -14.764   5.974  1.00  0.00     0.142 A 
HETATM   25  C   UNL     1      43.736 -14.144   7.090  1.00  0.00     0.027 A 
HETATM   26  C   UNL     1      43.913 -12.786   6.737  1.00  0.00     0.036 A 
ENDBRANCH  21  22
ENDBRANCH  18  21
ENDBRANCH  16  17
ENDBRANCH   3  16
BRANCH  11  27
HETATM   27  C   UNL     1      41.692 -11.527  -1.946  1.00  0.00     0.176 C 
BRANCH  27  28
HETATM   28  O   UNL     1      41.699 -12.428  -3.048  1.00  0.00    -0.400 OA
HETATM   29  H   UNL     1      41.454 -11.900  -3.827  1.00  0.00     0.209 HD
ENDBRANCH  27  28
ENDBRANCH  11  27
BRANCH   7  30
HETATM   30  N   UNL     1      41.917 -15.689   1.303  1.00  0.00    -0.305 N 
HETATM   31  C   UNL     1      41.954 -16.415   2.473  1.00  0.00     0.227 C 
HETATM   32  O   UNL     1      41.121 -16.337   3.379  1.00  0.00    -0.273 OA
HETATM   33  H   UNL     1      42.670 -15.755   0.637  1.00  0.00     0.171 HD
BRANCH  31  34
HETATM   34  C   UNL     1      43.197 -17.338   2.586  1.00  0.00     0.078 C 
HETATM   35  C   UNL     1      43.655 -17.876   3.975  1.00  0.00     0.014 C 
HETATM   36  C   UNL     1      44.025 -19.196   3.277  1.00  0.00     0.002 C 
HETATM   37  C   UNL     1      42.983 -18.835   2.204  1.00  0.00     0.014 C 
ENDBRANCH  31  34
ENDBRANCH   7  30
BRANCH  13  38
HETATM   38  O   UNL     1      42.154  -9.166  -0.796  1.00  0.00    -0.395 OA
HETATM   39  H   UNL     1      42.394  -8.254  -0.549  1.00  0.00     0.210 HD
ENDBRANCH  13  38
TORSDOF 9
ENDMDL
MODEL 7
REMARK VINA RESULT:      -7.7      2.596      3.824
REMARK  9 active torsions:
REMARK  status: ('A' for Active; 'I' for Inactive)
REMARK    1  A    between atoms: C_3  and  C_4 
REMARK    2  A    between atoms: C_4  and  C_5 
REMARK       I    between atoms: C_5  and  N_6 
REMARK    3  A    between atoms: N_6  and  C_7 
REMARK    4  A    between atoms: C_7  and  C_8 
REMARK    5  A    between atoms: C_17  and  N_18 
REMARK       I    between atoms: N_18  and  C_19 
REMARK    6  A    between atoms: C_19  and  C_20 
REMARK    7  A    between atoms: C_28  and  C_29 
REMARK    8  A    between atoms: C_29  and  O_30 
REMARK    9  A    between atoms: C_32  and  O_33 
ROOT
HETATM    1  C   UNL     1      37.068 -10.475   0.981  1.00  0.00     0.016 C 
HETATM    2  C   UNL     1      38.540  -9.960   0.884  1.00  0.00    -0.030 C 
HETATM    3  C   UNL     1      39.471 -10.795   1.875  1.00  0.00     0.056 C 
HETATM    4  C   UNL     1      39.865 -12.119   1.250  1.00  0.00     0.056 C 
HETATM    5  C   UNL     1      39.602 -12.460  -0.063  1.00  0.00     0.012 C 
HETATM    6  S   UNL     1      40.198 -14.018  -0.403  1.00  0.00    -0.055 SA
HETATM    7  C   UNL     1      41.003 -13.986   1.103  1.00  0.00     0.173 C 
HETATM    8  N   UNL     1      40.688 -13.010   1.917  1.00  0.00    -0.227 NA
HETATM    9  C   UNL     1      38.958 -11.592  -1.082  1.00  0.00     0.055 C 
HETATM   10  C   UNL     1      39.013 -10.108  -0.625  1.00  0.00     0.012 C 
HETATM   11  C   UNL     1      40.346  -9.319  -1.013  1.00  0.00     0.008 C 
HETATM   12  C   UNL     1      40.215  -8.940  -2.518  1.00  0.00     0.020 C 
HETATM   13  C   UNL     1      40.457  -7.984  -0.210  1.00  0.00     0.128 C 
HETATM   14  C   UNL     1      39.104  -7.493   0.286  1.00  0.00     0.033 C 
HETATM   15  C   UNL     1      38.508  -8.457   1.311  1.00  0.00     0.013 C 
ENDROOT
BRANCH   3  16
HETATM   16  C   UNL     1      38.831 -10.990   3.261  1.00  0.00     0.114 C 
BRANCH  16  17
HETATM   17  C   UNL     1      39.692 -10.486   4.402  1.00  0.00     0.218 C 
HETATM   18  N   UNL     1      41.020 -10.803   4.289  1.00  0.00    -0.355 N 
HETATM   19  H   UNL     1      41.387 -10.848   3.338  1.00  0.00     0.162 HD
HETATM   20  O   UNL     1      39.204  -9.893   5.360  1.00  0.00    -0.274 OA
BRANCH  18  21
HETATM   21  C   UNL     1      41.962 -10.442   5.320  1.00  0.00     0.187 C 
BRANCH  21  22
HETATM   22  C   UNL     1      42.695 -11.662   5.745  1.00  0.00     0.070 A 
HETATM   23  O   UNL     1      43.820 -11.476   6.499  1.00  0.00    -0.325 OA
HETATM   24  C   UNL     1      44.325 -12.707   6.772  1.00  0.00     0.142 A 
HETATM   25  C   UNL     1      43.545 -13.685   6.203  1.00  0.00     0.027 A 
HETATM   26  C   UNL     1      42.496 -13.011   5.534  1.00  0.00     0.036 A 
ENDBRANCH  21  22
ENDBRANCH  18  21
ENDBRANCH  16  17
ENDBRANCH   3  16
BRANCH  11  27
HETATM   27  C   UNL     1      41.680 -10.099  -0.854  1.00  0.00     0.176 C 
BRANCH  27  28
HETATM   28  O   UNL     1      42.824  -9.289  -1.104  1.00  0.00    -0.400 OA
HETATM   29  H   UNL     1      42.482  -8.409  -1.339  1.00  0.00     0.209 HD
ENDBRANCH  27  28
ENDBRANCH  11  27
BRANCH   7  30
HETATM   30  N   UNL     1      41.959 -14.956   1.211  1.00  0.00    -0.305 N 
HETATM   31  C   UNL     1      41.769 -16.078   1.987  1.00  0.00     0.227 C 
HETATM   32  O   UNL     1      40.681 -16.455   2.428  1.00  0.00    -0.273 OA
HETATM   33  H   UNL     1      42.888 -14.672   0.942  1.00  0.00     0.171 HD
BRANCH  31  34
HETATM   34  C   UNL     1      43.087 -16.833   2.311  1.00  0.00     0.078 C 
HETATM   35  C   UNL     1      43.553 -17.004   3.789  1.00  0.00     0.014 C 
HETATM   36  C   UNL     1      44.059 -18.405   3.406  1.00  0.00     0.002 C 
HETATM   37  C   UNL     1      43.018 -18.390   2.271  1.00  0.00     0.014 C 
ENDBRANCH  31  34
ENDBRANCH   7  30
BRANCH  13  38
HETATM   38  O   UNL     1      41.324  -8.135   0.914  1.00  0.00    -0.395 OA
HETATM   39  H   UNL     1      40.796  -8.015   1.724  1.00  0.00     0.210 HD
ENDBRANCH  13  38
TORSDOF 9
ENDMDL
MODEL 8
REMARK VINA RESULT:      -7.3      3.207      7.625
REMARK  9 active torsions:
REMARK  status: ('A' for Active; 'I' for Inactive)
REMARK    1  A    between atoms: C_3  and  C_4 
REMARK    2  A    between atoms: C_4  and  C_5 
REMARK       I    between atoms: C_5  and  N_6 
REMARK    3  A    between atoms: N_6  and  C_7 
REMARK    4  A    between atoms: C_7  and  C_8 
REMARK    5  A    between atoms: C_17  and  N_18 
REMARK       I    between atoms: N_18  and  C_19 
REMARK    6  A    between atoms: C_19  and  C_20 
REMARK    7  A    between atoms: C_28  and  C_29 
REMARK    8  A    between atoms: C_29  and  O_30 
REMARK    9  A    between atoms: C_32  and  O_33 
ROOT
HETATM    1  C   UNL     1      37.584 -10.999   1.647  1.00  0.00     0.016 C 
HETATM    2  C   UNL     1      38.982 -11.468   1.130  1.00  0.00    -0.030 C 
HETATM    3  C   UNL     1      40.122 -10.517   1.717  1.00  0.00     0.056 C 
HETATM    4  C   UNL     1      40.480 -10.923   3.133  1.00  0.00     0.056 C 
HETATM    5  C   UNL     1      40.012 -12.067   3.749  1.00  0.00     0.012 C 
HETATM    6  S   UNL     1      40.633 -12.188   5.329  1.00  0.00    -0.055 SA
HETATM    7  C   UNL     1      41.686 -10.895   4.963  1.00  0.00     0.173 C 
HETATM    8  N   UNL     1      41.460 -10.252   3.845  1.00  0.00    -0.227 NA
HETATM    9  C   UNL     1      39.148 -13.105   3.130  1.00  0.00     0.055 C 
HETATM   10  C   UNL     1      39.191 -12.976   1.581  1.00  0.00     0.012 C 
HETATM   11  C   UNL     1      40.385 -13.755   0.862  1.00  0.00     0.008 C 
HETATM   12  C   UNL     1      39.969 -15.256   0.811  1.00  0.00     0.020 C 
HETATM   13  C   UNL     1      40.553 -13.274  -0.614  1.00  0.00     0.128 C 
HETATM   14  C   UNL     1      39.282 -12.646  -1.168  1.00  0.00     0.033 C 
HETATM   15  C   UNL     1      38.934 -11.356  -0.427  1.00  0.00     0.013 C 
ENDROOT
BRANCH   3  16
HETATM   16  C   UNL     1      39.748  -9.026   1.630  1.00  0.00     0.114 C 
BRANCH  16  17
HETATM   17  C   UNL     1      40.553  -8.259   0.601  1.00  0.00     0.218 C 
HETATM   18  N   UNL     1      41.473  -9.016  -0.074  1.00  0.00    -0.355 N 
HETATM   19  H   UNL     1      41.217  -9.991  -0.233  1.00  0.00     0.162 HD
HETATM   20  O   UNL     1      40.408  -7.050   0.445  1.00  0.00    -0.274 OA
BRANCH  18  21
HETATM   21  C   UNL     1      42.355  -8.422  -1.049  1.00  0.00     0.187 C 
BRANCH  21  22
HETATM   22  C   UNL     1      41.753  -8.582  -2.398  1.00  0.00     0.070 A 
HETATM   23  O   UNL     1      41.977  -7.578  -3.298  1.00  0.00    -0.325 OA
HETATM   24  C   UNL     1      41.345  -7.926  -4.448  1.00  0.00     0.142 A 
HETATM   25  C   UNL     1      40.713  -9.138  -4.304  1.00  0.00     0.027 A 
HETATM   26  C   UNL     1      40.970  -9.559  -2.978  1.00  0.00     0.036 A 
ENDBRANCH  21  22
ENDBRANCH  18  21
ENDBRANCH  16  17
ENDBRANCH   3  16
BRANCH  11  27
HETATM   27  C   UNL     1      41.771 -13.690   1.560  1.00  0.00     0.176 C 
BRANCH  27  28
HETATM   28  O   UNL     1      42.687 -14.657   1.057  1.00  0.00    -0.400 OA
HETATM   29  H   UNL     1      43.575 -14.309   1.247  1.00  0.00     0.209 HD
ENDBRANCH  27  28
ENDBRANCH  11  27
BRANCH   7  30
HETATM   30  N   UNL     1      42.704 -10.771   5.866  1.00  0.00    -0.305 N 
HETATM   31  C   UNL     1      43.912 -11.407   5.688  1.00  0.00     0.227 C 
HETATM   32  O   UNL     1      44.296 -11.910   4.629  1.00  0.00    -0.273 OA
HETATM   33  H   UNL     1      42.429 -10.443   6.778  1.00  0.00     0.171 HD
BRANCH  31  34
HETATM   34  C   UNL     1      44.764 -11.485   6.984  1.00  0.00     0.078 C 
HETATM   35  C   UNL     1      45.921 -10.470   7.228  1.00  0.00     0.014 C 
HETATM   36  C   UNL     1      45.533 -10.475   8.716  1.00  0.00     0.002 C 
HETATM   37  C   UNL     1      44.119 -10.887   8.271  1.00  0.00     0.014 C 
ENDBRANCH  31  34
ENDBRANCH   7  30
BRANCH  13  38
HETATM   38  O   UNL     1      41.612 -12.322  -0.723  1.00  0.00    -0.395 OA
HETATM   39  H   UNL     1      41.477 -11.638  -0.043  1.00  0.00     0.210 HD
ENDBRANCH  13  38
TORSDOF 9
ENDMDL
MODEL 9
REMARK VINA RESULT:      -7.2      2.311      3.470
REMARK  9 active torsions:
REMARK  status: ('A' for Active; 'I' for Inactive)
REMARK    1  A    between atoms: C_3  and  C_4 
REMARK    2  A    between atoms: C_4  and  C_5 
REMARK       I    between atoms: C_5  and  N_6 
REMARK    3  A    between atoms: N_6  and  C_7 
REMARK    4  A    between atoms: C_7  and  C_8 
REMARK    5  A    between atoms: C_17  and  N_18 
REMARK       I    between atoms: N_18  and  C_19 
REMARK    6  A    between atoms: C_19  and  C_20 
REMARK    7  A    between atoms: C_28  and  C_29 
REMARK    8  A    between atoms: C_29  and  O_30 
REMARK    9  A    between atoms: C_32  and  O_33 
ROOT
HETATM    1  C   UNL     1      37.354  -8.900   4.928  1.00  0.00     0.016 C 
HETATM    2  C   UNL     1      38.769  -8.622   4.326  1.00  0.00    -0.030 C 
HETATM    3  C   UNL     1      39.863  -9.493   5.094  1.00  0.00     0.056 C 
HETATM    4  C   UNL     1      39.886 -10.912   4.561  1.00  0.00     0.056 C 
HETATM    5  C   UNL     1      39.186 -11.328   3.445  1.00  0.00     0.012 C 
HETATM    6  S   UNL     1      39.464 -12.982   3.152  1.00  0.00    -0.055 SA
HETATM    7  C   UNL     1      40.700 -12.934   4.329  1.00  0.00     0.173 C 
HETATM    8  N   UNL     1      40.771 -11.852   5.064  1.00  0.00    -0.227 NA
HETATM    9  C   UNL     1      38.358 -10.471   2.560  1.00  0.00     0.055 C 
HETATM   10  C   UNL     1      38.722  -8.975   2.779  1.00  0.00     0.012 C 
HETATM   11  C   UNL     1      39.946  -8.434   1.908  1.00  0.00     0.008 C 
HETATM   12  C   UNL     1      39.392  -8.177   0.474  1.00  0.00     0.020 C 
HETATM   13  C   UNL     1      40.455  -7.063   2.455  1.00  0.00     0.128 C 
HETATM   14  C   UNL     1      39.393  -6.332   3.265  1.00  0.00     0.033 C 
HETATM   15  C   UNL     1      39.045  -7.099   4.539  1.00  0.00     0.013 C 
ENDROOT
BRANCH   3  16
HETATM   16  C   UNL     1      39.674  -9.463   6.622  1.00  0.00     0.114 C 
BRANCH  16  17
HETATM   17  C   UNL     1      40.916  -9.034   7.376  1.00  0.00     0.218 C 
HETATM   18  N   UNL     1      41.766 -10.059   7.694  1.00  0.00    -0.355 N 
HETATM   19  H   UNL     1      41.802 -10.831   7.027  1.00  0.00     0.162 HD
HETATM   20  O   UNL     1      41.092  -7.865   7.709  1.00  0.00    -0.274 OA
BRANCH  18  21
HETATM   21  C   UNL     1      42.967  -9.822   8.459  1.00  0.00     0.187 C 
BRANCH  21  22
HETATM   22  C   UNL     1      44.118 -10.423   7.739  1.00  0.00     0.070 A 
HETATM   23  O   UNL     1      45.367 -10.098   8.189  1.00  0.00    -0.325 OA
HETATM   24  C   UNL     1      46.258 -10.749   7.398  1.00  0.00     0.142 A 
HETATM   25  C   UNL     1      45.604 -11.488   6.441  1.00  0.00     0.027 A 
HETATM   26  C   UNL     1      44.222 -11.272   6.656  1.00  0.00     0.036 A 
ENDBRANCH  21  22
ENDBRANCH  18  21
ENDBRANCH  16  17
ENDBRANCH   3  16
BRANCH  11  27
HETATM   27  C   UNL     1      41.164  -9.387   1.761  1.00  0.00     0.176 C 
BRANCH  27  28
HETATM   28  O   UNL     1      42.016  -9.028   0.678  1.00  0.00    -0.400 OA
HETATM   29  H   UNL     1      41.588  -9.375  -0.124  1.00  0.00     0.209 HD
ENDBRANCH  27  28
ENDBRANCH  11  27
BRANCH   7  30
HETATM   30  N   UNL     1      41.525 -14.022   4.273  1.00  0.00    -0.305 N 
HETATM   31  C   UNL     1      42.631 -14.051   3.454  1.00  0.00     0.227 C 
HETATM   32  O   UNL     1      43.136 -13.064   2.914  1.00  0.00    -0.273 OA
HETATM   33  H   UNL     1      41.128 -14.878   4.626  1.00  0.00     0.171 HD
BRANCH  31  34
HETATM   34  C   UNL     1      43.186 -15.482   3.219  1.00  0.00     0.078 C 
HETATM   35  C   UNL     1      42.265 -16.725   3.412  1.00  0.00     0.014 C 
HETATM   36  C   UNL     1      42.981 -17.368   2.212  1.00  0.00     0.002 C 
HETATM   37  C   UNL     1      43.304 -15.941   1.734  1.00  0.00     0.014 C 
ENDBRANCH  31  34
ENDBRANCH   7  30
BRANCH  13  38
HETATM   38  O   UNL     1      41.609  -7.239   3.278  1.00  0.00    -0.395 OA
HETATM   39  H   UNL     1      42.004  -6.363   3.440  1.00  0.00     0.210 HD
ENDBRANCH  13  38
TORSDOF 9
ENDMDL
MODEL 10
REMARK VINA RESULT:      -7.2      2.806      6.074
REMARK  9 active torsions:
REMARK  status: ('A' for Active; 'I' for Inactive)
REMARK    1  A    between atoms: C_3  and  C_4 
REMARK    2  A    between atoms: C_4  and  C_5 
REMARK       I    between atoms: C_5  and  N_6 
REMARK    3  A    between atoms: N_6  and  C_7 
REMARK    4  A    between atoms: C_7  and  C_8 
REMARK    5  A    between atoms: C_17  and  N_18 
REMARK       I    between atoms: N_18  and  C_19 
REMARK    6  A    between atoms: C_19  and  C_20 
REMARK    7  A    between atoms: C_28  and  C_29 
REMARK    8  A    between atoms: C_29  and  O_30 
REMARK    9  A    between atoms: C_32  and  O_33 
ROOT
HETATM    1  C   UNL     1      44.241 -11.867   4.367  1.00  0.00     0.016 C 
HETATM    2  C   UNL     1      43.018 -12.693   4.879  1.00  0.00    -0.030 C 
HETATM    3  C   UNL     1      41.661 -11.950   4.484  1.00  0.00     0.056 C 
HETATM    4  C   UNL     1      41.291 -12.244   3.044  1.00  0.00     0.056 C 
HETATM    5  C   UNL     1      41.942 -13.172   2.254  1.00  0.00     0.012 C 
HETATM    6  S   UNL     1      41.242 -13.229   0.703  1.00  0.00    -0.055 SA
HETATM    7  C   UNL     1      39.971 -12.254   1.294  1.00  0.00     0.173 C 
HETATM    8  N   UNL     1      40.140 -11.722   2.478  1.00  0.00    -0.227 NA
HETATM    9  C   UNL     1      43.050 -14.063   2.682  1.00  0.00     0.055 C 
HETATM   10  C   UNL     1      43.099 -14.142   4.234  1.00  0.00     0.012 C 
HETATM   11  C   UNL     1      42.155 -15.247   4.894  1.00  0.00     0.008 C 
HETATM   12  C   UNL     1      42.881 -16.614   4.718  1.00  0.00     0.020 C 
HETATM   13  C   UNL     1      42.001 -15.003   6.429  1.00  0.00     0.128 C 
HETATM   14  C   UNL     1      43.150 -14.186   7.003  1.00  0.00     0.033 C 
HETATM   15  C   UNL     1      43.159 -12.768   6.433  1.00  0.00     0.013 C 
ENDROOT
BRANCH   3  16
HETATM   16  C   UNL     1      41.717 -10.436   4.758  1.00  0.00     0.114 C 
BRANCH  16  17
HETATM   17  C   UNL     1      41.118 -10.041   6.092  1.00  0.00     0.218 C 
HETATM   18  N   UNL     1      42.024  -9.550   6.995  1.00  0.00    -0.355 N 
HETATM   19  H   UNL     1      42.808  -9.029   6.600  1.00  0.00     0.162 HD
HETATM   20  O   UNL     1      39.926 -10.209   6.335  1.00  0.00    -0.274 OA
BRANCH  18  21
HETATM   21  C   UNL     1      41.620  -9.180   8.329  1.00  0.00     0.187 C 
BRANCH  21  22
HETATM   22  C   UNL     1      42.783  -9.335   9.241  1.00  0.00     0.070 A 
HETATM   23  O   UNL     1      43.812 -10.120   8.801  1.00  0.00    -0.325 OA
HETATM   24  C   UNL     1      44.755 -10.123   9.778  1.00  0.00     0.142 A 
HETATM   25  C   UNL     1      44.351  -9.354  10.843  1.00  0.00     0.027 A 
HETATM   26  C   UNL     1      43.073  -8.851  10.500  1.00  0.00     0.036 A 
ENDBRANCH  21  22
ENDBRANCH  18  21
ENDBRANCH  16  17
ENDBRANCH   3  16
BRANCH  11  27
HETATM   27  C   UNL     1      40.737 -15.402   4.278  1.00  0.00     0.176 C 
BRANCH  27  28
HETATM   28  O   UNL     1      39.943 -16.367   4.960  1.00  0.00    -0.400 OA
HETATM   29  H   UNL     1      40.259 -16.371   5.880  1.00  0.00     0.209 HD
ENDBRANCH  27  28
ENDBRANCH  11  27
BRANCH   7  30
HETATM   30  N   UNL     1      38.884 -12.245   0.466  1.00  0.00    -0.305 N 
HETATM   31  C   UNL     1      38.801 -11.391  -0.612  1.00  0.00     0.227 C 
HETATM   32  O   UNL     1      39.750 -10.767  -1.092  1.00  0.00    -0.273 OA
HETATM   33  H   UNL     1      38.053 -12.669   0.846  1.00  0.00     0.171 HD
BRANCH  31  34
HETATM   34  C   UNL     1      37.359 -11.236  -1.165  1.00  0.00     0.078 C 
HETATM   35  C   UNL     1      36.923  -9.915  -1.868  1.00  0.00     0.014 C 
HETATM   36  C   UNL     1      36.094 -10.774  -2.838  1.00  0.00     0.002 C 
HETATM   37  C   UNL     1      37.065 -11.927  -2.531  1.00  0.00     0.014 C 
ENDBRANCH  31  34
ENDBRANCH   7  30
BRANCH  13  38
HETATM   38  O   UNL     1      40.777 -14.328   6.718  1.00  0.00    -0.395 OA
HETATM   39  H   UNL     1      40.069 -14.995   6.782  1.00  0.00     0.210 HD
ENDBRANCH  13  38
TORSDOF 9
ENDMDL
