MODEL 1
REMARK VINA RESULT:      -8.2      0.000      0.000
REMARK  8 active torsions:
REMARK  status: ('A' for Active; 'I' for Inactive)
REMARK    1  A    between atoms: C_2  and  N_3 
REMARK    2  A    between atoms: N_3  and  C_5 
REMARK    3  A    between atoms: N_3  and  C_30 
REMARK    4  A    between atoms: C_5  and  C_6 
REMARK    5  A    between atoms: C_6  and  N_7 
REMARK       I    between atoms: N_7  and  C_8 
REMARK    6  A    between atoms: C_8  and  C_9 
REMARK    7  A    between atoms: C_9  and  O_10 
REMARK    8  A    between atoms: N_11  and  C_12 
ROOT
HETATM    1  C   UNL     1      42.969 -16.239   3.076  1.00  0.00     0.256 C 
HETATM    2  N   UNL     1      43.134 -15.449   4.317  1.00  0.00    -0.254 N 
HETATM    3  C   UNL     1      43.812 -15.983   5.409  1.00  0.00     0.330 C 
HETATM    4  O   UNL     1      44.178 -15.357   6.401  1.00  0.00    -0.246 OA
HETATM    5  N   UNL     1      44.081 -17.314   5.406  1.00  0.00    -0.308 N 
HETATM    6  C   UNL     1      43.809 -18.204   4.385  1.00  0.00     0.048 A 
HETATM    7  C   UNL     1      43.269 -17.721   3.205  1.00  0.00     0.034 A 
HETATM    8  C   UNL     1      44.107 -19.558   4.550  1.00  0.00     0.030 A 
HETATM    9  C   UNL     1      43.864 -20.452   3.510  1.00  0.00     0.002 A 
HETATM   10  C   UNL     1      43.345 -19.985   2.305  1.00  0.00     0.001 A 
HETATM   11  C   UNL     1      43.060 -18.627   2.149  1.00  0.00     0.015 A 
HETATM   12  H   UNL     1      44.557 -17.639   6.241  1.00  0.00     0.170 HD
ENDROOT
BRANCH   1  13
HETATM   13  C   UNL     1      41.437 -16.141   2.592  1.00  0.00     0.279 C 
HETATM   14  N   UNL     1      41.225 -15.516   1.364  1.00  0.00    -0.355 N 
HETATM   15  H   UNL     1      42.028 -15.452   0.742  1.00  0.00     0.162 HD
HETATM   16  O   UNL     1      40.467 -16.460   3.285  1.00  0.00    -0.268 OA
BRANCH  14  17
HETATM   17  C   UNL     1      39.888 -15.458   0.813  1.00  0.00     0.150 C 
BRANCH  17  18
HETATM   18  C   UNL     1      39.796 -14.496  -0.387  1.00  0.00     0.254 C 
BRANCH  18  19
HETATM   19  N   UNL     1      39.042 -13.203  -0.093  1.00  0.00    -0.070 N 
HETATM   20  H   UNL     1      38.122 -13.500   0.256  1.00  0.00     0.279 HD
BRANCH  19  21
HETATM   21  C   UNL     1      38.753 -12.387  -1.349  1.00  0.00     0.230 C 
HETATM   22  C   UNL     1      37.581 -12.976  -2.117  1.00  0.00     0.034 C 
ENDBRANCH  19  21
BRANCH  19  23
HETATM   23  C   UNL     1      39.635 -12.344   1.004  1.00  0.00     0.230 C 
HETATM   24  C   UNL     1      38.651 -12.147   2.143  1.00  0.00     0.034 C 
ENDBRANCH  19  23
ENDBRANCH  18  19
ENDBRANCH  17  18
ENDBRANCH  14  17
ENDBRANCH   1  13
BRANCH   1  25
HETATM   25  O   UNL     1      43.917 -15.759   2.140  1.00  0.00    -0.359 OA
HETATM   26  H   UNL     1      43.394 -15.295   1.466  1.00  0.00     0.213 HD
ENDBRANCH   1  25
BRANCH   2  27
HETATM   27  C   UNL     1      42.635 -14.079   4.366  1.00  0.00     0.043 A 
HETATM   28  C   UNL     1      41.510 -13.747   5.141  1.00  0.00     0.037 A 
HETATM   29  C   UNL     1      40.958 -12.451   5.164  1.00  0.00    -0.054 A 
HETATM   30  C   UNL     1      39.753 -12.185   6.027  1.00  0.00     0.049 C 
HETATM   31  C   UNL     1      41.529 -11.446   4.370  1.00  0.00    -0.056 A 
HETATM   32  C   UNL     1      40.996 -10.040   4.371  1.00  0.00     0.049 C 
HETATM   33  C   UNL     1      42.651 -11.758   3.596  1.00  0.00     0.009 A 
HETATM   34  C   UNL     1      43.190 -13.052   3.587  1.00  0.00     0.030 A 
ENDBRANCH   2  27
TORSDOF 8
ENDMDL
MODEL 2
REMARK VINA RESULT:      -7.9      0.860      1.437
REMARK  8 active torsions:
REMARK  status: ('A' for Active; 'I' for Inactive)
REMARK    1  A    between atoms: C_2  and  N_3 
REMARK    2  A    between atoms: N_3  and  C_5 
REMARK    3  A    between atoms: N_3  and  C_30 
REMARK    4  A    between atoms: C_5  and  C_6 
REMARK    5  A    between atoms: C_6  and  N_7 
REMARK       I    between atoms: N_7  and  C_8 
REMARK    6  A    between atoms: C_8  and  C_9 
REMARK    7  A    between atoms: C_9  and  O_10 
REMARK    8  A    between atoms: N_11  and  C_12 
ROOT
HETATM    1  C   UNL     1      42.632 -15.927   3.653  1.00  0.00     0.256 C 
HETATM    2  N   UNL     1      42.471 -15.273   4.972  1.00  0.00    -0.254 N 
HETATM    3  C   UNL     1      43.053 -15.825   6.109  1.00  0.00     0.330 C 
HETATM    4  O   UNL     1      43.154 -15.272   7.202  1.00  0.00    -0.246 OA
HETATM    5  N   UNL     1      43.538 -17.091   6.030  1.00  0.00    -0.308 N 
HETATM    6  C   UNL     1      43.576 -17.885   4.900  1.00  0.00     0.048 A 
HETATM    7  C   UNL     1      43.150 -17.353   3.695  1.00  0.00     0.034 A 
HETATM    8  C   UNL     1      44.068 -19.189   4.989  1.00  0.00     0.030 A 
HETATM    9  C   UNL     1      44.138 -19.981   3.844  1.00  0.00     0.002 A 
HETATM   10  C   UNL     1      43.739 -19.458   2.617  1.00  0.00     0.001 A 
HETATM   11  C   UNL     1      43.260 -18.150   2.540  1.00  0.00     0.015 A 
HETATM   12  H   UNL     1      43.928 -17.436   6.900  1.00  0.00     0.170 HD
ENDROOT
BRANCH   1  13
HETATM   13  C   UNL     1      41.197 -16.004   2.927  1.00  0.00     0.279 C 
HETATM   14  N   UNL     1      41.116 -15.399   1.674  1.00  0.00    -0.355 N 
HETATM   15  H   UNL     1      41.996 -15.241   1.188  1.00  0.00     0.162 HD
HETATM   16  O   UNL     1      40.171 -16.436   3.460  1.00  0.00    -0.268 OA
BRANCH  14  17
HETATM   17  C   UNL     1      39.888 -15.493   0.913  1.00  0.00     0.150 C 
BRANCH  17  18
HETATM   18  C   UNL     1      39.905 -14.583  -0.331  1.00  0.00     0.254 C 
BRANCH  18  19
HETATM   19  N   UNL     1      38.995 -13.365  -0.224  1.00  0.00    -0.070 N 
HETATM   20  H   UNL     1      38.202 -13.668   0.357  1.00  0.00     0.279 HD
BRANCH  19  21
HETATM   21  C   UNL     1      38.382 -12.965  -1.562  1.00  0.00     0.230 C 
HETATM   22  C   UNL     1      38.565 -14.067  -2.591  1.00  0.00     0.034 C 
ENDBRANCH  19  21
BRANCH  19  23
HETATM   23  C   UNL     1      39.592 -12.172   0.494  1.00  0.00     0.230 C 
HETATM   24  C   UNL     1      39.071 -12.067   1.915  1.00  0.00     0.034 C 
ENDBRANCH  19  23
ENDBRANCH  18  19
ENDBRANCH  17  18
ENDBRANCH  14  17
ENDBRANCH   1  13
BRANCH   1  25
HETATM   25  O   UNL     1      43.618 -15.204   2.940  1.00  0.00    -0.359 OA
HETATM   26  H   UNL     1      43.768 -14.399   3.462  1.00  0.00     0.213 HD
ENDBRANCH   1  25
BRANCH   2  27
HETATM   27  C   UNL     1      41.749 -14.008   5.061  1.00  0.00     0.043 A 
HETATM   28  C   UNL     1      42.319 -12.818   4.575  1.00  0.00     0.037 A 
HETATM   29  C   UNL     1      41.684 -11.565   4.700  1.00  0.00    -0.054 A 
HETATM   30  C   UNL     1      42.366 -10.342   4.147  1.00  0.00     0.049 C 
HETATM   31  C   UNL     1      40.446 -11.484   5.352  1.00  0.00    -0.056 A 
HETATM   32  C   UNL     1      39.713 -10.180   5.495  1.00  0.00     0.049 C 
HETATM   33  C   UNL     1      39.864 -12.660   5.838  1.00  0.00     0.009 A 
HETATM   34  C   UNL     1      40.506 -13.898   5.702  1.00  0.00     0.030 A 
ENDBRANCH   2  27
TORSDOF 8
ENDMDL
MODEL 3
REMARK VINA RESULT:      -7.5      2.899      6.072
REMARK  8 active torsions:
REMARK  status: ('A' for Active; 'I' for Inactive)
REMARK    1  A    between atoms: C_2  and  N_3 
REMARK    2  A    between atoms: N_3  and  C_5 
REMARK    3  A    between atoms: N_3  and  C_30 
REMARK    4  A    between atoms: C_5  and  C_6 
REMARK    5  A    between atoms: C_6  and  N_7 
REMARK       I    between atoms: N_7  and  C_8 
REMARK    6  A    between atoms: C_8  and  C_9 
REMARK    7  A    between atoms: C_9  and  O_10 
REMARK    8  A    between atoms: N_11  and  C_12 
ROOT
HETATM    1  C   UNL     1      41.866 -13.529   5.059  1.00  0.00     0.256 C 
HETATM    2  N   UNL     1      42.832 -12.428   4.845  1.00  0.00    -0.254 N 
HETATM    3  C   UNL     1      43.081 -11.945   3.564  1.00  0.00     0.330 C 
HETATM    4  O   UNL     1      43.700 -10.918   3.292  1.00  0.00    -0.246 OA
HETATM    5  N   UNL     1      42.628 -12.670   2.508  1.00  0.00    -0.308 N 
HETATM    6  C   UNL     1      41.873 -13.825   2.570  1.00  0.00     0.048 A 
HETATM    7  C   UNL     1      41.460 -14.287   3.808  1.00  0.00     0.034 A 
HETATM    8  C   UNL     1      41.520 -14.483   1.390  1.00  0.00     0.030 A 
HETATM    9  C   UNL     1      40.731 -15.630   1.448  1.00  0.00     0.002 A 
HETATM   10  C   UNL     1      40.282 -16.099   2.680  1.00  0.00     0.001 A 
HETATM   11  C   UNL     1      40.633 -15.426   3.851  1.00  0.00     0.015 A 
HETATM   12  H   UNL     1      42.863 -12.271   1.606  1.00  0.00     0.170 HD
ENDROOT
BRANCH   1  13
HETATM   13  C   UNL     1      42.526 -14.623   6.039  1.00  0.00     0.279 C 
HETATM   14  N   UNL     1      43.519 -15.423   5.477  1.00  0.00    -0.355 N 
HETATM   15  H   UNL     1      43.961 -15.071   4.630  1.00  0.00     0.162 HD
HETATM   16  O   UNL     1      42.120 -14.870   7.178  1.00  0.00    -0.268 OA
BRANCH  14  17
HETATM   17  C   UNL     1      44.225 -16.375   6.308  1.00  0.00     0.150 C 
BRANCH  17  18
HETATM   18  C   UNL     1      43.538 -17.755   6.320  1.00  0.00     0.254 C 
BRANCH  18  19
HETATM   19  N   UNL     1      43.505 -18.447   4.962  1.00  0.00    -0.070 N 
HETATM   20  H   UNL     1      42.578 -18.889   4.906  1.00  0.00     0.279 HD
BRANCH  19  21
HETATM   21  C   UNL     1      44.505 -19.592   4.856  1.00  0.00     0.230 C 
HETATM   22  C   UNL     1      43.863 -20.909   5.259  1.00  0.00     0.034 C 
ENDBRANCH  19  21
BRANCH  19  23
HETATM   23  C   UNL     1      43.586 -17.523   3.764  1.00  0.00     0.230 C 
HETATM   24  C   UNL     1      43.361 -18.280   2.468  1.00  0.00     0.034 C 
ENDBRANCH  19  23
ENDBRANCH  18  19
ENDBRANCH  17  18
ENDBRANCH  14  17
ENDBRANCH   1  13
BRANCH   1  25
HETATM   25  O   UNL     1      40.665 -12.952   5.538  1.00  0.00    -0.359 OA
HETATM   26  H   UNL     1      39.956 -13.407   5.054  1.00  0.00     0.213 HD
ENDBRANCH   1  25
BRANCH   2  27
HETATM   27  C   UNL     1      43.475 -11.806   5.998  1.00  0.00     0.043 A 
HETATM   28  C   UNL     1      42.782 -10.881   6.798  1.00  0.00     0.037 A 
HETATM   29  C   UNL     1      43.386 -10.209   7.880  1.00  0.00    -0.054 A 
HETATM   30  C   UNL     1      42.565  -9.237   8.687  1.00  0.00     0.049 C 
HETATM   31  C   UNL     1      44.737 -10.445   8.169  1.00  0.00    -0.056 A 
HETATM   32  C   UNL     1      45.428  -9.774   9.323  1.00  0.00     0.049 C 
HETATM   33  C   UNL     1      45.440 -11.365   7.384  1.00  0.00     0.009 A 
HETATM   34  C   UNL     1      44.824 -12.027   6.314  1.00  0.00     0.030 A 
ENDBRANCH   2  27
TORSDOF 8
ENDMDL
MODEL 4
REMARK VINA RESULT:      -7.5      2.396      5.928
REMARK  8 active torsions:
REMARK  status: ('A' for Active; 'I' for Inactive)
REMARK    1  A    between atoms: C_2  and  N_3 
REMARK    2  A    between atoms: N_3  and  C_5 
REMARK    3  A    between atoms: N_3  and  C_30 
REMARK    4  A    between atoms: C_5  and  C_6 
REMARK    5  A    between atoms: C_6  and  N_7 
REMARK       I    between atoms: N_7  and  C_8 
REMARK    6  A    between atoms: C_8  and  C_9 
REMARK    7  A    between atoms: C_9  and  O_10 
REMARK    8  A    between atoms: N_11  and  C_12 
ROOT
HETATM    1  C   UNL     1      40.617 -14.929   3.362  1.00  0.00     0.256 C 
HETATM    2  N   UNL     1      41.410 -14.969   2.112  1.00  0.00    -0.254 N 
HETATM    3  C   UNL     1      42.547 -15.767   2.022  1.00  0.00     0.330 C 
HETATM    4  O   UNL     1      43.158 -16.030   0.988  1.00  0.00    -0.246 OA
HETATM    5  N   UNL     1      43.053 -16.292   3.168  1.00  0.00    -0.308 N 
HETATM    6  C   UNL     1      42.512 -16.171   4.433  1.00  0.00     0.048 A 
HETATM    7  C   UNL     1      41.302 -15.516   4.582  1.00  0.00     0.034 A 
HETATM    8  C   UNL     1      43.177 -16.733   5.524  1.00  0.00     0.030 A 
HETATM    9  C   UNL     1      42.618 -16.642   6.797  1.00  0.00     0.002 A 
HETATM   10  C   UNL     1      41.389 -16.010   6.968  1.00  0.00     0.001 A 
HETATM   11  C   UNL     1      40.729 -15.461   5.867  1.00  0.00     0.015 A 
HETATM   12  H   UNL     1      43.892 -16.844   3.031  1.00  0.00     0.170 HD
ENDROOT
BRANCH   1  13
HETATM   13  C   UNL     1      40.299 -13.395   3.732  1.00  0.00     0.279 C 
HETATM   14  N   UNL     1      41.350 -12.675   4.298  1.00  0.00    -0.355 N 
HETATM   15  H   UNL     1      42.286 -13.048   4.152  1.00  0.00     0.162 HD
HETATM   16  O   UNL     1      39.178 -12.883   3.667  1.00  0.00    -0.268 OA
BRANCH  14  17
HETATM   17  C   UNL     1      41.178 -11.267   4.585  1.00  0.00     0.150 C 
BRANCH  17  18
HETATM   18  C   UNL     1      42.408 -10.665   5.291  1.00  0.00     0.254 C 
BRANCH  18  19
HETATM   19  N   UNL     1      42.465 -10.942   6.789  1.00  0.00    -0.070 N 
HETATM   20  H   UNL     1      41.717 -11.626   6.967  1.00  0.00     0.279 HD
BRANCH  19  21
HETATM   21  C   UNL     1      42.104  -9.723   7.632  1.00  0.00     0.230 C 
HETATM   22  C   UNL     1      43.310  -9.229   8.412  1.00  0.00     0.034 C 
ENDBRANCH  19  21
BRANCH  19  23
HETATM   23  C   UNL     1      43.740 -11.598   7.278  1.00  0.00     0.230 C 
HETATM   24  C   UNL     1      43.841 -13.033   6.795  1.00  0.00     0.034 C 
ENDBRANCH  19  23
ENDBRANCH  18  19
ENDBRANCH  17  18
ENDBRANCH  14  17
ENDBRANCH   1  13
BRANCH   1  25
HETATM   25  O   UNL     1      39.474 -15.740   3.163  1.00  0.00    -0.359 OA
HETATM   26  H   UNL     1      38.999 -15.719   4.011  1.00  0.00     0.213 HD
ENDBRANCH   1  25
BRANCH   2  27
HETATM   27  C   UNL     1      40.954 -14.214   0.950  1.00  0.00     0.043 A 
HETATM   28  C   UNL     1      40.151 -14.818  -0.033  1.00  0.00     0.037 A 
HETATM   29  C   UNL     1      39.743 -14.143  -1.202  1.00  0.00    -0.054 A 
HETATM   30  C   UNL     1      38.879 -14.868  -2.200  1.00  0.00     0.049 C 
HETATM   31  C   UNL     1      40.165 -12.824  -1.417  1.00  0.00    -0.056 A 
HETATM   32  C   UNL     1      39.745 -12.048  -2.634  1.00  0.00     0.049 C 
HETATM   33  C   UNL     1      40.962 -12.207  -0.447  1.00  0.00     0.009 A 
HETATM   34  C   UNL     1      41.356 -12.891   0.711  1.00  0.00     0.030 A 
ENDBRANCH   2  27
TORSDOF 8
ENDMDL
MODEL 5
REMARK VINA RESULT:      -7.3      2.145      6.209
REMARK  8 active torsions:
REMARK  status: ('A' for Active; 'I' for Inactive)
REMARK    1  A    between atoms: C_2  and  N_3 
REMARK    2  A    between atoms: N_3  and  C_5 
REMARK    3  A    between atoms: N_3  and  C_30 
REMARK    4  A    between atoms: C_5  and  C_6 
REMARK    5  A    between atoms: C_6  and  N_7 
REMARK       I    between atoms: N_7  and  C_8 
REMARK    6  A    between atoms: C_8  and  C_9 
REMARK    7  A    between atoms: C_9  and  O_10 
REMARK    8  A    between atoms: N_11  and  C_12 
ROOT
HETATM    1  C   UNL     1      40.382 -13.200   1.177  1.00  0.00     0.256 C 
HETATM    2  N   UNL     1      41.221 -12.012   1.450  1.00  0.00    -0.254 N 
HETATM    3  C   UNL     1      41.449 -11.065   0.456  1.00  0.00     0.330 C 
HETATM    4  O   UNL     1      41.954  -9.957   0.623  1.00  0.00    -0.246 OA
HETATM    5  N   UNL     1      41.112 -11.384  -0.821  1.00  0.00    -0.308 N 
HETATM    6  C   UNL     1      40.493 -12.546  -1.239  1.00  0.00     0.048 A 
HETATM    7  C   UNL     1      40.100 -13.473  -0.289  1.00  0.00     0.034 A 
HETATM    8  C   UNL     1      40.250 -12.748  -2.599  1.00  0.00     0.030 A 
HETATM    9  C   UNL     1      39.596 -13.904  -3.021  1.00  0.00     0.002 A 
HETATM   10  C   UNL     1      39.169 -14.838  -2.081  1.00  0.00     0.001 A 
HETATM   11  C   UNL     1      39.408 -14.619  -0.724  1.00  0.00     0.015 A 
HETATM   12  H   UNL     1      41.326 -10.658  -1.495  1.00  0.00     0.170 HD
ENDROOT
BRANCH   1  13
HETATM   13  C   UNL     1      41.134 -14.512   1.730  1.00  0.00     0.279 C 
HETATM   14  N   UNL     1      40.534 -15.145   2.817  1.00  0.00    -0.355 N 
HETATM   15  H   UNL     1      39.550 -14.939   2.976  1.00  0.00     0.162 HD
HETATM   16  O   UNL     1      42.242 -14.893   1.343  1.00  0.00    -0.268 OA
BRANCH  14  17
HETATM   17  C   UNL     1      41.096 -16.378   3.325  1.00  0.00     0.150 C 
BRANCH  17  18
HETATM   18  C   UNL     1      42.315 -16.128   4.235  1.00  0.00     0.254 C 
BRANCH  18  19
HETATM   19  N   UNL     1      43.562 -16.907   3.833  1.00  0.00    -0.070 N 
HETATM   20  H   UNL     1      44.248 -16.194   3.550  1.00  0.00     0.279 HD
BRANCH  19  21
HETATM   21  C   UNL     1      43.348 -17.773   2.597  1.00  0.00     0.230 C 
HETATM   22  C   UNL     1      43.852 -19.186   2.834  1.00  0.00     0.034 C 
ENDBRANCH  19  21
BRANCH  19  23
HETATM   23  C   UNL     1      44.226 -17.686   4.951  1.00  0.00     0.230 C 
HETATM   24  C   UNL     1      43.366 -17.697   6.201  1.00  0.00     0.034 C 
ENDBRANCH  19  23
ENDBRANCH  18  19
ENDBRANCH  17  18
ENDBRANCH  14  17
ENDBRANCH   1  13
BRANCH   1  25
HETATM   25  O   UNL     1      39.110 -12.961   1.752  1.00  0.00    -0.359 OA
HETATM   26  H   UNL     1      38.935 -12.019   1.594  1.00  0.00     0.213 HD
ENDBRANCH   1  25
BRANCH   2  27
HETATM   27  C   UNL     1      41.756 -11.805   2.792  1.00  0.00     0.043 A 
HETATM   28  C   UNL     1      40.924 -11.382   3.843  1.00  0.00     0.037 A 
HETATM   29  C   UNL     1      41.412 -11.108   5.136  1.00  0.00    -0.054 A 
HETATM   30  C   UNL     1      40.446 -10.663   6.204  1.00  0.00     0.049 C 
HETATM   31  C   UNL     1      42.784 -11.237   5.395  1.00  0.00    -0.056 A 
HETATM   32  C   UNL     1      43.358 -10.980   6.760  1.00  0.00     0.049 C 
HETATM   33  C   UNL     1      43.626 -11.661   4.361  1.00  0.00     0.009 A 
HETATM   34  C   UNL     1      43.123 -11.932   3.081  1.00  0.00     0.030 A 
ENDBRANCH   2  27
TORSDOF 8
ENDMDL
MODEL 6
REMARK VINA RESULT:      -7.3     14.788     17.116
REMARK  8 active torsions:
REMARK  status: ('A' for Active; 'I' for Inactive)
REMARK    1  A    between atoms: C_2  and  N_3 
REMARK    2  A    between atoms: N_3  and  C_5 
REMARK    3  A    between atoms: N_3  and  C_30 
REMARK    4  A    between atoms: C_5  and  C_6 
REMARK    5  A    between atoms: C_6  and  N_7 
REMARK       I    between atoms: N_7  and  C_8 
REMARK    6  A    between atoms: C_8  and  C_9 
REMARK    7  A    between atoms: C_9  and  O_10 
REMARK    8  A    between atoms: N_11  and  C_12 
ROOT
HETATM    1  C   UNL     1      47.659 -29.060   1.141  1.00  0.00     0.256 C 
HETATM    2  N   UNL     1      48.967 -29.737   0.992  1.00  0.00    -0.254 N 
HETATM    3  C   UNL     1      49.596 -29.793  -0.248  1.00  0.00     0.330 C 
HETATM    4  O   UNL     1      50.756 -30.146  -0.448  1.00  0.00    -0.246 OA
HETATM    5  N   UNL     1      48.875 -29.453  -1.348  1.00  0.00    -0.308 N 
HETATM    6  C   UNL     1      47.576 -28.983  -1.363  1.00  0.00     0.048 A 
HETATM    7  C   UNL     1      46.932 -28.760  -0.158  1.00  0.00     0.034 A 
HETATM    8  C   UNL     1      46.952 -28.717  -2.583  1.00  0.00     0.030 A 
HETATM    9  C   UNL     1      45.653 -28.212  -2.600  1.00  0.00     0.002 A 
HETATM   10  C   UNL     1      44.995 -27.956  -1.400  1.00  0.00     0.001 A 
HETATM   11  C   UNL     1      45.634 -28.217  -0.187  1.00  0.00     0.015 A 
HETATM   12  H   UNL     1      49.388 -29.537  -2.218  1.00  0.00     0.170 HD
ENDROOT
BRANCH   1  13
HETATM   13  C   UNL     1      46.671 -30.007   1.988  1.00  0.00     0.279 C 
HETATM   14  N   UNL     1      46.208 -31.146   1.331  1.00  0.00    -0.355 N 
HETATM   15  H   UNL     1      46.744 -31.454   0.522  1.00  0.00     0.162 HD
HETATM   16  O   UNL     1      46.214 -29.720   3.098  1.00  0.00    -0.268 OA
BRANCH  14  17
HETATM   17  C   UNL     1      45.382 -32.097   2.044  1.00  0.00     0.150 C 
BRANCH  17  18
HETATM   18  C   UNL     1      43.879 -31.794   1.886  1.00  0.00     0.254 C 
BRANCH  18  19
HETATM   19  N   UNL     1      43.293 -30.945   3.009  1.00  0.00    -0.070 N 
HETATM   20  H   UNL     1      44.074 -30.773   3.655  1.00  0.00     0.279 HD
BRANCH  19  21
HETATM   21  C   UNL     1      42.247 -31.690   3.831  1.00  0.00     0.230 C 
HETATM   22  C   UNL     1      41.301 -30.716   4.512  1.00  0.00     0.034 C 
ENDBRANCH  19  21
BRANCH  19  23
HETATM   23  C   UNL     1      42.801 -29.574   2.593  1.00  0.00     0.230 C 
HETATM   24  C   UNL     1      42.560 -29.505   1.096  1.00  0.00     0.034 C 
ENDBRANCH  19  23
ENDBRANCH  18  19
ENDBRANCH  17  18
ENDBRANCH  14  17
ENDBRANCH   1  13
BRANCH   1  25
HETATM   25  O   UNL     1      47.903 -27.791   1.720  1.00  0.00    -0.359 OA
HETATM   26  H   UNL     1      48.869 -27.732   1.801  1.00  0.00     0.213 HD
ENDBRANCH   1  25
BRANCH   2  27
HETATM   27  C   UNL     1      49.624 -30.291   2.170  1.00  0.00     0.043 A 
HETATM   28  C   UNL     1      49.928 -31.662   2.249  1.00  0.00     0.037 A 
HETATM   29  C   UNL     1      50.503 -32.248   3.395  1.00  0.00    -0.054 A 
HETATM   30  C   UNL     1      50.799 -33.725   3.390  1.00  0.00     0.049 C 
HETATM   31  C   UNL     1      50.768 -31.450   4.517  1.00  0.00    -0.056 A 
HETATM   32  C   UNL     1      51.400 -32.016   5.758  1.00  0.00     0.049 C 
HETATM   33  C   UNL     1      50.475 -30.084   4.453  1.00  0.00     0.009 A 
HETATM   34  C   UNL     1      49.906 -29.516   3.305  1.00  0.00     0.030 A 
ENDBRANCH   2  27
TORSDOF 8
ENDMDL
MODEL 7
REMARK VINA RESULT:      -7.1      2.467      5.287
REMARK  8 active torsions:
REMARK  status: ('A' for Active; 'I' for Inactive)
REMARK    1  A    between atoms: C_2  and  N_3 
REMARK    2  A    between atoms: N_3  and  C_5 
REMARK    3  A    between atoms: N_3  and  C_30 
REMARK    4  A    between atoms: C_5  and  C_6 
REMARK    5  A    between atoms: C_6  and  N_7 
REMARK       I    between atoms: N_7  and  C_8 
REMARK    6  A    between atoms: C_8  and  C_9 
REMARK    7  A    between atoms: C_9  and  O_10 
REMARK    8  A    between atoms: N_11  and  C_12 
ROOT
HETATM    1  C   UNL     1      41.461 -15.644   4.497  1.00  0.00     0.256 C 
HETATM    2  N   UNL     1      41.481 -15.011   3.159  1.00  0.00    -0.254 N 
HETATM    3  C   UNL     1      42.108 -15.641   2.089  1.00  0.00     0.330 C 
HETATM    4  O   UNL     1      42.015 -15.312   0.908  1.00  0.00    -0.246 OA
HETATM    5  N   UNL     1      42.914 -16.702   2.353  1.00  0.00    -0.308 N 
HETATM    6  C   UNL     1      43.133 -17.276   3.590  1.00  0.00     0.048 A 
HETATM    7  C   UNL     1      42.430 -16.798   4.683  1.00  0.00     0.034 A 
HETATM    8  C   UNL     1      44.030 -18.340   3.709  1.00  0.00     0.030 A 
HETATM    9  C   UNL     1      44.228 -18.943   4.950  1.00  0.00     0.002 A 
HETATM   10  C   UNL     1      43.513 -18.495   6.057  1.00  0.00     0.001 A 
HETATM   11  C   UNL     1      42.611 -17.438   5.923  1.00  0.00     0.015 A 
HETATM   12  H   UNL     1      43.355 -17.098   1.531  1.00  0.00     0.170 HD
ENDROOT
BRANCH   1  13
HETATM   13  C   UNL     1      41.869 -14.547   5.602  1.00  0.00     0.279 C 
HETATM   14  N   UNL     1      43.214 -14.181   5.629  1.00  0.00    -0.355 N 
HETATM   15  H   UNL     1      43.755 -14.378   4.790  1.00  0.00     0.162 HD
HETATM   16  O   UNL     1      41.110 -14.129   6.481  1.00  0.00    -0.268 OA
BRANCH  14  17
HETATM   17  C   UNL     1      43.654 -13.140   6.534  1.00  0.00     0.150 C 
BRANCH  17  18
HETATM   18  C   UNL     1      43.706 -11.760   5.851  1.00  0.00     0.254 C 
BRANCH  18  19
HETATM   19  N   UNL     1      43.732 -10.585   6.821  1.00  0.00    -0.070 N 
HETATM   20  H   UNL     1      44.092  -9.790   6.276  1.00  0.00     0.279 HD
BRANCH  19  21
HETATM   21  C   UNL     1      44.730 -10.777   7.958  1.00  0.00     0.230 C 
HETATM   22  C   UNL     1      46.156 -10.623   7.456  1.00  0.00     0.034 C 
ENDBRANCH  19  21
BRANCH  19  23
HETATM   23  C   UNL     1      42.378 -10.142   7.337  1.00  0.00     0.230 C 
HETATM   24  C   UNL     1      41.288 -10.394   6.312  1.00  0.00     0.034 C 
ENDBRANCH  19  23
ENDBRANCH  18  19
ENDBRANCH  17  18
ENDBRANCH  14  17
ENDBRANCH   1  13
BRANCH   1  25
HETATM   25  O   UNL     1      40.179 -16.216   4.676  1.00  0.00    -0.359 OA
HETATM   26  H   UNL     1      39.662 -15.538   5.142  1.00  0.00     0.213 HD
ENDBRANCH   1  25
BRANCH   2  27
HETATM   27  C   UNL     1      40.780 -13.748   2.954  1.00  0.00     0.043 A 
HETATM   28  C   UNL     1      41.487 -12.536   2.868  1.00  0.00     0.037 A 
HETATM   29  C   UNL     1      40.845 -11.288   2.737  1.00  0.00    -0.054 A 
HETATM   30  C   UNL     1      41.683 -10.040   2.647  1.00  0.00     0.049 C 
HETATM   31  C   UNL     1      39.444 -11.235   2.711  1.00  0.00    -0.056 A 
HETATM   32  C   UNL     1      38.706  -9.936   2.551  1.00  0.00     0.049 C 
HETATM   33  C   UNL     1      38.725 -12.432   2.793  1.00  0.00     0.009 A 
HETATM   34  C   UNL     1      39.380 -13.665   2.920  1.00  0.00     0.030 A 
ENDBRANCH   2  27
TORSDOF 8
ENDMDL
MODEL 8
REMARK VINA RESULT:      -7.0      2.088      5.932
REMARK  8 active torsions:
REMARK  status: ('A' for Active; 'I' for Inactive)
REMARK    1  A    between atoms: C_2  and  N_3 
REMARK    2  A    between atoms: N_3  and  C_5 
REMARK    3  A    between atoms: N_3  and  C_30 
REMARK    4  A    between atoms: C_5  and  C_6 
REMARK    5  A    between atoms: C_6  and  N_7 
REMARK       I    between atoms: N_7  and  C_8 
REMARK    6  A    between atoms: C_8  and  C_9 
REMARK    7  A    between atoms: C_9  and  O_10 
REMARK    8  A    between atoms: N_11  and  C_12 
ROOT
HETATM    1  C   UNL     1      40.495 -13.042   5.159  1.00  0.00     0.256 C 
HETATM    2  N   UNL     1      41.870 -13.494   5.473  1.00  0.00    -0.254 N 
HETATM    3  C   UNL     1      42.665 -12.773   6.358  1.00  0.00     0.330 C 
HETATM    4  O   UNL     1      43.729 -13.156   6.839  1.00  0.00    -0.246 OA
HETATM    5  N   UNL     1      42.258 -11.527   6.714  1.00  0.00    -0.308 N 
HETATM    6  C   UNL     1      41.082 -10.910   6.338  1.00  0.00     0.048 A 
HETATM    7  C   UNL     1      40.169 -11.621   5.577  1.00  0.00     0.034 A 
HETATM    8  C   UNL     1      40.824  -9.602   6.753  1.00  0.00     0.030 A 
HETATM    9  C   UNL     1      39.623  -8.989   6.402  1.00  0.00     0.002 A 
HETATM   10  C   UNL     1      38.679  -9.692   5.659  1.00  0.00     0.001 A 
HETATM   11  C   UNL     1      38.944 -11.003   5.260  1.00  0.00     0.015 A 
HETATM   12  H   UNL     1      42.896 -11.052   7.344  1.00  0.00     0.170 HD
ENDROOT
BRANCH   1  13
HETATM   13  C   UNL     1      40.278 -13.091   3.565  1.00  0.00     0.279 C 
HETATM   14  N   UNL     1      40.942 -12.111   2.830  1.00  0.00    -0.355 N 
HETATM   15  H   UNL     1      41.728 -11.655   3.288  1.00  0.00     0.162 HD
HETATM   16  O   UNL     1      39.479 -13.840   2.995  1.00  0.00    -0.268 OA
BRANCH  14  17
HETATM   17  C   UNL     1      40.870 -12.130   1.384  1.00  0.00     0.150 C 
BRANCH  17  18
HETATM   18  C   UNL     1      39.508 -11.630   0.864  1.00  0.00     0.254 C 
BRANCH  18  19
HETATM   19  N   UNL     1      38.743 -12.656   0.035  1.00  0.00    -0.070 N 
HETATM   20  H   UNL     1      38.105 -13.117   0.697  1.00  0.00     0.279 HD
BRANCH  19  21
HETATM   21  C   UNL     1      39.637 -13.768  -0.503  1.00  0.00     0.230 C 
HETATM   22  C   UNL     1      39.153 -14.237  -1.865  1.00  0.00     0.034 C 
ENDBRANCH  19  21
BRANCH  19  23
HETATM   23  C   UNL     1      37.857 -12.080  -1.049  1.00  0.00     0.230 C 
HETATM   24  C   UNL     1      37.733 -10.573  -0.918  1.00  0.00     0.034 C 
ENDBRANCH  19  23
ENDBRANCH  18  19
ENDBRANCH  17  18
ENDBRANCH  14  17
ENDBRANCH   1  13
BRANCH   1  25
HETATM   25  O   UNL     1      39.603 -13.852   5.903  1.00  0.00    -0.359 OA
HETATM   26  H   UNL     1      39.696 -13.552   6.822  1.00  0.00     0.213 HD
ENDBRANCH   1  25
BRANCH   2  27
HETATM   27  C   UNL     1      42.362 -14.740   4.896  1.00  0.00     0.043 A 
HETATM   28  C   UNL     1      42.764 -14.803   3.550  1.00  0.00     0.037 A 
HETATM   29  C   UNL     1      43.184 -16.001   2.936  1.00  0.00    -0.054 A 
HETATM   30  C   UNL     1      43.601 -15.974   1.489  1.00  0.00     0.049 C 
HETATM   31  C   UNL     1      43.186 -17.190   3.679  1.00  0.00    -0.056 A 
HETATM   32  C   UNL     1      43.644 -18.492   3.084  1.00  0.00     0.049 C 
HETATM   33  C   UNL     1      42.792 -17.144   5.021  1.00  0.00     0.009 A 
HETATM   34  C   UNL     1      42.380 -15.944   5.616  1.00  0.00     0.030 A 
ENDBRANCH   2  27
TORSDOF 8
ENDMDL
MODEL 9
REMARK VINA RESULT:      -7.0     14.768     17.054
REMARK  8 active torsions:
REMARK  status: ('A' for Active; 'I' for Inactive)
REMARK    1  A    between atoms: C_2  and  N_3 
REMARK    2  A    between atoms: N_3  and  C_5 
REMARK    3  A    between atoms: N_3  and  C_30 
REMARK    4  A    between atoms: C_5  and  C_6 
REMARK    5  A    between atoms: C_6  and  N_7 
REMARK       I    between atoms: N_7  and  C_8 
REMARK    6  A    between atoms: C_8  and  C_9 
REMARK    7  A    between atoms: C_9  and  O_10 
REMARK    8  A    between atoms: N_11  and  C_12 
ROOT
HETATM    1  C   UNL     1      47.610 -29.181   0.004  1.00  0.00     0.256 C 
HETATM    2  N   UNL     1      48.279 -30.470   0.294  1.00  0.00    -0.254 N 
HETATM    3  C   UNL     1      48.238 -31.511  -0.628  1.00  0.00     0.330 C 
HETATM    4  O   UNL     1      48.914 -32.536  -0.584  1.00  0.00    -0.246 OA
HETATM    5  N   UNL     1      47.363 -31.414  -1.663  1.00  0.00    -0.308 N 
HETATM    6  C   UNL     1      46.539 -30.341  -1.943  1.00  0.00     0.048 A 
HETATM    7  C   UNL     1      46.630 -29.206  -1.155  1.00  0.00     0.034 A 
HETATM    8  C   UNL     1      45.658 -30.410  -3.024  1.00  0.00     0.030 A 
HETATM    9  C   UNL     1      44.850 -29.316  -3.328  1.00  0.00     0.002 A 
HETATM   10  C   UNL     1      44.942 -28.155  -2.565  1.00  0.00     0.001 A 
HETATM   11  C   UNL     1      45.835 -28.096  -1.494  1.00  0.00     0.015 A 
HETATM   12  H   UNL     1      47.371 -32.216  -2.284  1.00  0.00     0.170 HD
ENDROOT
BRANCH   1  13
HETATM   13  C   UNL     1      46.755 -28.733   1.292  1.00  0.00     0.279 C 
HETATM   14  N   UNL     1      45.573 -29.438   1.513  1.00  0.00    -0.355 N 
HETATM   15  H   UNL     1      45.494 -30.346   1.060  1.00  0.00     0.162 HD
HETATM   16  O   UNL     1      47.013 -27.749   1.990  1.00  0.00    -0.268 OA
BRANCH  14  17
HETATM   17  C   UNL     1      44.783 -29.158   2.693  1.00  0.00     0.150 C 
BRANCH  17  18
HETATM   18  C   UNL     1      43.333 -29.660   2.555  1.00  0.00     0.254 C 
BRANCH  18  19
HETATM   19  N   UNL     1      42.825 -30.437   3.764  1.00  0.00    -0.070 N 
HETATM   20  H   UNL     1      43.383 -30.098   4.559  1.00  0.00     0.279 HD
BRANCH  19  21
HETATM   21  C   UNL     1      43.116 -31.931   3.675  1.00  0.00     0.230 C 
HETATM   22  C   UNL     1      44.169 -32.337   4.693  1.00  0.00     0.034 C 
ENDBRANCH  19  21
BRANCH  19  23
HETATM   23  C   UNL     1      41.382 -30.173   4.142  1.00  0.00     0.230 C 
HETATM   24  C   UNL     1      40.562 -31.450   4.113  1.00  0.00     0.034 C 
ENDBRANCH  19  23
ENDBRANCH  18  19
ENDBRANCH  17  18
ENDBRANCH  14  17
ENDBRANCH   1  13
BRANCH   1  25
HETATM   25  O   UNL     1      48.613 -28.263  -0.390  1.00  0.00    -0.359 OA
HETATM   26  H   UNL     1      48.872 -27.806   0.427  1.00  0.00     0.213 HD
ENDBRANCH   1  25
BRANCH   2  27
HETATM   27  C   UNL     1      49.040 -30.619   1.530  1.00  0.00     0.043 A 
HETATM   28  C   UNL     1      48.445 -31.159   2.683  1.00  0.00     0.037 A 
HETATM   29  C   UNL     1      49.125 -31.259   3.914  1.00  0.00    -0.054 A 
HETATM   30  C   UNL     1      48.409 -31.855   5.098  1.00  0.00     0.049 C 
HETATM   31  C   UNL     1      50.441 -30.786   4.014  1.00  0.00    -0.056 A 
HETATM   32  C   UNL     1      51.222 -30.887   5.294  1.00  0.00     0.049 C 
HETATM   33  C   UNL     1      51.049 -30.249   2.874  1.00  0.00     0.009 A 
HETATM   34  C   UNL     1      50.360 -30.159   1.657  1.00  0.00     0.030 A 
ENDBRANCH   2  27
TORSDOF 8
ENDMDL
MODEL 10
REMARK VINA RESULT:      -6.9     15.158     18.188
REMARK  8 active torsions:
REMARK  status: ('A' for Active; 'I' for Inactive)
REMARK    1  A    between atoms: C_2  and  N_3 
REMARK    2  A    between atoms: N_3  and  C_5 
REMARK    3  A    between atoms: N_3  and  C_30 
REMARK    4  A    between atoms: C_5  and  C_6 
REMARK    5  A    between atoms: C_6  and  N_7 
REMARK       I    between atoms: N_7  and  C_8 
REMARK    6  A    between atoms: C_8  and  C_9 
REMARK    7  A    between atoms: C_9  and  O_10 
REMARK    8  A    between atoms: N_11  and  C_12 
ROOT
HETATM    1  C   UNL     1      48.245 -29.769   0.399  1.00  0.00     0.256 C 
HETATM    2  N   UNL     1      46.766 -29.706   0.445  1.00  0.00    -0.254 N 
HETATM    3  C   UNL     1      46.106 -29.503   1.653  1.00  0.00     0.330 C 
HETATM    4  O   UNL     1      44.912 -29.237   1.781  1.00  0.00    -0.246 OA
HETATM    5  N   UNL     1      46.820 -29.628   2.802  1.00  0.00    -0.308 N 
HETATM    6  C   UNL     1      48.175 -29.874   2.902  1.00  0.00     0.048 A 
HETATM    7  C   UNL     1      48.929 -29.942   1.742  1.00  0.00     0.034 A 
HETATM    8  C   UNL     1      48.759 -30.020   4.161  1.00  0.00     0.030 A 
HETATM    9  C   UNL     1      50.132 -30.237   4.266  1.00  0.00     0.002 A 
HETATM   10  C   UNL     1      50.914 -30.283   3.115  1.00  0.00     0.001 A 
HETATM   11  C   UNL     1      50.319 -30.125   1.863  1.00  0.00     0.015 A 
HETATM   12  H   UNL     1      46.272 -29.488   3.643  1.00  0.00     0.170 HD
ENDROOT
BRANCH   1  13
HETATM   13  C   UNL     1      48.688 -31.039  -0.486  1.00  0.00     0.279 C 
HETATM   14  N   UNL     1      49.341 -30.749  -1.682  1.00  0.00    -0.355 N 
HETATM   15  H   UNL     1      49.756 -29.823  -1.760  1.00  0.00     0.162 HD
HETATM   16  O   UNL     1      48.373 -32.206  -0.234  1.00  0.00    -0.268 OA
BRANCH  14  17
HETATM   17  C   UNL     1      49.849 -31.831  -2.500  1.00  0.00     0.150 C 
BRANCH  17  18
HETATM   18  C   UNL     1      51.355 -31.681  -2.790  1.00  0.00     0.254 C 
BRANCH  18  19
HETATM   19  N   UNL     1      52.254 -32.450  -1.829  1.00  0.00    -0.070 N 
HETATM   20  H   UNL     1      52.543 -31.764  -1.119  1.00  0.00     0.279 HD
BRANCH  19  21
HETATM   21  C   UNL     1      53.549 -32.924  -2.479  1.00  0.00     0.230 C 
HETATM   22  C   UNL     1      54.695 -32.900  -1.481  1.00  0.00     0.034 C 
ENDBRANCH  19  21
BRANCH  19  23
HETATM   23  C   UNL     1      51.576 -33.566  -1.061  1.00  0.00     0.230 C 
HETATM   24  C   UNL     1      51.626 -33.317   0.435  1.00  0.00     0.034 C 
ENDBRANCH  19  23
ENDBRANCH  18  19
ENDBRANCH  17  18
ENDBRANCH  14  17
ENDBRANCH   1  13
BRANCH   1  25
HETATM   25  O   UNL     1      48.706 -28.521  -0.084  1.00  0.00    -0.359 OA
HETATM   26  H   UNL     1      49.193 -28.127   0.658  1.00  0.00     0.213 HD
ENDBRANCH   1  25
BRANCH   2  27
HETATM   27  C   UNL     1      46.007 -29.794  -0.797  1.00  0.00     0.043 A 
HETATM   28  C   UNL     1      45.973 -28.717  -1.700  1.00  0.00     0.037 A 
HETATM   29  C   UNL     1      45.199 -28.736  -2.878  1.00  0.00    -0.054 A 
HETATM   30  C   UNL     1      45.227 -27.537  -3.790  1.00  0.00     0.049 C 
HETATM   31  C   UNL     1      44.410 -29.858  -3.165  1.00  0.00    -0.056 A 
HETATM   32  C   UNL     1      43.582 -29.944  -4.417  1.00  0.00     0.049 C 
HETATM   33  C   UNL     1      44.435 -30.941  -2.279  1.00  0.00     0.009 A 
HETATM   34  C   UNL     1      45.211 -30.907  -1.113  1.00  0.00     0.030 A 
ENDBRANCH   2  27
TORSDOF 8
ENDMDL
