MODEL 1
REMARK VINA RESULT:      -7.3      0.000      0.000
REMARK  6 active torsions:
REMARK  status: ('A' for Active; 'I' for Inactive)
REMARK    1  A    between atoms: C_2  and  O_3 
REMARK    2  A    between atoms: O_3  and  C_4 
REMARK    3  A    between atoms: C_4  and  C_5 
REMARK    4  A    between atoms: C_6  and  O_7 
REMARK    5  A    between atoms: C_12  and  O_13 
REMARK    6  A    between atoms: C_17  and  C_18 
ROOT
HETATM    1  C   UNL     1      43.121 -15.600   5.681  1.00  0.00     0.133 C 
HETATM    2  C   UNL     1      43.711 -16.314   6.936  1.00  0.00     0.073 C 
HETATM    3  C   UNL     1      43.247 -15.679   8.256  1.00  0.00     0.047 C 
HETATM    4  C   UNL     1      43.433 -17.846   6.975  1.00  0.00     0.097 C 
HETATM    5  C   UNL     1      43.596 -18.429   5.619  1.00  0.00     0.042 A 
HETATM    6  C   UNL     1      43.625 -17.753   4.417  1.00  0.00     0.030 A 
HETATM    7  C   UNL     1      43.899 -18.770   3.488  1.00  0.00     0.190 A 
HETATM    8  N   UNL     1      43.976 -19.981   4.027  1.00  0.00    -0.149 NA
HETATM    9  N   UNL     1      43.804 -19.747   5.338  1.00  0.00    -0.279 N 
HETATM   10  H   UNL     1      43.861 -20.533   5.979  1.00  0.00     0.189 HD
HETATM   11  C   UNL     1      43.515 -16.265   4.326  1.00  0.00     0.074 C 
ENDROOT
BRANCH  11  12
HETATM   12  C   UNL     1      42.620 -15.896   3.149  1.00  0.00    -0.048 A 
HETATM   13  C   UNL     1      41.425 -16.574   2.843  1.00  0.00     0.009 A 
HETATM   14  C   UNL     1      40.617 -16.167   1.778  1.00  0.00     0.024 A 
HETATM   15  C   UNL     1      40.985 -15.065   1.014  1.00  0.00     0.034 A 
HETATM   16 CL   UNL     1      39.986 -14.556  -0.290  1.00  0.00    -0.084 Cl
HETATM   17  C   UNL     1      42.155 -14.369   1.303  1.00  0.00     0.024 A 
HETATM   18  C   UNL     1      42.967 -14.782   2.365  1.00  0.00     0.009 A 
ENDBRANCH  11  12
BRANCH   1  19
HETATM   19  C   UNL     1      41.635 -15.337   5.818  1.00  0.00     0.267 C 
HETATM   20  O   UNL     1      40.816 -16.241   5.945  1.00  0.00    -0.265 OA
BRANCH  19  21
HETATM   21  O   UNL     1      41.328 -14.018   5.753  1.00  0.00    -0.321 OA
BRANCH  21  22
HETATM   22  C   UNL     1      40.242 -13.675   4.877  1.00  0.00     0.174 C 
HETATM   23  C   UNL     1      40.588 -12.446   4.059  1.00  0.00     0.034 C 
ENDBRANCH  21  22
ENDBRANCH  19  21
ENDBRANCH   1  19
BRANCH   2  24
HETATM   24  O   UNL     1      45.147 -16.144   6.895  1.00  0.00    -0.389 OA
HETATM   25  H   UNL     1      45.388 -15.705   6.060  1.00  0.00     0.210 HD
ENDBRANCH   2  24
BRANCH   7  26
HETATM   26  O   UNL     1      44.086 -18.699   2.167  1.00  0.00    -0.343 OA
HETATM   27  H   UNL     1      43.806 -19.529   1.754  1.00  0.00     0.219 HD
ENDBRANCH   7  26
TORSDOF 6
ENDMDL
MODEL 2
REMARK VINA RESULT:      -6.8      2.726      4.712
REMARK  6 active torsions:
REMARK  status: ('A' for Active; 'I' for Inactive)
REMARK    1  A    between atoms: C_2  and  O_3 
REMARK    2  A    between atoms: O_3  and  C_4 
REMARK    3  A    between atoms: C_4  and  C_5 
REMARK    4  A    between atoms: C_6  and  O_7 
REMARK    5  A    between atoms: C_12  and  O_13 
REMARK    6  A    between atoms: C_17  and  C_18 
ROOT
HETATM    1  C   UNL     1      42.258 -16.332   3.931  1.00  0.00     0.133 C 
HETATM    2  C   UNL     1      42.903 -16.350   5.351  1.00  0.00     0.073 C 
HETATM    3  C   UNL     1      44.206 -17.161   5.403  1.00  0.00     0.047 C 
HETATM    4  C   UNL     1      43.154 -14.932   5.945  1.00  0.00     0.097 C 
HETATM    5  C   UNL     1      42.006 -14.041   5.639  1.00  0.00     0.042 A 
HETATM    6  C   UNL     1      41.022 -14.240   4.694  1.00  0.00     0.030 A 
HETATM    7  C   UNL     1      40.154 -13.155   4.906  1.00  0.00     0.190 A 
HETATM    8  N   UNL     1      40.569 -12.314   5.846  1.00  0.00    -0.149 NA
HETATM    9  N   UNL     1      41.699 -12.884   6.295  1.00  0.00    -0.279 N 
HETATM   10  H   UNL     1      42.192 -12.437   7.061  1.00  0.00     0.189 HD
HETATM   11  C   UNL     1      40.971 -15.456   3.828  1.00  0.00     0.074 C 
ENDROOT
BRANCH  11  12
HETATM   12  C   UNL     1      40.586 -15.051   2.410  1.00  0.00    -0.048 A 
HETATM   13  C   UNL     1      40.923 -13.807   1.842  1.00  0.00     0.009 A 
HETATM   14  C   UNL     1      40.584 -13.502   0.521  1.00  0.00     0.024 A 
HETATM   15  C   UNL     1      39.918 -14.443  -0.256  1.00  0.00     0.034 A 
HETATM   16 CL   UNL     1      39.511 -14.073  -1.886  1.00  0.00    -0.084 Cl
HETATM   17  C   UNL     1      39.585 -15.685   0.277  1.00  0.00     0.024 A 
HETATM   18  C   UNL     1      39.918 -15.987   1.601  1.00  0.00     0.009 A 
ENDBRANCH  11  12
BRANCH   1  19
HETATM   19  C   UNL     1      43.274 -16.046   2.844  1.00  0.00     0.267 C 
HETATM   20  O   UNL     1      43.755 -14.931   2.670  1.00  0.00    -0.265 OA
BRANCH  19  21
HETATM   21  O   UNL     1      43.555 -17.136   2.089  1.00  0.00    -0.321 OA
BRANCH  21  22
HETATM   22  C   UNL     1      42.662 -18.250   2.249  1.00  0.00     0.174 C 
HETATM   23  C   UNL     1      43.439 -19.552   2.293  1.00  0.00     0.034 C 
ENDBRANCH  21  22
ENDBRANCH  19  21
ENDBRANCH   1  19
BRANCH   2  24
HETATM   24  O   UNL     1      41.979 -17.024   6.237  1.00  0.00    -0.389 OA
HETATM   25  H   UNL     1      42.154 -16.737   7.150  1.00  0.00     0.210 HD
ENDBRANCH   2  24
BRANCH   7  26
HETATM   26  O   UNL     1      38.999 -12.851   4.310  1.00  0.00    -0.343 OA
HETATM   27  H   UNL     1      38.891 -11.889   4.281  1.00  0.00     0.219 HD
ENDBRANCH   7  26
TORSDOF 6
ENDMDL
MODEL 3
REMARK VINA RESULT:      -6.4     14.079     15.719
REMARK  6 active torsions:
REMARK  status: ('A' for Active; 'I' for Inactive)
REMARK    1  A    between atoms: C_2  and  O_3 
REMARK    2  A    between atoms: O_3  and  C_4 
REMARK    3  A    between atoms: C_4  and  C_5 
REMARK    4  A    between atoms: C_6  and  O_7 
REMARK    5  A    between atoms: C_12  and  O_13 
REMARK    6  A    between atoms: C_17  and  C_18 
ROOT
HETATM    1  C   UNL     1      46.686 -28.790  -0.150  1.00  0.00     0.133 C 
HETATM    2  C   UNL     1      45.546 -28.683  -1.208  1.00  0.00     0.073 C 
HETATM    3  C   UNL     1      46.076 -28.502  -2.639  1.00  0.00     0.047 C 
HETATM    4  C   UNL     1      44.547 -29.878  -1.177  1.00  0.00     0.097 C 
HETATM    5  C   UNL     1      44.251 -30.259   0.227  1.00  0.00     0.042 A 
HETATM    6  C   UNL     1      44.967 -29.915   1.355  1.00  0.00     0.030 A 
HETATM    7  C   UNL     1      44.192 -30.450   2.398  1.00  0.00     0.190 A 
HETATM    8  N   UNL     1      43.124 -31.121   1.982  1.00  0.00    -0.149 NA
HETATM    9  N   UNL     1      43.170 -30.978   0.647  1.00  0.00    -0.279 N 
HETATM   10  H   UNL     1      42.420 -31.380   0.094  1.00  0.00     0.189 HD
HETATM   11  C   UNL     1      46.182 -29.048   1.304  1.00  0.00     0.074 C 
ENDROOT
BRANCH  11  12
HETATM   12  C   UNL     1      47.237 -29.600   2.257  1.00  0.00    -0.048 A 
HETATM   13  C   UNL     1      47.445 -30.977   2.467  1.00  0.00     0.009 A 
HETATM   14  C   UNL     1      48.455 -31.431   3.318  1.00  0.00     0.024 A 
HETATM   15  C   UNL     1      49.283 -30.517   3.959  1.00  0.00     0.034 A 
HETATM   16 CL   UNL     1      50.534 -31.075   4.998  1.00  0.00    -0.084 Cl
HETATM   17  C   UNL     1      49.107 -29.150   3.758  1.00  0.00     0.024 A 
HETATM   18  C   UNL     1      48.091 -28.696   2.911  1.00  0.00     0.009 A 
ENDBRANCH  11  12
BRANCH   1  19
HETATM   19  C   UNL     1      47.787 -29.735  -0.587  1.00  0.00     0.267 C 
HETATM   20  O   UNL     1      47.566 -30.896  -0.913  1.00  0.00    -0.265 OA
BRANCH  19  21
HETATM   21  O   UNL     1      49.016 -29.163  -0.544  1.00  0.00    -0.321 OA
BRANCH  21  22
HETATM   22  C   UNL     1      50.123 -30.054  -0.755  1.00  0.00     0.174 C 
HETATM   23  C   UNL     1      50.748 -30.448   0.569  1.00  0.00     0.034 C 
ENDBRANCH  21  22
ENDBRANCH  19  21
ENDBRANCH   1  19
BRANCH   2  24
HETATM   24  O   UNL     1      44.788 -27.488  -0.910  1.00  0.00    -0.389 OA
HETATM   25  H   UNL     1      44.793 -26.909  -1.692  1.00  0.00     0.210 HD
ENDBRANCH   2  24
BRANCH   7  26
HETATM   26  O   UNL     1      44.372 -30.388   3.720  1.00  0.00    -0.343 OA
HETATM   27  H   UNL     1      45.074 -29.753   3.922  1.00  0.00     0.219 HD
ENDBRANCH   7  26
TORSDOF 6
ENDMDL
MODEL 4
REMARK VINA RESULT:      -6.4     14.324     15.357
REMARK  6 active torsions:
REMARK  status: ('A' for Active; 'I' for Inactive)
REMARK    1  A    between atoms: C_2  and  O_3 
REMARK    2  A    between atoms: O_3  and  C_4 
REMARK    3  A    between atoms: C_4  and  C_5 
REMARK    4  A    between atoms: C_6  and  O_7 
REMARK    5  A    between atoms: C_12  and  O_13 
REMARK    6  A    between atoms: C_17  and  C_18 
ROOT
HETATM    1  C   UNL     1      47.789 -29.342   1.642  1.00  0.00     0.133 C 
HETATM    2  C   UNL     1      48.691 -29.731   2.853  1.00  0.00     0.073 C 
HETATM    3  C   UNL     1      47.893 -29.930   4.151  1.00  0.00     0.047 C 
HETATM    4  C   UNL     1      49.579 -30.985   2.598  1.00  0.00     0.097 C 
HETATM    5  C   UNL     1      50.128 -30.948   1.219  1.00  0.00     0.042 A 
HETATM    6  C   UNL     1      49.688 -30.174   0.164  1.00  0.00     0.030 A 
HETATM    7  C   UNL     1      50.618 -30.463  -0.850  1.00  0.00     0.190 A 
HETATM    8  N   UNL     1      51.521 -31.372  -0.505  1.00  0.00    -0.149 NA
HETATM    9  N   UNL     1      51.213 -31.645   0.774  1.00  0.00    -0.279 N 
HETATM   10  H   UNL     1      51.800 -32.300   1.281  1.00  0.00     0.189 HD
HETATM   11  C   UNL     1      48.559 -29.204   0.293  1.00  0.00     0.074 C 
ENDROOT
BRANCH  11  12
HETATM   12  C   UNL     1      47.685 -29.280  -0.953  1.00  0.00    -0.048 A 
HETATM   13  C   UNL     1      47.384 -30.485  -1.616  1.00  0.00     0.009 A 
HETATM   14  C   UNL     1      46.540 -30.505  -2.730  1.00  0.00     0.024 A 
HETATM   15  C   UNL     1      45.971 -29.323  -3.186  1.00  0.00     0.034 A 
HETATM   16 CL   UNL     1      44.923 -29.347  -4.549  1.00  0.00    -0.084 Cl
HETATM   17  C   UNL     1      46.241 -28.119  -2.541  1.00  0.00     0.024 A 
HETATM   18  C   UNL     1      47.092 -28.098  -1.431  1.00  0.00     0.009 A 
ENDBRANCH  11  12
BRANCH   1  19
HETATM   19  C   UNL     1      46.552 -30.212   1.547  1.00  0.00     0.267 C 
HETATM   20  O   UNL     1      46.611 -31.435   1.474  1.00  0.00    -0.265 OA
BRANCH  19  21
HETATM   21  O   UNL     1      45.404 -29.491   1.522  1.00  0.00    -0.321 OA
BRANCH  21  22
HETATM   22  C   UNL     1      44.292 -30.113   0.859  1.00  0.00     0.174 C 
HETATM   23  C   UNL     1      43.687 -29.170  -0.164  1.00  0.00     0.034 C 
ENDBRANCH  21  22
ENDBRANCH  19  21
ENDBRANCH   1  19
BRANCH   2  24
HETATM   24  O   UNL     1      49.584 -28.621   3.101  1.00  0.00    -0.389 OA
HETATM   25  H   UNL     1      49.069 -27.878   3.463  1.00  0.00     0.210 HD
ENDBRANCH   2  24
BRANCH   7  26
HETATM   26  O   UNL     1      50.720 -29.968  -2.086  1.00  0.00    -0.343 OA
HETATM   27  H   UNL     1      50.636 -29.004  -2.058  1.00  0.00     0.219 HD
ENDBRANCH   7  26
TORSDOF 6
ENDMDL
MODEL 5
REMARK VINA RESULT:      -6.4      2.892      4.693
REMARK  6 active torsions:
REMARK  status: ('A' for Active; 'I' for Inactive)
REMARK    1  A    between atoms: C_2  and  O_3 
REMARK    2  A    between atoms: O_3  and  C_4 
REMARK    3  A    between atoms: C_4  and  C_5 
REMARK    4  A    between atoms: C_6  and  O_7 
REMARK    5  A    between atoms: C_12  and  O_13 
REMARK    6  A    between atoms: C_17  and  C_18 
ROOT
HETATM    1  C   UNL     1      41.626 -14.629   3.269  1.00  0.00     0.133 C 
HETATM    2  C   UNL     1      41.078 -13.316   3.907  1.00  0.00     0.073 C 
HETATM    3  C   UNL     1      39.743 -12.866   3.293  1.00  0.00     0.047 C 
HETATM    4  C   UNL     1      40.935 -13.383   5.457  1.00  0.00     0.097 C 
HETATM    5  C   UNL     1      42.101 -14.089   6.046  1.00  0.00     0.042 A 
HETATM    6  C   UNL     1      43.009 -14.895   5.390  1.00  0.00     0.030 A 
HETATM    7  C   UNL     1      43.940 -15.207   6.395  1.00  0.00     0.190 A 
HETATM    8  N   UNL     1      43.631 -14.707   7.586  1.00  0.00    -0.149 NA
HETATM    9  N   UNL     1      42.507 -14.011   7.346  1.00  0.00    -0.279 N 
HETATM   10  H   UNL     1      42.089 -13.493   8.113  1.00  0.00     0.189 HD
HETATM   11  C   UNL     1      42.943 -15.152   3.920  1.00  0.00     0.074 C 
ENDROOT
BRANCH  11  12
HETATM   12  C   UNL     1      43.251 -16.620   3.649  1.00  0.00    -0.048 A 
HETATM   13  C   UNL     1      43.314 -17.597   4.662  1.00  0.00     0.009 A 
HETATM   14  C   UNL     1      43.556 -18.939   4.355  1.00  0.00     0.024 A 
HETATM   15  C   UNL     1      43.721 -19.326   3.031  1.00  0.00     0.034 A 
HETATM   16 CL   UNL     1      44.007 -20.978   2.651  1.00  0.00    -0.084 Cl
HETATM   17  C   UNL     1      43.650 -18.382   2.009  1.00  0.00     0.024 A 
HETATM   18  C   UNL     1      43.415 -17.038   2.317  1.00  0.00     0.009 A 
ENDBRANCH  11  12
BRANCH   1  19
HETATM   19  C   UNL     1      40.553 -15.691   3.134  1.00  0.00     0.267 C 
HETATM   20  O   UNL     1      40.077 -16.271   4.104  1.00  0.00    -0.265 OA
BRANCH  19  21
HETATM   21  O   UNL     1      40.217 -15.935   1.844  1.00  0.00    -0.321 OA
BRANCH  21  22
HETATM   22  C   UNL     1      40.859 -15.103   0.865  1.00  0.00     0.174 C 
HETATM   23  C   UNL     1      39.869 -14.675  -0.201  1.00  0.00     0.034 C 
ENDBRANCH  21  22
ENDBRANCH  19  21
ENDBRANCH   1  19
BRANCH   2  24
HETATM   24  O   UNL     1      42.026 -12.264   3.613  1.00  0.00    -0.389 OA
HETATM   25  H   UNL     1      42.802 -12.370   4.191  1.00  0.00     0.210 HD
ENDBRANCH   2  24
BRANCH   7  26
HETATM   26  O   UNL     1      45.066 -15.922   6.330  1.00  0.00    -0.343 OA
HETATM   27  H   UNL     1      45.028 -16.520   5.569  1.00  0.00     0.219 HD
ENDBRANCH   7  26
TORSDOF 6
ENDMDL
MODEL 6
REMARK VINA RESULT:      -6.2      3.404      5.435
REMARK  6 active torsions:
REMARK  status: ('A' for Active; 'I' for Inactive)
REMARK    1  A    between atoms: C_2  and  O_3 
REMARK    2  A    between atoms: O_3  and  C_4 
REMARK    3  A    between atoms: C_4  and  C_5 
REMARK    4  A    between atoms: C_6  and  O_7 
REMARK    5  A    between atoms: C_12  and  O_13 
REMARK    6  A    between atoms: C_17  and  C_18 
ROOT
HETATM    1  C   UNL     1      41.040 -15.561   3.186  1.00  0.00     0.133 C 
HETATM    2  C   UNL     1      41.091 -15.639   4.742  1.00  0.00     0.073 C 
HETATM    3  C   UNL     1      42.176 -16.596   5.256  1.00  0.00     0.047 C 
HETATM    4  C   UNL     1      41.256 -14.253   5.435  1.00  0.00     0.097 C 
HETATM    5  C   UNL     1      40.419 -13.237   4.749  1.00  0.00     0.042 A 
HETATM    6  C   UNL     1      39.852 -13.330   3.495  1.00  0.00     0.030 A 
HETATM    7  C   UNL     1      39.097 -12.148   3.400  1.00  0.00     0.190 A 
HETATM    8  N   UNL     1      39.216 -11.351   4.455  1.00  0.00    -0.149 NA
HETATM    9  N   UNL     1      40.018 -12.045   5.278  1.00  0.00    -0.279 N 
HETATM   10  H   UNL     1      40.230 -11.650   6.189  1.00  0.00     0.189 HD
HETATM   11  C   UNL     1      39.996 -14.542   2.633  1.00  0.00     0.074 C 
ENDROOT
BRANCH  11  12
HETATM   12  C   UNL     1      40.227 -14.111   1.190  1.00  0.00    -0.048 A 
HETATM   13  C   UNL     1      39.786 -14.856   0.079  1.00  0.00     0.009 A 
HETATM   14  C   UNL     1      39.984 -14.393  -1.225  1.00  0.00     0.024 A 
HETATM   15  C   UNL     1      40.612 -13.171  -1.436  1.00  0.00     0.034 A 
HETATM   16 CL   UNL     1      40.846 -12.596  -3.039  1.00  0.00    -0.084 Cl
HETATM   17  C   UNL     1      41.046 -12.409  -0.355  1.00  0.00     0.024 A 
HETATM   18  C   UNL     1      40.853 -12.875   0.949  1.00  0.00     0.009 A 
ENDBRANCH  11  12
BRANCH   1  19
HETATM   19  C   UNL     1      42.418 -15.409   2.575  1.00  0.00     0.267 C 
HETATM   20  O   UNL     1      43.152 -14.461   2.835  1.00  0.00    -0.265 OA
BRANCH  19  21
HETATM   21  O   UNL     1      42.719 -16.405   1.706  1.00  0.00    -0.321 OA
BRANCH  21  22
HETATM   22  C   UNL     1      43.617 -17.412   2.201  1.00  0.00     0.174 C 
HETATM   23  C   UNL     1      42.936 -18.767   2.223  1.00  0.00     0.034 C 
ENDBRANCH  21  22
ENDBRANCH  19  21
ENDBRANCH   1  19
BRANCH   2  24
HETATM   24  O   UNL     1      39.830 -16.189   5.190  1.00  0.00    -0.389 OA
HETATM   25  H   UNL     1      39.792 -16.137   6.161  1.00  0.00     0.210 HD
ENDBRANCH   2  24
BRANCH   7  26
HETATM   26  O   UNL     1      38.297 -11.718   2.421  1.00  0.00    -0.343 OA
HETATM   27  H   UNL     1      38.077 -12.455   1.833  1.00  0.00     0.219 HD
ENDBRANCH   7  26
TORSDOF 6
ENDMDL
MODEL 7
REMARK VINA RESULT:      -6.2      3.206      5.130
REMARK  6 active torsions:
REMARK  status: ('A' for Active; 'I' for Inactive)
REMARK    1  A    between atoms: C_2  and  O_3 
REMARK    2  A    between atoms: O_3  and  C_4 
REMARK    3  A    between atoms: C_4  and  C_5 
REMARK    4  A    between atoms: C_6  and  O_7 
REMARK    5  A    between atoms: C_12  and  O_13 
REMARK    6  A    between atoms: C_17  and  C_18 
ROOT
HETATM    1  C   UNL     1      41.423 -14.312   3.985  1.00  0.00     0.133 C 
HETATM    2  C   UNL     1      41.034 -15.661   3.307  1.00  0.00     0.073 C 
HETATM    3  C   UNL     1      40.814 -15.526   1.793  1.00  0.00     0.047 C 
HETATM    4  C   UNL     1      42.045 -16.815   3.580  1.00  0.00     0.097 C 
HETATM    5  C   UNL     1      42.496 -16.774   4.994  1.00  0.00     0.042 A 
HETATM    6  C   UNL     1      42.379 -15.721   5.878  1.00  0.00     0.030 A 
HETATM    7  C   UNL     1      42.871 -16.260   7.079  1.00  0.00     0.190 A 
HETATM    8  N   UNL     1      43.315 -17.506   6.965  1.00  0.00    -0.149 NA
HETATM    9  N   UNL     1      43.061 -17.808   5.680  1.00  0.00    -0.279 N 
HETATM   10  H   UNL     1      43.282 -18.744   5.354  1.00  0.00     0.189 HD
HETATM   11  C   UNL     1      41.724 -14.430   5.511  1.00  0.00     0.074 C 
ENDROOT
BRANCH  11  12
HETATM   12  C   UNL     1      42.527 -13.273   6.095  1.00  0.00    -0.048 A 
HETATM   13  C   UNL     1      43.914 -13.334   6.330  1.00  0.00     0.009 A 
HETATM   14  C   UNL     1      44.611 -12.229   6.826  1.00  0.00     0.024 A 
HETATM   15  C   UNL     1      43.935 -11.042   7.078  1.00  0.00     0.034 A 
HETATM   16 CL   UNL     1      44.793  -9.677   7.677  1.00  0.00    -0.084 Cl
HETATM   17  C   UNL     1      42.566 -10.950   6.841  1.00  0.00     0.024 A 
HETATM   18  C   UNL     1      41.867 -12.058   6.352  1.00  0.00     0.009 A 
ENDBRANCH  11  12
BRANCH   1  19
HETATM   19  C   UNL     1      42.494 -13.570   3.211  1.00  0.00     0.267 C 
HETATM   20  O   UNL     1      43.565 -14.086   2.911  1.00  0.00    -0.265 OA
BRANCH  19  21
HETATM   21  O   UNL     1      42.144 -12.292   2.926  1.00  0.00    -0.321 OA
BRANCH  21  22
HETATM   22  C   UNL     1      40.736 -12.050   2.777  1.00  0.00     0.174 C 
HETATM   23  C   UNL     1      40.381 -10.659   3.267  1.00  0.00     0.034 C 
ENDBRANCH  21  22
ENDBRANCH  19  21
ENDBRANCH   1  19
BRANCH   2  24
HETATM   24  O   UNL     1      39.762 -16.072   3.859  1.00  0.00    -0.389 OA
HETATM   25  H   UNL     1      39.914 -16.479   4.730  1.00  0.00     0.210 HD
ENDBRANCH   2  24
BRANCH   7  26
HETATM   26  O   UNL     1      42.958 -15.712   8.294  1.00  0.00    -0.343 OA
HETATM   27  H   UNL     1      42.199 -15.984   8.829  1.00  0.00     0.219 HD
ENDBRANCH   7  26
TORSDOF 6
ENDMDL
MODEL 8
REMARK VINA RESULT:      -6.1      4.005      6.027
REMARK  6 active torsions:
REMARK  status: ('A' for Active; 'I' for Inactive)
REMARK    1  A    between atoms: C_2  and  O_3 
REMARK    2  A    between atoms: O_3  and  C_4 
REMARK    3  A    between atoms: C_4  and  C_5 
REMARK    4  A    between atoms: C_6  and  O_7 
REMARK    5  A    between atoms: C_12  and  O_13 
REMARK    6  A    between atoms: C_17  and  C_18 
ROOT
HETATM    1  C   UNL     1      41.602 -12.549   4.356  1.00  0.00     0.133 C 
HETATM    2  C   UNL     1      40.902 -13.739   3.632  1.00  0.00     0.073 C 
HETATM    3  C   UNL     1      40.583 -13.438   2.160  1.00  0.00     0.047 C 
HETATM    4  C   UNL     1      41.689 -15.081   3.724  1.00  0.00     0.097 C 
HETATM    5  C   UNL     1      42.259 -15.244   5.085  1.00  0.00     0.042 A 
HETATM    6  C   UNL     1      42.425 -14.267   6.045  1.00  0.00     0.030 A 
HETATM    7  C   UNL     1      42.904 -14.988   7.152  1.00  0.00     0.190 A 
HETATM    8  N   UNL     1      43.087 -16.281   6.911  1.00  0.00    -0.149 NA
HETATM    9  N   UNL     1      42.669 -16.420   5.642  1.00  0.00    -0.279 N 
HETATM   10  H   UNL     1      42.676 -17.350   5.233  1.00  0.00     0.189 HD
HETATM   11  C   UNL     1      42.004 -12.849   5.832  1.00  0.00     0.074 C 
ENDROOT
BRANCH  11  12
HETATM   12  C   UNL     1      43.064 -11.917   6.408  1.00  0.00    -0.048 A 
HETATM   13  C   UNL     1      42.757 -10.716   7.077  1.00  0.00     0.009 A 
HETATM   14  C   UNL     1      43.764  -9.918   7.626  1.00  0.00     0.024 A 
HETATM   15  C   UNL     1      45.092 -10.318   7.528  1.00  0.00     0.034 A 
HETATM   16 CL   UNL     1      46.332  -9.343   8.213  1.00  0.00    -0.084 Cl
HETATM   17  C   UNL     1      45.422 -11.507   6.883  1.00  0.00     0.024 A 
HETATM   18  C   UNL     1      44.414 -12.301   6.328  1.00  0.00     0.009 A 
ENDBRANCH  11  12
BRANCH   1  19
HETATM   19  C   UNL     1      42.726 -11.958   3.529  1.00  0.00     0.267 C 
HETATM   20  O   UNL     1      43.638 -12.641   3.075  1.00  0.00    -0.265 OA
BRANCH  19  21
HETATM   21  O   UNL     1      42.620 -10.614   3.384  1.00  0.00    -0.321 OA
BRANCH  21  22
HETATM   22  C   UNL     1      41.298 -10.074   3.540  1.00  0.00     0.174 C 
HETATM   23  C   UNL     1      41.343  -8.770   4.314  1.00  0.00     0.034 C 
ENDBRANCH  21  22
ENDBRANCH  19  21
ENDBRANCH   1  19
BRANCH   2  24
HETATM   24  O   UNL     1      39.626 -13.950   4.281  1.00  0.00    -0.389 OA
HETATM   25  H   UNL     1      39.345 -14.869   4.129  1.00  0.00     0.210 HD
ENDBRANCH   2  24
BRANCH   7  26
HETATM   26  O   UNL     1      43.200 -14.570   8.385  1.00  0.00    -0.343 OA
HETATM   27  H   UNL     1      42.451 -14.740   8.975  1.00  0.00     0.219 HD
ENDBRANCH   7  26
TORSDOF 6
ENDMDL
MODEL 9
REMARK VINA RESULT:      -6.1      3.655      5.721
REMARK  6 active torsions:
REMARK  status: ('A' for Active; 'I' for Inactive)
REMARK    1  A    between atoms: C_2  and  O_3 
REMARK    2  A    between atoms: O_3  and  C_4 
REMARK    3  A    between atoms: C_4  and  C_5 
REMARK    4  A    between atoms: C_6  and  O_7 
REMARK    5  A    between atoms: C_12  and  O_13 
REMARK    6  A    between atoms: C_17  and  C_18 
ROOT
HETATM    1  C   UNL     1      41.249 -12.338   2.266  1.00  0.00     0.133 C 
HETATM    2  C   UNL     1      40.799 -10.933   2.770  1.00  0.00     0.073 C 
HETATM    3  C   UNL     1      39.626 -10.357   1.962  1.00  0.00     0.047 C 
HETATM    4  C   UNL     1      40.448 -10.893   4.288  1.00  0.00     0.097 C 
HETATM    5  C   UNL     1      41.425 -11.704   5.058  1.00  0.00     0.042 A 
HETATM    6  C   UNL     1      42.297 -12.652   4.565  1.00  0.00     0.030 A 
HETATM    7  C   UNL     1      43.040 -13.020   5.700  1.00  0.00     0.190 A 
HETATM    8  N   UNL     1      42.645 -12.418   6.816  1.00  0.00    -0.149 NA
HETATM    9  N   UNL     1      41.664 -11.602   6.397  1.00  0.00    -0.279 N 
HETATM   10  H   UNL     1      41.220 -10.994   7.079  1.00  0.00     0.189 HD
HETATM   11  C   UNL     1      42.391 -12.982   3.111  1.00  0.00     0.074 C 
ENDROOT
BRANCH  11  12
HETATM   12  C   UNL     1      42.536 -14.490   2.944  1.00  0.00    -0.048 A 
HETATM   13  C   UNL     1      41.894 -15.427   3.776  1.00  0.00     0.009 A 
HETATM   14  C   UNL     1      42.025 -16.800   3.552  1.00  0.00     0.024 A 
HETATM   15  C   UNL     1      42.787 -17.256   2.483  1.00  0.00     0.034 A 
HETATM   16 CL   UNL     1      42.940 -18.945   2.200  1.00  0.00    -0.084 Cl
HETATM   17  C   UNL     1      43.422 -16.351   1.637  1.00  0.00     0.024 A 
HETATM   18  C   UNL     1      43.296 -14.977   1.866  1.00  0.00     0.009 A 
ENDBRANCH  11  12
BRANCH   1  19
HETATM   19  C   UNL     1      40.074 -13.264   2.028  1.00  0.00     0.267 C 
HETATM   20  O   UNL     1      39.235 -13.498   2.891  1.00  0.00    -0.265 OA
BRANCH  19  21
HETATM   21  O   UNL     1      40.081 -13.812   0.788  1.00  0.00    -0.321 OA
BRANCH  21  22
HETATM   22  C   UNL     1      40.729 -13.035  -0.232  1.00  0.00     0.174 C 
HETATM   23  C   UNL     1      40.220 -13.430  -1.605  1.00  0.00     0.034 C 
ENDBRANCH  21  22
ENDBRANCH  19  21
ENDBRANCH   1  19
BRANCH   2  24
HETATM   24  O   UNL     1      41.907 -10.025   2.567  1.00  0.00    -0.389 OA
HETATM   25  H   UNL     1      42.576 -10.188   3.254  1.00  0.00     0.210 HD
ENDBRANCH   2  24
BRANCH   7  26
HETATM   26  O   UNL     1      44.061 -13.872   5.818  1.00  0.00    -0.343 OA
HETATM   27  H   UNL     1      43.945 -14.606   5.198  1.00  0.00     0.219 HD
ENDBRANCH   7  26
TORSDOF 6
ENDMDL
MODEL 10
REMARK VINA RESULT:      -6.0     13.996     15.926
REMARK  6 active torsions:
REMARK  status: ('A' for Active; 'I' for Inactive)
REMARK    1  A    between atoms: C_2  and  O_3 
REMARK    2  A    between atoms: O_3  and  C_4 
REMARK    3  A    between atoms: C_4  and  C_5 
REMARK    4  A    between atoms: C_6  and  O_7 
REMARK    5  A    between atoms: C_12  and  O_13 
REMARK    6  A    between atoms: C_17  and  C_18 
ROOT
HETATM    1  C   UNL     1      43.875 -30.373  -0.341  1.00  0.00     0.133 C 
HETATM    2  C   UNL     1      43.934 -29.962   1.162  1.00  0.00     0.073 C 
HETATM    3  C   UNL     1      43.225 -30.966   2.084  1.00  0.00     0.047 C 
HETATM    4  C   UNL     1      45.380 -29.713   1.688  1.00  0.00     0.097 C 
HETATM    5  C   UNL     1      46.175 -28.987   0.666  1.00  0.00     0.042 A 
HETATM    6  C   UNL     1      45.883 -28.844  -0.675  1.00  0.00     0.030 A 
HETATM    7  C   UNL     1      46.904 -27.994  -1.133  1.00  0.00     0.190 A 
HETATM    8  N   UNL     1      47.794 -27.674  -0.200  1.00  0.00    -0.149 NA
HETATM    9  N   UNL     1      47.319 -28.281   0.900  1.00  0.00    -0.279 N 
HETATM   10  H   UNL     1      47.818 -28.150   1.775  1.00  0.00     0.189 HD
HETATM   11  C   UNL     1      44.648 -29.412  -1.295  1.00  0.00     0.074 C 
ENDROOT
BRANCH  11  12
HETATM   12  C   UNL     1      44.993 -30.004  -2.656  1.00  0.00    -0.048 A 
HETATM   13  C   UNL     1      46.152 -30.768  -2.897  1.00  0.00     0.009 A 
HETATM   14  C   UNL     1      46.400 -31.326  -4.153  1.00  0.00     0.024 A 
HETATM   15  C   UNL     1      45.484 -31.143  -5.183  1.00  0.00     0.034 A 
HETATM   16 CL   UNL     1      45.782 -31.839  -6.727  1.00  0.00    -0.084 Cl
HETATM   17  C   UNL     1      44.324 -30.404  -4.968  1.00  0.00     0.024 A 
HETATM   18  C   UNL     1      44.081 -29.839  -3.712  1.00  0.00     0.009 A 
ENDBRANCH  11  12
BRANCH   1  19
HETATM   19  C   UNL     1      44.213 -31.835  -0.548  1.00  0.00     0.267 C 
HETATM   20  O   UNL     1      45.271 -32.326  -0.169  1.00  0.00    -0.265 OA
BRANCH  19  21
HETATM   21  O   UNL     1      43.243 -32.508  -1.214  1.00  0.00    -0.321 OA
BRANCH  21  22
HETATM   22  C   UNL     1      43.637 -33.767  -1.783  1.00  0.00     0.174 C 
HETATM   23  C   UNL     1      43.599 -33.700  -3.298  1.00  0.00     0.034 C 
ENDBRANCH  21  22
ENDBRANCH  19  21
ENDBRANCH   1  19
BRANCH   2  24
HETATM   24  O   UNL     1      43.212 -28.716   1.300  1.00  0.00    -0.389 OA
HETATM   25  H   UNL     1      42.258 -28.898   1.235  1.00  0.00     0.210 HD
ENDBRANCH   2  24
BRANCH   7  26
HETATM   26  O   UNL     1      47.108 -27.474  -2.346  1.00  0.00    -0.343 OA
HETATM   27  H   UNL     1      47.223 -26.515  -2.274  1.00  0.00     0.219 HD
ENDBRANCH   7  26
TORSDOF 6
ENDMDL
