MODEL 1
REMARK VINA RESULT:      -8.6      0.000      0.000
REMARK  5 active torsions:
REMARK  status: ('A' for Active; 'I' for Inactive)
REMARK    1  A    between atoms: O_2  and  C_3 
REMARK    2  A    between atoms: C_16  and  C_17 
REMARK    3  A    between atoms: C_19  and  O_20 
REMARK    4  A    between atoms: C_22  and  O_23 
REMARK    5  A    between atoms: O_23  and  C_24 
ROOT
HETATM    1  C   UNL     1      41.839  -9.180  13.247  1.00  0.00     0.069 A 
HETATM    2  C   UNL     1      42.993  -9.318  12.463  1.00  0.00     0.051 A 
HETATM    3  C   UNL     1      42.883  -9.450  11.066  1.00  0.00     0.002 A 
HETATM    4  C   UNL     1      41.612  -9.432  10.491  1.00  0.00     0.043 A 
HETATM    5  N   UNL     1      41.765  -9.584   9.129  1.00  0.00    -0.356 N 
HETATM    6  H   UNL     1      40.989  -9.628   8.479  1.00  0.00     0.166 HD
HETATM    7  C   UNL     1      43.097  -9.714   8.830  1.00  0.00     0.052 A 
HETATM    8  C   UNL     1      43.813  -9.623  10.009  1.00  0.00    -0.019 A 
HETATM    9  C   UNL     1      45.301  -9.716  10.045  1.00  0.00     0.069 C 
HETATM   10  C   UNL     1      45.833 -10.349   8.747  1.00  0.00     0.238 C 
HETATM   11  N   UNL     1      45.155  -9.758   7.533  1.00  0.00    -0.061 N 
HETATM   12  H   UNL     1      45.330  -8.747   7.523  1.00  0.00     0.278 HD
HETATM   13  H   UNL     1      45.571 -10.147   6.680  1.00  0.00     0.278 HD
HETATM   14  C   UNL     1      43.660  -9.955   7.472  1.00  0.00     0.269 C 
HETATM   15  C   UNL     1      40.447  -9.285  11.251  1.00  0.00     0.033 A 
HETATM   16  C   UNL     1      40.584  -9.160  12.641  1.00  0.00     0.039 A 
ENDROOT
BRANCH  14  17
HETATM   17  C   UNL     1      43.311 -11.303   6.866  1.00  0.00    -0.019 A 
HETATM   18  C   UNL     1      42.132 -11.512   6.125  1.00  0.00     0.049 A 
HETATM   19  C   UNL     1      41.813 -12.773   5.610  1.00  0.00     0.102 A 
HETATM   20  C   UNL     1      42.668 -13.861   5.857  1.00  0.00     0.102 A 
HETATM   21  C   UNL     1      43.843 -13.664   6.582  1.00  0.00     0.040 A 
HETATM   22  C   UNL     1      44.160 -12.399   7.088  1.00  0.00     0.012 A 
BRANCH  19  23
HETATM   23  O   UNL     1      40.676 -13.047   4.895  1.00  0.00    -0.353 OA
HETATM   24  C   UNL     1      39.441 -12.537   5.380  1.00  0.00     0.210 C 
ENDBRANCH  19  23
BRANCH  20  25
HETATM   25  O   UNL     1      42.296 -15.059   5.305  1.00  0.00    -0.343 OA
BRANCH  25  26
HETATM   26  C   UNL     1      43.193 -15.716   4.417  1.00  0.00     0.129 C 
HETATM   27  C   UNL     1      42.852 -17.192   4.219  1.00  0.00     0.032 C 
HETATM   28  C   UNL     1      43.399 -17.496   2.838  1.00  0.00     0.002 C 
HETATM   29  C   UNL     1      43.001 -16.271   2.031  1.00  0.00     0.002 C 
HETATM   30  C   UNL     1      43.039 -15.103   3.016  1.00  0.00     0.032 C 
ENDBRANCH  25  26
ENDBRANCH  20  25
ENDBRANCH  14  17
BRANCH   1  31
HETATM   31  O   UNL     1      42.085  -9.074  14.589  1.00  0.00    -0.356 OA
HETATM   32  C   UNL     1      41.191  -8.269  15.349  1.00  0.00     0.210 C 
ENDBRANCH   1  31
TORSDOF 5
ENDMDL
MODEL 2
REMARK VINA RESULT:      -8.2      6.542      9.488
REMARK  5 active torsions:
REMARK  status: ('A' for Active; 'I' for Inactive)
REMARK    1  A    between atoms: O_2  and  C_3 
REMARK    2  A    between atoms: C_16  and  C_17 
REMARK    3  A    between atoms: C_19  and  O_20 
REMARK    4  A    between atoms: C_22  and  O_23 
REMARK    5  A    between atoms: O_23  and  C_24 
ROOT
HETATM    1  C   UNL     1      43.957 -16.911   5.187  1.00  0.00     0.069 A 
HETATM    2  C   UNL     1      42.958 -15.928   5.190  1.00  0.00     0.051 A 
HETATM    3  C   UNL     1      42.079 -15.815   4.096  1.00  0.00     0.002 A 
HETATM    4  C   UNL     1      42.223 -16.701   3.028  1.00  0.00     0.043 A 
HETATM    5  N   UNL     1      41.263 -16.386   2.089  1.00  0.00    -0.356 N 
HETATM    6  H   UNL     1      41.167 -16.868   1.203  1.00  0.00     0.166 HD
HETATM    7  C   UNL     1      40.527 -15.316   2.528  1.00  0.00     0.052 A 
HETATM    8  C   UNL     1      41.002 -14.950   3.774  1.00  0.00    -0.019 A 
HETATM    9  C   UNL     1      40.415 -13.818   4.546  1.00  0.00     0.069 C 
HETATM   10  C   UNL     1      39.591 -12.904   3.623  1.00  0.00     0.238 C 
HETATM   11  N   UNL     1      38.706 -13.712   2.702  1.00  0.00    -0.061 N 
HETATM   12  H   UNL     1      38.077 -14.283   3.276  1.00  0.00     0.278 HD
HETATM   13  H   UNL     1      38.121 -13.082   2.143  1.00  0.00     0.278 HD
HETATM   14  C   UNL     1      39.434 -14.647   1.768  1.00  0.00     0.269 C 
HETATM   15  C   UNL     1      43.206 -17.696   3.007  1.00  0.00     0.033 A 
HETATM   16  C   UNL     1      44.072 -17.784   4.106  1.00  0.00     0.039 A 
ENDROOT
BRANCH  14  17
HETATM   17  C   UNL     1      39.884 -13.923   0.511  1.00  0.00    -0.019 A 
HETATM   18  C   UNL     1      39.562 -14.387  -0.780  1.00  0.00     0.049 A 
HETATM   19  C   UNL     1      40.019 -13.724  -1.924  1.00  0.00     0.102 A 
HETATM   20  C   UNL     1      40.839 -12.590  -1.789  1.00  0.00     0.102 A 
HETATM   21  C   UNL     1      41.156 -12.117  -0.516  1.00  0.00     0.040 A 
HETATM   22  C   UNL     1      40.689 -12.779   0.624  1.00  0.00     0.012 A 
BRANCH  19  23
HETATM   23  O   UNL     1      39.756 -14.132  -3.206  1.00  0.00    -0.353 OA
HETATM   24  C   UNL     1      38.431 -14.538  -3.521  1.00  0.00     0.210 C 
ENDBRANCH  19  23
BRANCH  20  25
HETATM   25  O   UNL     1      41.232 -11.987  -2.955  1.00  0.00    -0.343 OA
BRANCH  25  26
HETATM   26  C   UNL     1      40.618 -10.762  -3.337  1.00  0.00     0.129 C 
HETATM   27  C   UNL     1      39.134 -10.708  -2.978  1.00  0.00     0.032 C 
HETATM   28  C   UNL     1      38.867  -9.225  -2.809  1.00  0.00     0.002 C 
HETATM   29  C   UNL     1      40.089  -8.739  -2.046  1.00  0.00     0.002 C 
HETATM   30  C   UNL     1      41.244  -9.620  -2.521  1.00  0.00     0.032 C 
ENDBRANCH  25  26
ENDBRANCH  20  25
ENDBRANCH  14  17
BRANCH   1  31
HETATM   31  O   UNL     1      44.751 -16.904   6.302  1.00  0.00    -0.356 OA
HETATM   32  C   UNL     1      44.095 -16.839   7.562  1.00  0.00     0.210 C 
ENDBRANCH   1  31
TORSDOF 5
ENDMDL
MODEL 3
REMARK VINA RESULT:      -8.1      6.855     10.516
REMARK  5 active torsions:
REMARK  status: ('A' for Active; 'I' for Inactive)
REMARK    1  A    between atoms: O_2  and  C_3 
REMARK    2  A    between atoms: C_16  and  C_17 
REMARK    3  A    between atoms: C_19  and  O_20 
REMARK    4  A    between atoms: C_22  and  O_23 
REMARK    5  A    between atoms: O_23  and  C_24 
ROOT
HETATM    1  C   UNL     1      41.420  -8.482  -3.151  1.00  0.00     0.069 A 
HETATM    2  C   UNL     1      40.937  -9.785  -3.335  1.00  0.00     0.051 A 
HETATM    3  C   UNL     1      40.523 -10.545  -2.225  1.00  0.00     0.002 A 
HETATM    4  C   UNL     1      40.598  -9.972  -0.956  1.00  0.00     0.043 A 
HETATM    5  N   UNL     1      40.149 -10.905  -0.046  1.00  0.00    -0.356 N 
HETATM    6  H   UNL     1      40.123 -10.746   0.954  1.00  0.00     0.166 HD
HETATM    7  C   UNL     1      39.808 -12.059  -0.704  1.00  0.00     0.052 A 
HETATM    8  C   UNL     1      40.018 -11.860  -2.056  1.00  0.00    -0.019 A 
HETATM    9  C   UNL     1      39.739 -12.919  -3.067  1.00  0.00     0.069 C 
HETATM   10  C   UNL     1      39.644 -14.299  -2.392  1.00  0.00     0.238 C 
HETATM   11  N   UNL     1      38.809 -14.235  -1.134  1.00  0.00    -0.061 N 
HETATM   12  H   UNL     1      37.870 -13.905  -1.384  1.00  0.00     0.278 HD
HETATM   13  H   UNL     1      38.706 -15.176  -0.738  1.00  0.00     0.278 HD
HETATM   14  C   UNL     1      39.335 -13.316  -0.059  1.00  0.00     0.269 C 
HETATM   15  C   UNL     1      41.066  -8.670  -0.749  1.00  0.00     0.033 A 
HETATM   16  C   UNL     1      41.477  -7.936  -1.870  1.00  0.00     0.039 A 
ENDROOT
BRANCH  14  17
HETATM   17  C   UNL     1      40.370 -14.019   0.802  1.00  0.00    -0.019 A 
HETATM   18  C   UNL     1      41.521 -13.363   1.280  1.00  0.00     0.049 A 
HETATM   19  C   UNL     1      42.480 -14.043   2.040  1.00  0.00     0.102 A 
HETATM   20  C   UNL     1      42.310 -15.412   2.310  1.00  0.00     0.102 A 
HETATM   21  C   UNL     1      41.169 -16.069   1.849  1.00  0.00     0.040 A 
HETATM   22  C   UNL     1      40.211 -15.382   1.097  1.00  0.00     0.012 A 
BRANCH  19  23
HETATM   23  O   UNL     1      43.628 -13.469   2.521  1.00  0.00    -0.353 OA
HETATM   24  C   UNL     1      43.514 -12.259   3.258  1.00  0.00     0.210 C 
ENDBRANCH  19  23
BRANCH  20  25
HETATM   25  O   UNL     1      43.283 -16.002   3.073  1.00  0.00    -0.343 OA
BRANCH  25  26
HETATM   26  C   UNL     1      43.001 -17.245   3.707  1.00  0.00     0.129 C 
HETATM   27  C   UNL     1      44.157 -18.238   3.597  1.00  0.00     0.032 C 
HETATM   28  C   UNL     1      43.981 -19.117   4.820  1.00  0.00     0.002 C 
HETATM   29  C   UNL     1      43.631 -18.122   5.914  1.00  0.00     0.002 C 
HETATM   30  C   UNL     1      42.852 -17.007   5.218  1.00  0.00     0.032 C 
ENDBRANCH  25  26
ENDBRANCH  20  25
ENDBRANCH  14  17
BRANCH   1  31
HETATM   31  O   UNL     1      41.801  -7.858  -4.308  1.00  0.00    -0.356 OA
HETATM   32  C   UNL     1      42.963  -7.040  -4.248  1.00  0.00     0.210 C 
ENDBRANCH   1  31
TORSDOF 5
ENDMDL
MODEL 4
REMARK VINA RESULT:      -7.9     19.587     21.776
REMARK  5 active torsions:
REMARK  status: ('A' for Active; 'I' for Inactive)
REMARK    1  A    between atoms: O_2  and  C_3 
REMARK    2  A    between atoms: C_16  and  C_17 
REMARK    3  A    between atoms: C_19  and  O_20 
REMARK    4  A    between atoms: C_22  and  O_23 
REMARK    5  A    between atoms: O_23  and  C_24 
ROOT
HETATM    1  C   UNL     1      44.364 -29.435  -4.108  1.00  0.00     0.069 A 
HETATM    2  C   UNL     1      44.014 -30.162  -2.962  1.00  0.00     0.051 A 
HETATM    3  C   UNL     1      44.407 -29.703  -1.691  1.00  0.00     0.002 A 
HETATM    4  C   UNL     1      45.137 -28.517  -1.604  1.00  0.00     0.043 A 
HETATM    5  N   UNL     1      45.407 -28.286  -0.271  1.00  0.00    -0.356 N 
HETATM    6  H   UNL     1      45.947 -27.497   0.063  1.00  0.00     0.166 HD
HETATM    7  C   UNL     1      44.880 -29.302   0.485  1.00  0.00     0.052 A 
HETATM    8  C   UNL     1      44.245 -30.186  -0.367  1.00  0.00    -0.019 A 
HETATM    9  C   UNL     1      43.553 -31.409   0.131  1.00  0.00     0.069 C 
HETATM   10  C   UNL     1      44.021 -31.753   1.555  1.00  0.00     0.238 C 
HETATM   11  N   UNL     1      44.067 -30.520   2.428  1.00  0.00    -0.061 N 
HETATM   12  H   UNL     1      43.128 -30.110   2.460  1.00  0.00     0.278 HD
HETATM   13  H   UNL     1      44.319 -30.783   3.386  1.00  0.00     0.278 HD
HETATM   14  C   UNL     1      45.012 -29.438   1.962  1.00  0.00     0.269 C 
HETATM   15  C   UNL     1      45.490 -27.770  -2.733  1.00  0.00     0.033 A 
HETATM   16  C   UNL     1      45.090 -28.252  -3.988  1.00  0.00     0.039 A 
ENDROOT
BRANCH  14  17
HETATM   17  C   UNL     1      46.425 -29.698   2.455  1.00  0.00    -0.019 A 
HETATM   18  C   UNL     1      47.530 -29.732   1.582  1.00  0.00     0.049 A 
HETATM   19  C   UNL     1      48.818 -30.012   2.054  1.00  0.00     0.102 A 
HETATM   20  C   UNL     1      49.012 -30.293   3.418  1.00  0.00     0.102 A 
HETATM   21  C   UNL     1      47.926 -30.254   4.292  1.00  0.00     0.040 A 
HETATM   22  C   UNL     1      46.643 -29.966   3.815  1.00  0.00     0.012 A 
BRANCH  19  23
HETATM   23  O   UNL     1      49.932 -30.075   1.258  1.00  0.00    -0.353 OA
HETATM   24  C   UNL     1      49.749 -30.073  -0.152  1.00  0.00     0.210 C 
ENDBRANCH  19  23
BRANCH  20  25
HETATM   25  O   UNL     1      50.303 -30.541   3.805  1.00  0.00    -0.343 OA
BRANCH  25  26
HETATM   26  C   UNL     1      50.544 -31.514   4.815  1.00  0.00     0.129 C 
HETATM   27  C   UNL     1      51.049 -32.840   4.249  1.00  0.00     0.032 C 
HETATM   28  C   UNL     1      51.857 -33.424   5.391  1.00  0.00     0.002 C 
HETATM   29  C   UNL     1      52.617 -32.222   5.928  1.00  0.00     0.002 C 
HETATM   30  C   UNL     1      51.693 -31.024   5.710  1.00  0.00     0.032 C 
ENDBRANCH  25  26
ENDBRANCH  20  25
ENDBRANCH  14  17
BRANCH   1  31
HETATM   31  O   UNL     1      43.933 -29.997  -5.280  1.00  0.00    -0.356 OA
HETATM   32  C   UNL     1      44.237 -31.371  -5.488  1.00  0.00     0.210 C 
ENDBRANCH   1  31
TORSDOF 5
ENDMDL
MODEL 5
REMARK VINA RESULT:      -7.9      6.596      9.781
REMARK  5 active torsions:
REMARK  status: ('A' for Active; 'I' for Inactive)
REMARK    1  A    between atoms: O_2  and  C_3 
REMARK    2  A    between atoms: C_16  and  C_17 
REMARK    3  A    between atoms: C_19  and  O_20 
REMARK    4  A    between atoms: C_22  and  O_23 
REMARK    5  A    between atoms: O_23  and  C_24 
ROOT
HETATM    1  C   UNL     1      43.610 -18.151   4.161  1.00  0.00     0.069 A 
HETATM    2  C   UNL     1      42.830 -17.086   4.630  1.00  0.00     0.051 A 
HETATM    3  C   UNL     1      41.976 -16.398   3.748  1.00  0.00     0.002 A 
HETATM    4  C   UNL     1      41.922 -16.805   2.415  1.00  0.00     0.043 A 
HETATM    5  N   UNL     1      41.032 -15.981   1.759  1.00  0.00    -0.356 N 
HETATM    6  H   UNL     1      40.827 -16.051   0.769  1.00  0.00     0.166 HD
HETATM    7  C   UNL     1      40.533 -15.055   2.639  1.00  0.00     0.052 A 
HETATM    8  C   UNL     1      41.090 -15.297   3.880  1.00  0.00    -0.019 A 
HETATM    9  C   UNL     1      40.756 -14.472   5.076  1.00  0.00     0.069 C 
HETATM   10  C   UNL     1      40.119 -13.137   4.650  1.00  0.00     0.238 C 
HETATM   11  N   UNL     1      39.076 -13.347   3.578  1.00  0.00    -0.061 N 
HETATM   12  H   UNL     1      38.353 -13.974   3.946  1.00  0.00     0.278 HD
HETATM   13  H   UNL     1      38.621 -12.455   3.357  1.00  0.00     0.278 HD
HETATM   14  C   UNL     1      39.586 -13.957   2.294  1.00  0.00     0.269 C 
HETATM   15  C   UNL     1      42.684 -17.871   1.926  1.00  0.00     0.033 A 
HETATM   16  C   UNL     1      43.531 -18.537   2.824  1.00  0.00     0.039 A 
ENDROOT
BRANCH  14  17
HETATM   17  C   UNL     1      40.154 -12.892   1.372  1.00  0.00    -0.019 A 
HETATM   18  C   UNL     1      39.917 -12.897  -0.017  1.00  0.00     0.049 A 
HETATM   19  C   UNL     1      40.482 -11.927  -0.852  1.00  0.00     0.102 A 
HETATM   20  C   UNL     1      41.325 -10.943  -0.304  1.00  0.00     0.102 A 
HETATM   21  C   UNL     1      41.559 -10.924   1.071  1.00  0.00     0.040 A 
HETATM   22  C   UNL     1      40.984 -11.892   1.901  1.00  0.00     0.012 A 
BRANCH  19  23
HETATM   23  O   UNL     1      40.305 -11.884  -2.210  1.00  0.00    -0.353 OA
HETATM   24  C   UNL     1      40.470 -13.089  -2.945  1.00  0.00     0.210 C 
ENDBRANCH  19  23
BRANCH  20  25
HETATM   25  O   UNL     1      41.826 -10.020  -1.184  1.00  0.00    -0.343 OA
BRANCH  25  26
HETATM   26  C   UNL     1      42.057  -8.691  -0.728  1.00  0.00     0.129 C 
HETATM   27  C   UNL     1      43.195  -8.001  -1.479  1.00  0.00     0.032 C 
HETATM   28  C   UNL     1      42.839  -6.530  -1.379  1.00  0.00     0.002 C 
HETATM   29  C   UNL     1      41.339  -6.519  -1.624  1.00  0.00     0.002 C 
HETATM   30  C   UNL     1      40.821  -7.836  -1.048  1.00  0.00     0.032 C 
ENDBRANCH  25  26
ENDBRANCH  20  25
ENDBRANCH  14  17
BRANCH   1  31
HETATM   31  O   UNL     1      44.406 -18.725   5.116  1.00  0.00    -0.356 OA
HETATM   32  C   UNL     1      44.315 -20.136   5.271  1.00  0.00     0.210 C 
ENDBRANCH   1  31
TORSDOF 5
ENDMDL
MODEL 6
REMARK VINA RESULT:      -7.7      5.942      9.348
REMARK  5 active torsions:
REMARK  status: ('A' for Active; 'I' for Inactive)
REMARK    1  A    between atoms: O_2  and  C_3 
REMARK    2  A    between atoms: C_16  and  C_17 
REMARK    3  A    between atoms: C_19  and  O_20 
REMARK    4  A    between atoms: C_22  and  O_23 
REMARK    5  A    between atoms: O_23  and  C_24 
ROOT
HETATM    1  C   UNL     1      43.884 -18.351   4.029  1.00  0.00     0.069 A 
HETATM    2  C   UNL     1      43.163 -17.369   4.722  1.00  0.00     0.051 A 
HETATM    3  C   UNL     1      42.282 -16.521   4.025  1.00  0.00     0.002 A 
HETATM    4  C   UNL     1      42.142 -16.688   2.648  1.00  0.00     0.043 A 
HETATM    5  N   UNL     1      41.241 -15.745   2.199  1.00  0.00    -0.356 N 
HETATM    6  H   UNL     1      40.979 -15.637   1.227  1.00  0.00     0.166 HD
HETATM    7  C   UNL     1      40.820 -14.976   3.255  1.00  0.00     0.052 A 
HETATM    8  C   UNL     1      41.439 -15.443   4.400  1.00  0.00    -0.019 A 
HETATM    9  C   UNL     1      41.196 -14.833   5.738  1.00  0.00     0.069 C 
HETATM   10  C   UNL     1      40.578 -13.432   5.589  1.00  0.00     0.238 C 
HETATM   11  N   UNL     1      39.470 -13.430   4.561  1.00  0.00    -0.061 N 
HETATM   12  H   UNL     1      38.750 -14.098   4.859  1.00  0.00     0.278 HD
HETATM   13  H   UNL     1      39.031 -12.505   4.526  1.00  0.00     0.278 HD
HETATM   14  C   UNL     1      39.889 -13.817   3.164  1.00  0.00     0.269 C 
HETATM   15  C   UNL     1      42.843 -17.667   1.937  1.00  0.00     0.033 A 
HETATM   16  C   UNL     1      43.718 -18.496   2.653  1.00  0.00     0.039 A 
ENDROOT
BRANCH  14  17
HETATM   17  C   UNL     1      40.435 -12.619   2.407  1.00  0.00    -0.019 A 
HETATM   18  C   UNL     1      40.527 -11.340   2.990  1.00  0.00     0.049 A 
HETATM   19  C   UNL     1      40.997 -10.242   2.261  1.00  0.00     0.102 A 
HETATM   20  C   UNL     1      41.361 -10.408   0.913  1.00  0.00     0.102 A 
HETATM   21  C   UNL     1      41.282 -11.672   0.328  1.00  0.00     0.040 A 
HETATM   22  C   UNL     1      40.819 -12.766   1.065  1.00  0.00     0.012 A 
BRANCH  19  23
HETATM   23  O   UNL     1      41.096  -8.970   2.762  1.00  0.00    -0.353 OA
HETATM   24  C   UNL     1      40.084  -8.522   3.654  1.00  0.00     0.210 C 
ENDBRANCH  19  23
BRANCH  20  25
HETATM   25  O   UNL     1      41.827  -9.290   0.272  1.00  0.00    -0.343 OA
BRANCH  25  26
HETATM   26  C   UNL     1      42.064  -9.350  -1.131  1.00  0.00     0.129 C 
HETATM   27  C   UNL     1      40.822  -9.009  -1.953  1.00  0.00     0.032 C 
HETATM   28  C   UNL     1      41.396  -8.464  -3.246  1.00  0.00     0.002 C 
HETATM   29  C   UNL     1      42.543  -7.586  -2.773  1.00  0.00     0.002 C 
HETATM   30  C   UNL     1      43.077  -8.258  -1.508  1.00  0.00     0.032 C 
ENDBRANCH  25  26
ENDBRANCH  20  25
ENDBRANCH  14  17
BRANCH   1  31
HETATM   31  O   UNL     1      44.714 -19.098   4.821  1.00  0.00    -0.356 OA
HETATM   32  C   UNL     1      44.283 -20.413   5.150  1.00  0.00     0.210 C 
ENDBRANCH   1  31
TORSDOF 5
ENDMDL
MODEL 7
REMARK VINA RESULT:      -7.6     19.205     21.377
REMARK  5 active torsions:
REMARK  status: ('A' for Active; 'I' for Inactive)
REMARK    1  A    between atoms: O_2  and  C_3 
REMARK    2  A    between atoms: C_16  and  C_17 
REMARK    3  A    between atoms: C_19  and  O_20 
REMARK    4  A    between atoms: C_22  and  O_23 
REMARK    5  A    between atoms: O_23  and  C_24 
ROOT
HETATM    1  C   UNL     1      44.385 -29.431  -4.077  1.00  0.00     0.069 A 
HETATM    2  C   UNL     1      43.949 -30.130  -2.943  1.00  0.00     0.051 A 
HETATM    3  C   UNL     1      44.223 -29.626  -1.658  1.00  0.00     0.002 A 
HETATM    4  C   UNL     1      44.923 -28.425  -1.546  1.00  0.00     0.043 A 
HETATM    5  N   UNL     1      45.073 -28.149  -0.203  1.00  0.00    -0.356 N 
HETATM    6  H   UNL     1      45.569 -27.340   0.151  1.00  0.00     0.166 HD
HETATM    7  C   UNL     1      44.499 -29.152   0.537  1.00  0.00     0.052 A 
HETATM    8  C   UNL     1      43.955 -30.073  -0.338  1.00  0.00    -0.019 A 
HETATM    9  C   UNL     1      43.243 -31.294   0.136  1.00  0.00     0.069 C 
HETATM   10  C   UNL     1      43.592 -31.586   1.605  1.00  0.00     0.238 C 
HETATM   11  N   UNL     1      43.542 -30.327   2.440  1.00  0.00    -0.061 N 
HETATM   12  H   UNL     1      42.597 -29.935   2.379  1.00  0.00     0.278 HD
HETATM   13  H   UNL     1      43.714 -30.557   3.424  1.00  0.00     0.278 HD
HETATM   14  C   UNL     1      44.505 -29.242   2.023  1.00  0.00     0.269 C 
HETATM   15  C   UNL     1      45.359 -27.705  -2.663  1.00  0.00     0.033 A 
HETATM   16  C   UNL     1      45.078 -28.231  -3.932  1.00  0.00     0.039 A 
ENDROOT
BRANCH  14  17
HETATM   17  C   UNL     1      45.875 -29.460   2.643  1.00  0.00    -0.019 A 
HETATM   18  C   UNL     1      46.076 -30.332   3.732  1.00  0.00     0.049 A 
HETATM   19  C   UNL     1      47.341 -30.487   4.311  1.00  0.00     0.102 A 
HETATM   20  C   UNL     1      48.427 -29.742   3.820  1.00  0.00     0.102 A 
HETATM   21  C   UNL     1      48.240 -28.883   2.737  1.00  0.00     0.040 A 
HETATM   22  C   UNL     1      46.975 -28.738   2.157  1.00  0.00     0.012 A 
BRANCH  19  23
HETATM   23  O   UNL     1      47.601 -31.305   5.380  1.00  0.00    -0.353 OA
HETATM   24  C   UNL     1      46.574 -31.495   6.344  1.00  0.00     0.210 C 
ENDBRANCH  19  23
BRANCH  20  25
HETATM   25  O   UNL     1      49.634 -29.962   4.428  1.00  0.00    -0.343 OA
BRANCH  25  26
HETATM   26  C   UNL     1      50.626 -30.713   3.737  1.00  0.00     0.129 C 
HETATM   27  C   UNL     1      50.102 -32.056   3.229  1.00  0.00     0.032 C 
HETATM   28  C   UNL     1      50.980 -32.342   2.026  1.00  0.00     0.002 C 
HETATM   29  C   UNL     1      51.074 -30.990   1.337  1.00  0.00     0.002 C 
HETATM   30  C   UNL     1      51.020 -29.955   2.460  1.00  0.00     0.032 C 
ENDBRANCH  25  26
ENDBRANCH  20  25
ENDBRANCH  14  17
BRANCH   1  31
HETATM   31  O   UNL     1      44.065 -30.036  -5.263  1.00  0.00    -0.356 OA
HETATM   32  C   UNL     1      44.700 -31.277  -5.548  1.00  0.00     0.210 C 
ENDBRANCH   1  31
TORSDOF 5
ENDMDL
MODEL 8
REMARK VINA RESULT:      -7.4     19.268     21.693
REMARK  5 active torsions:
REMARK  status: ('A' for Active; 'I' for Inactive)
REMARK    1  A    between atoms: O_2  and  C_3 
REMARK    2  A    between atoms: C_16  and  C_17 
REMARK    3  A    between atoms: C_19  and  O_20 
REMARK    4  A    between atoms: C_22  and  O_23 
REMARK    5  A    between atoms: O_23  and  C_24 
ROOT
HETATM    1  C   UNL     1      51.024 -33.099   5.296  1.00  0.00     0.069 A 
HETATM    2  C   UNL     1      50.906 -33.383   3.929  1.00  0.00     0.051 A 
HETATM    3  C   UNL     1      50.864 -32.332   2.993  1.00  0.00     0.002 A 
HETATM    4  C   UNL     1      50.950 -31.019   3.457  1.00  0.00     0.043 A 
HETATM    5  N   UNL     1      50.878 -30.181   2.364  1.00  0.00    -0.356 N 
HETATM    6  H   UNL     1      50.895 -29.171   2.431  1.00  0.00     0.166 HD
HETATM    7  C   UNL     1      50.735 -30.929   1.223  1.00  0.00     0.052 A 
HETATM    8  C   UNL     1      50.735 -32.264   1.582  1.00  0.00    -0.019 A 
HETATM    9  C   UNL     1      50.604 -33.357   0.576  1.00  0.00     0.069 C 
HETATM   10  C   UNL     1      50.040 -32.808  -0.746  1.00  0.00     0.238 C 
HETATM   11  N   UNL     1      50.722 -31.517  -1.137  1.00  0.00    -0.061 N 
HETATM   12  H   UNL     1      51.726 -31.698  -1.236  1.00  0.00     0.278 HD
HETATM   13  H   UNL     1      50.376 -31.206  -2.051  1.00  0.00     0.278 HD
HETATM   14  C   UNL     1      50.566 -30.384  -0.152  1.00  0.00     0.269 C 
HETATM   15  C   UNL     1      51.078 -30.712   4.816  1.00  0.00     0.033 A 
HETATM   16  C   UNL     1      51.112 -31.777   5.728  1.00  0.00     0.039 A 
ENDROOT
BRANCH  14  17
HETATM   17  C   UNL     1      49.266 -29.633  -0.386  1.00  0.00    -0.019 A 
HETATM   18  C   UNL     1      48.445 -29.204   0.675  1.00  0.00     0.049 A 
HETATM   19  C   UNL     1      47.233 -28.548   0.435  1.00  0.00     0.102 A 
HETATM   20  C   UNL     1      46.809 -28.335  -0.889  1.00  0.00     0.102 A 
HETATM   21  C   UNL     1      47.618 -28.748  -1.947  1.00  0.00     0.040 A 
HETATM   22  C   UNL     1      48.833 -29.397  -1.699  1.00  0.00     0.012 A 
BRANCH  19  23
HETATM   23  O   UNL     1      46.382 -28.119   1.420  1.00  0.00    -0.353 OA
HETATM   24  C   UNL     1      45.744 -29.100   2.227  1.00  0.00     0.210 C 
ENDBRANCH  19  23
BRANCH  20  25
HETATM   25  O   UNL     1      45.620 -27.672  -1.042  1.00  0.00    -0.343 OA
BRANCH  25  26
HETATM   26  C   UNL     1      44.560 -28.312  -1.744  1.00  0.00     0.129 C 
HETATM   27  C   UNL     1      44.795 -28.356  -3.253  1.00  0.00     0.032 C 
HETATM   28  C   UNL     1      44.018 -29.582  -3.693  1.00  0.00     0.002 C 
HETATM   29  C   UNL     1      44.336 -30.601  -2.611  1.00  0.00     0.002 C 
HETATM   30  C   UNL     1      44.513 -29.791  -1.327  1.00  0.00     0.032 C 
ENDBRANCH  25  26
ENDBRANCH  20  25
ENDBRANCH  14  17
BRANCH   1  31
HETATM   31  O   UNL     1      51.040 -34.208   6.098  1.00  0.00    -0.356 OA
HETATM   32  C   UNL     1      50.918 -33.994   7.500  1.00  0.00     0.210 C 
ENDBRANCH   1  31
TORSDOF 5
ENDMDL
MODEL 9
REMARK VINA RESULT:      -7.2      7.019      9.174
REMARK  5 active torsions:
REMARK  status: ('A' for Active; 'I' for Inactive)
REMARK    1  A    between atoms: O_2  and  C_3 
REMARK    2  A    between atoms: C_16  and  C_17 
REMARK    3  A    between atoms: C_19  and  O_20 
REMARK    4  A    between atoms: C_22  and  O_23 
REMARK    5  A    between atoms: O_23  and  C_24 
ROOT
HETATM    1  C   UNL     1      41.193  -8.228  -0.244  1.00  0.00     0.069 A 
HETATM    2  C   UNL     1      40.991  -9.452  -0.897  1.00  0.00     0.051 A 
HETATM    3  C   UNL     1      40.579 -10.581  -0.164  1.00  0.00     0.002 A 
HETATM    4  C   UNL     1      40.374 -10.449   1.209  1.00  0.00     0.043 A 
HETATM    5  N   UNL     1      39.989 -11.680   1.697  1.00  0.00    -0.356 N 
HETATM    6  H   UNL     1      39.799 -11.861   2.676  1.00  0.00     0.166 HD
HETATM    7  C   UNL     1      39.960 -12.590   0.671  1.00  0.00     0.052 A 
HETATM    8  C   UNL     1      40.309 -11.934  -0.495  1.00  0.00    -0.019 A 
HETATM    9  C   UNL     1      40.370 -12.632  -1.811  1.00  0.00     0.069 C 
HETATM   10  C   UNL     1      40.443 -14.156  -1.611  1.00  0.00     0.238 C 
HETATM   11  N   UNL     1      39.449 -14.618  -0.571  1.00  0.00    -0.061 N 
HETATM   12  H   UNL     1      38.508 -14.353  -0.881  1.00  0.00     0.278 HD
HETATM   13  H   UNL     1      39.470 -15.641  -0.501  1.00  0.00     0.278 HD
HETATM   14  C   UNL     1      39.646 -14.039   0.810  1.00  0.00     0.269 C 
HETATM   15  C   UNL     1      40.560  -9.236   1.881  1.00  0.00     0.033 A 
HETATM   16  C   UNL     1      40.975  -8.128   1.129  1.00  0.00     0.039 A 
ENDROOT
BRANCH  14  17
HETATM   17  C   UNL     1      40.667 -14.841   1.597  1.00  0.00    -0.019 A 
HETATM   18  C   UNL     1      40.344 -15.491   2.804  1.00  0.00     0.049 A 
HETATM   19  C   UNL     1      41.312 -16.192   3.532  1.00  0.00     0.102 A 
HETATM   20  C   UNL     1      42.639 -16.227   3.069  1.00  0.00     0.102 A 
HETATM   21  C   UNL     1      42.968 -15.594   1.871  1.00  0.00     0.040 A 
HETATM   22  C   UNL     1      41.994 -14.902   1.144  1.00  0.00     0.012 A 
BRANCH  19  23
HETATM   23  O   UNL     1      41.068 -16.831   4.719  1.00  0.00    -0.353 OA
HETATM   24  C   UNL     1      40.575 -16.060   5.807  1.00  0.00     0.210 C 
ENDBRANCH  19  23
BRANCH  20  25
HETATM   25  O   UNL     1      43.524 -16.947   3.828  1.00  0.00    -0.343 OA
BRANCH  25  26
HETATM   26  C   UNL     1      44.068 -18.149   3.296  1.00  0.00     0.129 C 
HETATM   27  C   UNL     1      44.001 -19.315   4.282  1.00  0.00     0.032 C 
HETATM   28  C   UNL     1      43.949 -20.534   3.382  1.00  0.00     0.002 C 
HETATM   29  C   UNL     1      42.989 -20.110   2.281  1.00  0.00     0.002 C 
HETATM   30  C   UNL     1      43.197 -18.605   2.114  1.00  0.00     0.032 C 
ENDBRANCH  25  26
ENDBRANCH  20  25
ENDBRANCH  14  17
BRANCH   1  31
HETATM   31  O   UNL     1      41.605  -7.216  -1.068  1.00  0.00    -0.356 OA
HETATM   32  C   UNL     1      41.219  -7.298  -2.435  1.00  0.00     0.210 C 
ENDBRANCH   1  31
TORSDOF 5
ENDMDL
MODEL 10
REMARK VINA RESULT:      -7.1     19.072     20.628
REMARK  5 active torsions:
REMARK  status: ('A' for Active; 'I' for Inactive)
REMARK    1  A    between atoms: O_2  and  C_3 
REMARK    2  A    between atoms: C_16  and  C_17 
REMARK    3  A    between atoms: C_19  and  O_20 
REMARK    4  A    between atoms: C_22  and  O_23 
REMARK    5  A    between atoms: O_23  and  C_24 
ROOT
HETATM    1  C   UNL     1      47.844 -33.839   6.804  1.00  0.00     0.069 A 
HETATM    2  C   UNL     1      48.686 -33.146   5.924  1.00  0.00     0.051 A 
HETATM    3  C   UNL     1      48.269 -31.922   5.369  1.00  0.00     0.002 A 
HETATM    4  C   UNL     1      47.016 -31.420   5.722  1.00  0.00     0.043 A 
HETATM    5  N   UNL     1      46.836 -30.229   5.051  1.00  0.00    -0.356 N 
HETATM    6  H   UNL     1      45.993 -29.671   5.115  1.00  0.00     0.166 HD
HETATM    7  C   UNL     1      47.935 -29.972   4.272  1.00  0.00     0.052 A 
HETATM    8  C   UNL     1      48.843 -30.997   4.459  1.00  0.00    -0.019 A 
HETATM    9  C   UNL     1      50.161 -31.028   3.763  1.00  0.00     0.069 C 
HETATM   10  C   UNL     1      50.155 -30.078   2.552  1.00  0.00     0.238 C 
HETATM   11  N   UNL     1      49.533 -28.746   2.906  1.00  0.00    -0.061 N 
HETATM   12  H   UNL     1      50.073 -28.330   3.672  1.00  0.00     0.278 HD
HETATM   13  H   UNL     1      49.598 -28.110   2.105  1.00  0.00     0.278 HD
HETATM   14  C   UNL     1      48.093 -28.808   3.355  1.00  0.00     0.269 C 
HETATM   15  C   UNL     1      46.163 -32.089   6.606  1.00  0.00     0.033 A 
HETATM   16  C   UNL     1      46.600 -33.309   7.140  1.00  0.00     0.039 A 
ENDROOT
BRANCH  14  17
HETATM   17  C   UNL     1      47.150 -28.801   2.165  1.00  0.00    -0.019 A 
HETATM   18  C   UNL     1      45.931 -29.508   2.168  1.00  0.00     0.049 A 
HETATM   19  C   UNL     1      45.096 -29.518   1.045  1.00  0.00     0.102 A 
HETATM   20  C   UNL     1      45.489 -28.835  -0.120  1.00  0.00     0.102 A 
HETATM   21  C   UNL     1      46.690 -28.125  -0.130  1.00  0.00     0.040 A 
HETATM   22  C   UNL     1      47.516 -28.113   0.998  1.00  0.00     0.012 A 
BRANCH  19  23
HETATM   23  O   UNL     1      43.907 -30.197   0.976  1.00  0.00    -0.353 OA
HETATM   24  C   UNL     1      42.789 -29.661   1.671  1.00  0.00     0.210 C 
ENDBRANCH  19  23
BRANCH  20  25
HETATM   25  O   UNL     1      44.611 -28.878  -1.170  1.00  0.00    -0.343 OA
BRANCH  25  26
HETATM   26  C   UNL     1      44.989 -29.571  -2.355  1.00  0.00     0.129 C 
HETATM   27  C   UNL     1      44.272 -30.912  -2.508  1.00  0.00     0.032 C 
HETATM   28  C   UNL     1      44.247 -31.126  -4.009  1.00  0.00     0.002 C 
HETATM   29  C   UNL     1      43.899 -29.749  -4.550  1.00  0.00     0.002 C 
HETATM   30  C   UNL     1      44.527 -28.756  -3.573  1.00  0.00     0.032 C 
ENDBRANCH  25  26
ENDBRANCH  20  25
ENDBRANCH  14  17
BRANCH   1  31
HETATM   31  O   UNL     1      48.363 -35.021   7.260  1.00  0.00    -0.356 OA
HETATM   32  C   UNL     1      49.728 -35.015   7.664  1.00  0.00     0.210 C 
ENDBRANCH   1  31
TORSDOF 5
ENDMDL
