MODEL 1
REMARK VINA RESULT:      -7.7      0.000      0.000
REMARK  5 active torsions:
REMARK  status: ('A' for Active; 'I' for Inactive)
REMARK    1  A    between atoms: C_8  and  N_9 
REMARK       I    between atoms: N_9  and  C_10 
REMARK       I    between atoms: C_10  and  N_11 
REMARK    2  A    between atoms: N_11  and  C_12 
REMARK    3  A    between atoms: C_13  and  O_14 
REMARK    4  A    between atoms: O_14  and  C_15 
REMARK    5  A    between atoms: C_15  and  C_16 
ROOT
HETATM    1  N   UNL     1      42.072 -14.303   3.556  1.00  0.00    -0.305 N 
HETATM    2  C   UNL     1      41.911 -15.672   3.451  1.00  0.00     0.325 C 
HETATM    3  N   UNL     1      43.134 -16.281   3.232  1.00  0.00    -0.306 N 
HETATM    4  O   UNL     1      40.846 -16.267   3.550  1.00  0.00    -0.247 OA
HETATM    5  H   UNL     1      42.948 -14.000   3.955  1.00  0.00     0.171 HD
HETATM    6  H   UNL     1      43.823 -15.721   2.746  1.00  0.00     0.171 HD
ENDROOT
BRANCH   3   7
HETATM    7  C   UNL     1      43.409 -17.663   3.296  1.00  0.00     0.070 A 
HETATM    8  C   UNL     1      43.941 -18.171   4.494  1.00  0.00     0.098 A 
HETATM    9  C   UNL     1      44.170 -19.537   4.656  1.00  0.00     0.081 A 
HETATM   10  C   UNL     1      43.894 -20.393   3.598  1.00  0.00     0.119 A 
HETATM   11  F   UNL     1      44.114 -21.706   3.742  1.00  0.00    -0.206 F 
HETATM   12  C   UNL     1      43.391 -19.911   2.395  1.00  0.00     0.044 A 
HETATM   13  C   UNL     1      43.144 -18.543   2.243  1.00  0.00     0.035 A 
BRANCH   8  14
HETATM   14  O   UNL     1      44.210 -17.288   5.513  1.00  0.00    -0.340 OA
BRANCH  14  15
HETATM   15  C   UNL     1      43.349 -17.527   6.644  1.00  0.00     0.293 C 
BRANCH  15  16
HETATM   16  C   UNL     1      42.777 -16.214   7.151  1.00  0.00     0.408 C 
HETATM   17  F   UNL     1      43.146 -15.979   8.431  1.00  0.00    -0.169 F 
HETATM   18  F   UNL     1      43.188 -15.168   6.402  1.00  0.00    -0.169 F 
HETATM   19  F   UNL     1      41.424 -16.235   7.114  1.00  0.00    -0.169 F 
ENDBRANCH  15  16
ENDBRANCH  14  15
ENDBRANCH   8  14
ENDBRANCH   3   7
BRANCH   1  20
HETATM   20  C   UNL     1      41.039 -13.382   3.571  1.00  0.00     0.086 A 
HETATM   21  C   UNL     1      40.594 -12.735   2.435  1.00  0.00     0.052 A 
HETATM   22  C   UNL     1      41.040 -12.767   1.025  1.00  0.00     0.072 C 
HETATM   23  N   UNL     1      39.576 -11.922   2.850  1.00  0.00    -0.280 N 
HETATM   24  H   UNL     1      39.021 -11.280   2.294  1.00  0.00     0.189 HD
HETATM   25  N   UNL     1      39.300 -12.020   4.155  1.00  0.00    -0.177 NA
HETATM   26  C   UNL     1      40.187 -12.915   4.613  1.00  0.00     0.079 A 
HETATM   27  C   UNL     1      40.117 -13.323   6.039  1.00  0.00     0.075 C 
ENDBRANCH   1  20
TORSDOF 5
ENDMDL
MODEL 2
REMARK VINA RESULT:      -7.5      2.467      3.587
REMARK  5 active torsions:
REMARK  status: ('A' for Active; 'I' for Inactive)
REMARK    1  A    between atoms: C_8  and  N_9 
REMARK       I    between atoms: N_9  and  C_10 
REMARK       I    between atoms: C_10  and  N_11 
REMARK    2  A    between atoms: N_11  and  C_12 
REMARK    3  A    between atoms: C_13  and  O_14 
REMARK    4  A    between atoms: O_14  and  C_15 
REMARK    5  A    between atoms: C_15  and  C_16 
ROOT
HETATM    1  N   UNL     1      41.174 -13.824   0.575  1.00  0.00    -0.305 N 
HETATM    2  C   UNL     1      41.278 -15.025   1.253  1.00  0.00     0.325 C 
HETATM    3  N   UNL     1      42.606 -15.318   1.503  1.00  0.00    -0.306 N 
HETATM    4  O   UNL     1      40.335 -15.726   1.595  1.00  0.00    -0.247 OA
HETATM    5  H   UNL     1      41.884 -13.142   0.794  1.00  0.00     0.171 HD
HETATM    6  H   UNL     1      43.272 -14.948   0.837  1.00  0.00     0.171 HD
ENDROOT
BRANCH   3   7
HETATM    7  C   UNL     1      43.099 -16.327   2.357  1.00  0.00     0.070 A 
HETATM    8  C   UNL     1      43.225 -16.025   3.725  1.00  0.00     0.098 A 
HETATM    9  C   UNL     1      43.635 -16.994   4.639  1.00  0.00     0.081 A 
HETATM   10  C   UNL     1      43.952 -18.264   4.175  1.00  0.00     0.119 A 
HETATM   11  F   UNL     1      44.351 -19.201   5.044  1.00  0.00    -0.206 F 
HETATM   12  C   UNL     1      43.859 -18.578   2.823  1.00  0.00     0.044 A 
HETATM   13  C   UNL     1      43.428 -17.610   1.912  1.00  0.00     0.035 A 
BRANCH   8  14
HETATM   14  O   UNL     1      42.911 -14.753   4.142  1.00  0.00    -0.340 OA
BRANCH  14  15
HETATM   15  C   UNL     1      42.260 -14.778   5.428  1.00  0.00     0.293 C 
BRANCH  15  16
HETATM   16  C   UNL     1      40.752 -14.836   5.248  1.00  0.00     0.408 C 
HETATM   17  F   UNL     1      40.348 -16.077   4.892  1.00  0.00    -0.169 F 
HETATM   18  F   UNL     1      40.100 -14.497   6.381  1.00  0.00    -0.169 F 
HETATM   19  F   UNL     1      40.352 -13.983   4.277  1.00  0.00    -0.169 F 
ENDBRANCH  15  16
ENDBRANCH  14  15
ENDBRANCH   8  14
ENDBRANCH   3   7
BRANCH   1  20
HETATM   20  C   UNL     1      40.015 -13.339  -0.007  1.00  0.00     0.086 A 
HETATM   21  C   UNL     1      39.135 -12.506   0.654  1.00  0.00     0.052 A 
HETATM   22  C   UNL     1      39.111 -11.965   2.032  1.00  0.00     0.072 C 
HETATM   23  N   UNL     1      38.134 -12.245  -0.240  1.00  0.00    -0.280 N 
HETATM   24  H   UNL     1      37.301 -11.683  -0.101  1.00  0.00     0.189 HD
HETATM   25  N   UNL     1      38.316 -12.808  -1.439  1.00  0.00    -0.177 NA
HETATM   26  C   UNL     1      39.469 -13.482  -1.315  1.00  0.00     0.079 A 
HETATM   27  C   UNL     1      40.017 -14.182  -2.504  1.00  0.00     0.075 C 
ENDBRANCH   1  20
TORSDOF 5
ENDMDL
MODEL 3
REMARK VINA RESULT:      -7.4      1.611      2.413
REMARK  5 active torsions:
REMARK  status: ('A' for Active; 'I' for Inactive)
REMARK    1  A    between atoms: C_8  and  N_9 
REMARK       I    between atoms: N_9  and  C_10 
REMARK       I    between atoms: C_10  and  N_11 
REMARK    2  A    between atoms: N_11  and  C_12 
REMARK    3  A    between atoms: C_13  and  O_14 
REMARK    4  A    between atoms: O_14  and  C_15 
REMARK    5  A    between atoms: C_15  and  C_16 
ROOT
HETATM    1  N   UNL     1      42.107 -14.842   1.261  1.00  0.00    -0.305 N 
HETATM    2  C   UNL     1      41.969 -15.991   2.017  1.00  0.00     0.325 C 
HETATM    3  N   UNL     1      43.050 -16.829   1.814  1.00  0.00    -0.306 N 
HETATM    4  O   UNL     1      41.033 -16.233   2.769  1.00  0.00    -0.247 OA
HETATM    5  H   UNL     1      43.056 -14.534   1.113  1.00  0.00     0.171 HD
HETATM    6  H   UNL     1      43.497 -16.759   0.908  1.00  0.00     0.171 HD
ENDROOT
BRANCH   3   7
HETATM    7  C   UNL     1      43.379 -17.975   2.567  1.00  0.00     0.070 A 
HETATM    8  C   UNL     1      43.814 -17.788   3.890  1.00  0.00     0.098 A 
HETATM    9  C   UNL     1      44.087 -18.877   4.718  1.00  0.00     0.081 A 
HETATM   10  C   UNL     1      43.955 -20.160   4.204  1.00  0.00     0.119 A 
HETATM   11  F   UNL     1      44.218 -21.212   4.988  1.00  0.00    -0.206 F 
HETATM   12  C   UNL     1      43.550 -20.370   2.890  1.00  0.00     0.044 A 
HETATM   13  C   UNL     1      43.258 -19.276   2.069  1.00  0.00     0.035 A 
BRANCH   8  14
HETATM   14  O   UNL     1      43.943 -16.501   4.357  1.00  0.00    -0.340 OA
BRANCH  14  15
HETATM   15  C   UNL     1      43.188 -16.315   5.572  1.00  0.00     0.293 C 
BRANCH  15  16
HETATM   16  C   UNL     1      44.077 -15.721   6.652  1.00  0.00     0.408 C 
HETATM   17  F   UNL     1      45.302 -16.295   6.650  1.00  0.00    -0.169 F 
HETATM   18  F   UNL     1      44.242 -14.391   6.486  1.00  0.00    -0.169 F 
HETATM   19  F   UNL     1      43.537 -15.915   7.877  1.00  0.00    -0.169 F 
ENDBRANCH  15  16
ENDBRANCH  14  15
ENDBRANCH   8  14
ENDBRANCH   3   7
BRANCH   1  20
HETATM   20  C   UNL     1      41.117 -13.893   1.071  1.00  0.00     0.086 A 
HETATM   21  C   UNL     1      41.011 -12.753   1.843  1.00  0.00     0.052 A 
HETATM   22  C   UNL     1      41.782 -12.255   3.003  1.00  0.00     0.072 C 
HETATM   23  N   UNL     1      39.930 -12.076   1.352  1.00  0.00    -0.280 N 
HETATM   24  H   UNL     1      39.536 -11.202   1.683  1.00  0.00     0.189 HD
HETATM   25  N   UNL     1      39.352 -12.665   0.300  1.00  0.00    -0.177 NA
HETATM   26  C   UNL     1      40.070 -13.781   0.111  1.00  0.00     0.079 A 
HETATM   27  C   UNL     1      39.739 -14.656  -1.042  1.00  0.00     0.075 C 
ENDBRANCH   1  20
TORSDOF 5
ENDMDL
MODEL 4
REMARK VINA RESULT:      -7.2      1.844      2.277
REMARK  5 active torsions:
REMARK  status: ('A' for Active; 'I' for Inactive)
REMARK    1  A    between atoms: C_8  and  N_9 
REMARK       I    between atoms: N_9  and  C_10 
REMARK       I    between atoms: C_10  and  N_11 
REMARK    2  A    between atoms: N_11  and  C_12 
REMARK    3  A    between atoms: C_13  and  O_14 
REMARK    4  A    between atoms: O_14  and  C_15 
REMARK    5  A    between atoms: C_15  and  C_16 
ROOT
HETATM    1  N   UNL     1      41.438 -13.694   2.216  1.00  0.00    -0.305 N 
HETATM    2  C   UNL     1      42.480 -14.595   2.332  1.00  0.00     0.325 C 
HETATM    3  N   UNL     1      42.115 -15.641   3.160  1.00  0.00    -0.306 N 
HETATM    4  O   UNL     1      43.566 -14.495   1.776  1.00  0.00    -0.247 OA
HETATM    5  H   UNL     1      40.513 -14.093   2.268  1.00  0.00     0.171 HD
HETATM    6  H   UNL     1      41.433 -15.420   3.875  1.00  0.00     0.171 HD
ENDROOT
BRANCH   3   7
HETATM    7  C   UNL     1      42.813 -16.854   3.341  1.00  0.00     0.070 A 
HETATM    8  C   UNL     1      43.621 -16.981   4.485  1.00  0.00     0.098 A 
HETATM    9  C   UNL     1      44.282 -18.176   4.768  1.00  0.00     0.081 A 
HETATM   10  C   UNL     1      44.159 -19.237   3.881  1.00  0.00     0.119 A 
HETATM   11  F   UNL     1      44.794 -20.387   4.140  1.00  0.00    -0.206 F 
HETATM   12  C   UNL     1      43.386 -19.126   2.730  1.00  0.00     0.044 A 
HETATM   13  C   UNL     1      42.708 -17.934   2.460  1.00  0.00     0.035 A 
BRANCH   8  14
HETATM   14  O   UNL     1      43.724 -15.903   5.331  1.00  0.00    -0.340 OA
BRANCH  14  15
HETATM   15  C   UNL     1      43.819 -16.332   6.704  1.00  0.00     0.293 C 
BRANCH  15  16
HETATM   16  C   UNL     1      42.788 -15.604   7.551  1.00  0.00     0.408 C 
HETATM   17  F   UNL     1      41.563 -16.163   7.421  1.00  0.00    -0.169 F 
HETATM   18  F   UNL     1      43.115 -15.622   8.861  1.00  0.00    -0.169 F 
HETATM   19  F   UNL     1      42.687 -14.309   7.173  1.00  0.00    -0.169 F 
ENDBRANCH  15  16
ENDBRANCH  14  15
ENDBRANCH   8  14
ENDBRANCH   3   7
BRANCH   1  20
HETATM   20  C   UNL     1      41.534 -12.441   1.634  1.00  0.00     0.086 A 
HETATM   21  C   UNL     1      41.045 -12.159   0.374  1.00  0.00     0.052 A 
HETATM   22  C   UNL     1      40.389 -12.995  -0.656  1.00  0.00     0.072 C 
HETATM   23  N   UNL     1      41.320 -10.837   0.160  1.00  0.00    -0.280 N 
HETATM   24  H   UNL     1      41.124 -10.283  -0.666  1.00  0.00     0.189 HD
HETATM   25  N   UNL     1      41.911 -10.231   1.195  1.00  0.00    -0.177 NA
HETATM   26  C   UNL     1      42.047 -11.201   2.111  1.00  0.00     0.079 A 
HETATM   27  C   UNL     1      42.615 -10.854   3.438  1.00  0.00     0.075 C 
ENDBRANCH   1  20
TORSDOF 5
ENDMDL
MODEL 5
REMARK VINA RESULT:      -7.2      2.070      4.325
REMARK  5 active torsions:
REMARK  status: ('A' for Active; 'I' for Inactive)
REMARK    1  A    between atoms: C_8  and  N_9 
REMARK       I    between atoms: N_9  and  C_10 
REMARK       I    between atoms: C_10  and  N_11 
REMARK    2  A    between atoms: N_11  and  C_12 
REMARK    3  A    between atoms: C_13  and  O_14 
REMARK    4  A    between atoms: O_14  and  C_15 
REMARK    5  A    between atoms: C_15  and  C_16 
ROOT
HETATM    1  N   UNL     1      41.975 -13.581   1.699  1.00  0.00    -0.305 N 
HETATM    2  C   UNL     1      41.651 -14.502   2.678  1.00  0.00     0.325 C 
HETATM    3  N   UNL     1      42.793 -15.129   3.140  1.00  0.00    -0.306 N 
HETATM    4  O   UNL     1      40.520 -14.725   3.089  1.00  0.00    -0.247 OA
HETATM    5  H   UNL     1      42.875 -13.137   1.804  1.00  0.00     0.171 HD
HETATM    6  H   UNL     1      43.553 -15.206   2.475  1.00  0.00     0.171 HD
ENDROOT
BRANCH   3   7
HETATM    7  C   UNL     1      42.897 -15.954   4.279  1.00  0.00     0.070 A 
HETATM    8  C   UNL     1      43.368 -17.266   4.099  1.00  0.00     0.098 A 
HETATM    9  C   UNL     1      43.567 -18.115   5.187  1.00  0.00     0.081 A 
HETATM   10  C   UNL     1      43.260 -17.655   6.461  1.00  0.00     0.119 A 
HETATM   11  F   UNL     1      43.442 -18.463   7.513  1.00  0.00    -0.206 F 
HETATM   12  C   UNL     1      42.768 -16.370   6.662  1.00  0.00     0.044 A 
HETATM   13  C   UNL     1      42.590 -15.515   5.570  1.00  0.00     0.035 A 
BRANCH   8  14
HETATM   14  O   UNL     1      43.650 -17.686   2.820  1.00  0.00    -0.340 OA
BRANCH  14  15
HETATM   15  C   UNL     1      44.333 -18.956   2.832  1.00  0.00     0.293 C 
BRANCH  15  16
HETATM   16  C   UNL     1      43.419 -20.044   2.292  1.00  0.00     0.408 C 
HETATM   17  F   UNL     1      43.920 -20.587   1.159  1.00  0.00    -0.169 F 
HETATM   18  F   UNL     1      43.246 -21.040   3.188  1.00  0.00    -0.169 F 
HETATM   19  F   UNL     1      42.197 -19.542   2.000  1.00  0.00    -0.169 F 
ENDBRANCH  15  16
ENDBRANCH  14  15
ENDBRANCH   8  14
ENDBRANCH   3   7
BRANCH   1  20
HETATM   20  C   UNL     1      41.062 -12.931   0.887  1.00  0.00     0.086 A 
HETATM   21  C   UNL     1      40.968 -11.555   0.814  1.00  0.00     0.052 A 
HETATM   22  C   UNL     1      41.679 -10.464   1.517  1.00  0.00     0.072 C 
HETATM   23  N   UNL     1      39.970 -11.302  -0.086  1.00  0.00    -0.280 N 
HETATM   24  H   UNL     1      39.607 -10.402  -0.381  1.00  0.00     0.189 HD
HETATM   25  N   UNL     1      39.438 -12.401  -0.631  1.00  0.00    -0.177 NA
HETATM   26  C   UNL     1      40.099 -13.411  -0.047  1.00  0.00     0.079 A 
HETATM   27  C   UNL     1      39.803 -14.801  -0.478  1.00  0.00     0.075 C 
ENDBRANCH   1  20
TORSDOF 5
ENDMDL
MODEL 6
REMARK VINA RESULT:      -7.2      2.808      6.411
REMARK  5 active torsions:
REMARK  status: ('A' for Active; 'I' for Inactive)
REMARK    1  A    between atoms: C_8  and  N_9 
REMARK       I    between atoms: N_9  and  C_10 
REMARK       I    between atoms: C_10  and  N_11 
REMARK    2  A    between atoms: N_11  and  C_12 
REMARK    3  A    between atoms: C_13  and  O_14 
REMARK    4  A    between atoms: O_14  and  C_15 
REMARK    5  A    between atoms: C_15  and  C_16 
ROOT
HETATM    1  N   UNL     1      43.540 -17.489   2.517  1.00  0.00    -0.305 N 
HETATM    2  C   UNL     1      42.479 -16.605   2.566  1.00  0.00     0.325 C 
HETATM    3  N   UNL     1      42.699 -15.548   1.701  1.00  0.00    -0.306 N 
HETATM    4  O   UNL     1      41.480 -16.738   3.261  1.00  0.00    -0.247 OA
HETATM    5  H   UNL     1      44.003 -17.560   1.624  1.00  0.00     0.171 HD
HETATM    6  H   UNL     1      43.668 -15.309   1.535  1.00  0.00     0.171 HD
ENDROOT
BRANCH   3   7
HETATM    7  C   UNL     1      41.757 -14.574   1.307  1.00  0.00     0.070 A 
HETATM    8  C   UNL     1      41.942 -13.258   1.766  1.00  0.00     0.098 A 
HETATM    9  C   UNL     1      41.095 -12.229   1.358  1.00  0.00     0.081 A 
HETATM   10  C   UNL     1      40.036 -12.528   0.510  1.00  0.00     0.119 A 
HETATM   11  F   UNL     1      39.213 -11.548   0.116  1.00  0.00    -0.206 F 
HETATM   12  C   UNL     1      39.818 -13.826   0.063  1.00  0.00     0.044 A 
HETATM   13  C   UNL     1      40.682 -14.853   0.458  1.00  0.00     0.035 A 
BRANCH   8  14
HETATM   14  O   UNL     1      42.996 -13.007   2.612  1.00  0.00    -0.340 OA
BRANCH  14  15
HETATM   15  C   UNL     1      42.541 -12.394   3.835  1.00  0.00     0.293 C 
BRANCH  15  16
HETATM   16  C   UNL     1      42.355 -13.451   4.911  1.00  0.00     0.408 C 
HETATM   17  F   UNL     1      41.143 -14.044   4.813  1.00  0.00    -0.169 F 
HETATM   18  F   UNL     1      43.296 -14.417   4.829  1.00  0.00    -0.169 F 
HETATM   19  F   UNL     1      42.443 -12.901   6.144  1.00  0.00    -0.169 F 
ENDBRANCH  15  16
ENDBRANCH  14  15
ENDBRANCH   8  14
ENDBRANCH   3   7
BRANCH   1  20
HETATM   20  C   UNL     1      43.739 -18.539   3.397  1.00  0.00     0.086 A 
HETATM   21  C   UNL     1      43.779 -19.859   2.994  1.00  0.00     0.052 A 
HETATM   22  C   UNL     1      43.598 -20.510   1.677  1.00  0.00     0.072 C 
HETATM   23  N   UNL     1      43.996 -20.585   4.132  1.00  0.00    -0.280 N 
HETATM   24  H   UNL     1      44.065 -21.592   4.229  1.00  0.00     0.189 HD
HETATM   25  N   UNL     1      44.141 -19.839   5.233  1.00  0.00    -0.177 NA
HETATM   26  C   UNL     1      43.989 -18.579   4.799  1.00  0.00     0.079 A 
HETATM   27  C   UNL     1      44.161 -17.466   5.767  1.00  0.00     0.075 C 
ENDBRANCH   1  20
TORSDOF 5
ENDMDL
MODEL 7
REMARK VINA RESULT:      -7.2      2.839      3.845
REMARK  5 active torsions:
REMARK  status: ('A' for Active; 'I' for Inactive)
REMARK    1  A    between atoms: C_8  and  N_9 
REMARK       I    between atoms: N_9  and  C_10 
REMARK       I    between atoms: C_10  and  N_11 
REMARK    2  A    between atoms: N_11  and  C_12 
REMARK    3  A    between atoms: C_13  and  O_14 
REMARK    4  A    between atoms: O_14  and  C_15 
REMARK    5  A    between atoms: C_15  and  C_16 
ROOT
HETATM    1  N   UNL     1      40.858 -13.741   0.165  1.00  0.00    -0.305 N 
HETATM    2  C   UNL     1      40.944 -14.789   1.062  1.00  0.00     0.325 C 
HETATM    3  N   UNL     1      42.249 -15.237   1.149  1.00  0.00    -0.306 N 
HETATM    4  O   UNL     1      40.006 -15.250   1.701  1.00  0.00    -0.247 OA
HETATM    5  H   UNL     1      41.675 -13.153   0.108  1.00  0.00     0.171 HD
HETATM    6  H   UNL     1      42.812 -15.116   0.317  1.00  0.00     0.171 HD
ENDROOT
BRANCH   3   7
HETATM    7  C   UNL     1      42.771 -16.128   2.110  1.00  0.00     0.070 A 
HETATM    8  C   UNL     1      43.170 -15.596   3.349  1.00  0.00     0.098 A 
HETATM    9  C   UNL     1      43.626 -16.424   4.373  1.00  0.00     0.081 A 
HETATM   10  C   UNL     1      43.713 -17.791   4.142  1.00  0.00     0.119 A 
HETATM   11  F   UNL     1      44.155 -18.595   5.117  1.00  0.00    -0.206 F 
HETATM   12  C   UNL     1      43.348 -18.337   2.917  1.00  0.00     0.044 A 
HETATM   13  C   UNL     1      42.872 -17.506   1.898  1.00  0.00     0.035 A 
BRANCH   8  14
HETATM   14  O   UNL     1      43.078 -14.237   3.533  1.00  0.00    -0.340 OA
BRANCH  14  15
HETATM   15  C   UNL     1      42.475 -13.928   4.806  1.00  0.00     0.293 C 
BRANCH  15  16
HETATM   16  C   UNL     1      41.176 -13.168   4.597  1.00  0.00     0.408 C 
HETATM   17  F   UNL     1      41.180 -12.502   3.419  1.00  0.00    -0.169 F 
HETATM   18  F   UNL     1      40.108 -13.994   4.601  1.00  0.00    -0.169 F 
HETATM   19  F   UNL     1      40.990 -12.257   5.581  1.00  0.00    -0.169 F 
ENDBRANCH  15  16
ENDBRANCH  14  15
ENDBRANCH   8  14
ENDBRANCH   3   7
BRANCH   1  20
HETATM   20  C   UNL     1      39.676 -13.198  -0.311  1.00  0.00     0.086 A 
HETATM   21  C   UNL     1      38.953 -13.762  -1.342  1.00  0.00     0.052 A 
HETATM   22  C   UNL     1      39.187 -14.945  -2.201  1.00  0.00     0.072 C 
HETATM   23  N   UNL     1      37.865 -12.952  -1.515  1.00  0.00    -0.280 N 
HETATM   24  H   UNL     1      37.120 -13.041  -2.197  1.00  0.00     0.189 HD
HETATM   25  N   UNL     1      37.805 -11.932  -0.652  1.00  0.00    -0.177 NA
HETATM   26  C   UNL     1      38.909 -12.069   0.098  1.00  0.00     0.079 A 
HETATM   27  C   UNL     1      39.128 -11.126   1.223  1.00  0.00     0.075 C 
ENDBRANCH   1  20
TORSDOF 5
ENDMDL
MODEL 8
REMARK VINA RESULT:      -7.0      3.345      4.833
REMARK  5 active torsions:
REMARK  status: ('A' for Active; 'I' for Inactive)
REMARK    1  A    between atoms: C_8  and  N_9 
REMARK       I    between atoms: N_9  and  C_10 
REMARK       I    between atoms: C_10  and  N_11 
REMARK    2  A    between atoms: N_11  and  C_12 
REMARK    3  A    between atoms: C_13  and  O_14 
REMARK    4  A    between atoms: O_14  and  C_15 
REMARK    5  A    between atoms: C_15  and  C_16 
ROOT
HETATM    1  N   UNL     1      40.678 -13.705  -0.417  1.00  0.00    -0.305 N 
HETATM    2  C   UNL     1      40.789 -14.593   0.636  1.00  0.00     0.325 C 
HETATM    3  N   UNL     1      42.116 -14.926   0.843  1.00  0.00    -0.306 N 
HETATM    4  O   UNL     1      39.854 -15.018   1.303  1.00  0.00    -0.247 OA
HETATM    5  H   UNL     1      41.457 -13.074  -0.534  1.00  0.00     0.171 HD
HETATM    6  H   UNL     1      42.710 -14.892   0.024  1.00  0.00     0.171 HD
ENDROOT
BRANCH   3   7
HETATM    7  C   UNL     1      42.647 -15.617   1.951  1.00  0.00     0.070 A 
HETATM    8  C   UNL     1      42.978 -14.868   3.094  1.00  0.00     0.098 A 
HETATM    9  C   UNL     1      43.439 -15.491   4.253  1.00  0.00     0.081 A 
HETATM   10  C   UNL     1      43.601 -16.870   4.254  1.00  0.00     0.119 A 
HETATM   11  F   UNL     1      44.047 -17.479   5.360  1.00  0.00    -0.206 F 
HETATM   12  C   UNL     1      43.305 -17.629   3.128  1.00  0.00     0.044 A 
HETATM   13  C   UNL     1      42.823 -17.003   1.974  1.00  0.00     0.035 A 
BRANCH   8  14
HETATM   14  O   UNL     1      42.813 -13.504   3.048  1.00  0.00    -0.340 OA
BRANCH  14  15
HETATM   15  C   UNL     1      42.992 -12.918   4.353  1.00  0.00     0.293 C 
BRANCH  15  16
HETATM   16  C   UNL     1      43.654 -11.555   4.227  1.00  0.00     0.408 C 
HETATM   17  F   UNL     1      42.822 -10.657   3.651  1.00  0.00    -0.169 F 
HETATM   18  F   UNL     1      44.023 -11.066   5.431  1.00  0.00    -0.169 F 
HETATM   19  F   UNL     1      44.766 -11.632   3.460  1.00  0.00    -0.169 F 
ENDBRANCH  15  16
ENDBRANCH  14  15
ENDBRANCH   8  14
ENDBRANCH   3   7
BRANCH   1  20
HETATM   20  C   UNL     1      39.488 -13.330  -1.017  1.00  0.00     0.086 A 
HETATM   21  C   UNL     1      38.884 -12.110  -0.787  1.00  0.00     0.052 A 
HETATM   22  C   UNL     1      39.229 -10.971   0.092  1.00  0.00     0.072 C 
HETATM   23  N   UNL     1      37.751 -12.112  -1.553  1.00  0.00    -0.280 N 
HETATM   24  H   UNL     1      37.044 -11.388  -1.626  1.00  0.00     0.189 HD
HETATM   25  N   UNL     1      37.594 -13.217  -2.290  1.00  0.00    -0.177 NA
HETATM   26  C   UNL     1      38.655 -13.975  -1.976  1.00  0.00     0.079 A 
HETATM   27  C   UNL     1      38.838 -15.270  -2.678  1.00  0.00     0.075 C 
ENDBRANCH   1  20
TORSDOF 5
ENDMDL
MODEL 9
REMARK VINA RESULT:      -7.0      4.238      7.281
REMARK  5 active torsions:
REMARK  status: ('A' for Active; 'I' for Inactive)
REMARK    1  A    between atoms: C_8  and  N_9 
REMARK       I    between atoms: N_9  and  C_10 
REMARK       I    between atoms: C_10  and  N_11 
REMARK    2  A    between atoms: N_11  and  C_12 
REMARK    3  A    between atoms: C_13  and  O_14 
REMARK    4  A    between atoms: O_14  and  C_15 
REMARK    5  A    between atoms: C_15  and  C_16 
ROOT
HETATM    1  N   UNL     1      42.297 -15.211   1.319  1.00  0.00    -0.305 N 
HETATM    2  C   UNL     1      40.980 -14.962   0.983  1.00  0.00     0.325 C 
HETATM    3  N   UNL     1      40.917 -14.216  -0.180  1.00  0.00    -0.306 N 
HETATM    4  O   UNL     1      40.005 -15.353   1.612  1.00  0.00    -0.247 OA
HETATM    5  H   UNL     1      42.933 -15.301   0.540  1.00  0.00     0.171 HD
HETATM    6  H   UNL     1      41.704 -13.604  -0.354  1.00  0.00     0.171 HD
ENDROOT
BRANCH   3   7
HETATM    7  C   UNL     1      39.765 -13.959  -0.953  1.00  0.00     0.070 A 
HETATM    8  C   UNL     1      39.043 -12.784  -0.684  1.00  0.00     0.098 A 
HETATM    9  C   UNL     1      37.937 -12.428  -1.455  1.00  0.00     0.081 A 
HETATM   10  C   UNL     1      37.535 -13.272  -2.481  1.00  0.00     0.119 A 
HETATM   11  F   UNL     1      36.472 -12.941  -3.225  1.00  0.00    -0.206 F 
HETATM   12  C   UNL     1      38.219 -14.452  -2.751  1.00  0.00     0.044 A 
HETATM   13  C   UNL     1      39.339 -14.797  -1.988  1.00  0.00     0.035 A 
BRANCH   8  14
HETATM   14  O   UNL     1      39.468 -11.981   0.348  1.00  0.00    -0.340 OA
BRANCH  14  15
HETATM   15  C   UNL     1      38.491 -11.942   1.408  1.00  0.00     0.293 C 
BRANCH  15  16
HETATM   16  C   UNL     1      39.186 -11.838   2.755  1.00  0.00     0.408 C 
HETATM   17  F   UNL     1      38.641 -10.860   3.514  1.00  0.00    -0.169 F 
HETATM   18  F   UNL     1      39.106 -12.994   3.449  1.00  0.00    -0.169 F 
HETATM   19  F   UNL     1      40.498 -11.548   2.596  1.00  0.00    -0.169 F 
ENDBRANCH  15  16
ENDBRANCH  14  15
ENDBRANCH   8  14
ENDBRANCH   3   7
BRANCH   1  20
HETATM   20  C   UNL     1      42.722 -15.748   2.523  1.00  0.00     0.086 A 
HETATM   21  C   UNL     1      42.908 -14.987   3.660  1.00  0.00     0.052 A 
HETATM   22  C   UNL     1      42.783 -13.537   3.926  1.00  0.00     0.072 C 
HETATM   23  N   UNL     1      43.318 -15.864   4.625  1.00  0.00    -0.280 N 
HETATM   24  H   UNL     1      43.569 -15.663   5.587  1.00  0.00     0.189 HD
HETATM   25  N   UNL     1      43.373 -17.136   4.217  1.00  0.00    -0.177 NA
HETATM   26  C   UNL     1      43.006 -17.084   2.927  1.00  0.00     0.079 A 
HETATM   27  C   UNL     1      42.888 -18.354   2.168  1.00  0.00     0.075 C 
ENDBRANCH   1  20
TORSDOF 5
ENDMDL
MODEL 10
REMARK VINA RESULT:      -6.9      4.750      7.610
REMARK  5 active torsions:
REMARK  status: ('A' for Active; 'I' for Inactive)
REMARK    1  A    between atoms: C_8  and  N_9 
REMARK       I    between atoms: N_9  and  C_10 
REMARK       I    between atoms: C_10  and  N_11 
REMARK    2  A    between atoms: N_11  and  C_12 
REMARK    3  A    between atoms: C_13  and  O_14 
REMARK    4  A    between atoms: O_14  and  C_15 
REMARK    5  A    between atoms: C_15  and  C_16 
ROOT
HETATM    1  N   UNL     1      42.249 -15.095   1.304  1.00  0.00    -0.305 N 
HETATM    2  C   UNL     1      40.939 -14.830   0.947  1.00  0.00     0.325 C 
HETATM    3  N   UNL     1      40.894 -14.245  -0.304  1.00  0.00    -0.306 N 
HETATM    4  O   UNL     1      39.957 -15.087   1.631  1.00  0.00    -0.247 OA
HETATM    5  H   UNL     1      42.868 -15.318   0.539  1.00  0.00     0.171 HD
HETATM    6  H   UNL     1      41.706 -13.699  -0.565  1.00  0.00     0.171 HD
ENDROOT
BRANCH   3   7
HETATM    7  C   UNL     1      39.745 -14.039  -1.096  1.00  0.00     0.070 A 
HETATM    8  C   UNL     1      39.046 -12.830  -0.937  1.00  0.00     0.098 A 
HETATM    9  C   UNL     1      37.945 -12.526  -1.736  1.00  0.00     0.081 A 
HETATM   10  C   UNL     1      37.523 -13.455  -2.678  1.00  0.00     0.119 A 
HETATM   11  F   UNL     1      36.463 -13.174  -3.447  1.00  0.00    -0.206 F 
HETATM   12  C   UNL     1      38.183 -14.668  -2.836  1.00  0.00     0.044 A 
HETATM   13  C   UNL     1      39.299 -14.961  -2.047  1.00  0.00     0.035 A 
BRANCH   8  14
HETATM   14  O   UNL     1      39.491 -11.942   0.014  1.00  0.00    -0.340 OA
BRANCH  14  15
HETATM   15  C   UNL     1      38.477 -10.963   0.320  1.00  0.00     0.293 C 
BRANCH  15  16
HETATM   16  C   UNL     1      37.787 -11.318   1.627  1.00  0.00     0.408 C 
HETATM   17  F   UNL     1      36.485 -11.627   1.427  1.00  0.00    -0.169 F 
HETATM   18  F   UNL     1      38.375 -12.373   2.232  1.00  0.00    -0.169 F 
HETATM   19  F   UNL     1      37.832 -10.277   2.490  1.00  0.00    -0.169 F 
ENDBRANCH  15  16
ENDBRANCH  14  15
ENDBRANCH   8  14
ENDBRANCH   3   7
BRANCH   1  20
HETATM   20  C   UNL     1      42.665 -15.486   2.565  1.00  0.00     0.086 A 
HETATM   21  C   UNL     1      42.968 -16.795   2.883  1.00  0.00     0.052 A 
HETATM   22  C   UNL     1      42.911 -18.053   2.106  1.00  0.00     0.072 C 
HETATM   23  N   UNL     1      43.338 -16.777   4.199  1.00  0.00    -0.280 N 
HETATM   24  H   UNL     1      43.611 -17.560   4.783  1.00  0.00     0.189 HD
HETATM   25  N   UNL     1      43.339 -15.557   4.747  1.00  0.00    -0.177 NA
HETATM   26  C   UNL     1      42.930 -14.751   3.756  1.00  0.00     0.079 A 
HETATM   27  C   UNL     1      42.881 -13.287   4.002  1.00  0.00     0.075 C 
ENDBRANCH   1  20
TORSDOF 5
ENDMDL
