MODEL 1
REMARK VINA RESULT:      -7.6      0.000      0.000
REMARK  9 active torsions:
REMARK  status: ('A' for Active; 'I' for Inactive)
REMARK    1  A    between atoms: C_2  and  C_3 
REMARK    2  A    between atoms: C_7  and  C_8 
REMARK    3  A    between atoms: C_8  and  C_9 
REMARK       I    between atoms: C_9  and  N_10 
REMARK    4  A    between atoms: N_10  and  C_11 
REMARK    5  A    between atoms: C_11  and  C_12 
REMARK    6  A    between atoms: C_12  and  C_13 
REMARK    7  A    between atoms: C_21  and  C_22 
REMARK    8  A    between atoms: C_32  and  C_33 
REMARK    9  A    between atoms: C_33  and  O_34 
ROOT
HETATM    1  C   UNL     1      42.644 -10.452   7.170  1.00  0.00     0.051 C 
HETATM    2  N   UNL     1      41.988  -9.384   6.590  1.00  0.00    -0.228 NA
HETATM    3  C   UNL     1      41.595  -9.519   5.370  1.00  0.00     0.170 C 
HETATM    4  N   UNL     1      41.470 -10.889   4.598  1.00  0.00    -0.318 N 
HETATM    5  C   UNL     1      40.834 -10.677   3.490  1.00  0.00     0.011 C 
HETATM    6  C   UNL     1      41.682 -12.032   5.512  1.00  0.00     0.166 C 
HETATM    7  S   UNL     1      41.021  -8.178   4.421  1.00  0.00    -0.086 SA
HETATM    8  C   UNL     1      40.915  -9.258   2.970  1.00  0.00     0.135 C 
HETATM    9  C   UNL     1      42.684 -11.661   6.570  1.00  0.00     0.069 C 
ENDROOT
BRANCH   5  10
HETATM   10  C   UNL     1      39.818 -11.637   2.935  1.00  0.00     0.156 C 
BRANCH  10  11
HETATM   11  C   UNL     1      40.498 -12.434   1.835  1.00  0.00     0.222 C 
HETATM   12  N   UNL     1      40.094 -13.734   1.675  1.00  0.00    -0.361 N 
HETATM   13  H   UNL     1      39.212 -14.035   2.082  1.00  0.00     0.162 HD
HETATM   14  O   UNL     1      41.425 -11.931   1.202  1.00  0.00    -0.273 OA
BRANCH  12  15
HETATM   15  C   UNL     1      40.696 -14.592   0.660  1.00  0.00     0.124 C 
BRANCH  15  16
HETATM   16  C   UNL     1      39.719 -14.904  -0.483  1.00  0.00     0.053 C 
BRANCH  16  17
HETATM   17  C   UNL     1      39.499 -13.710  -1.427  1.00  0.00     0.189 C 
HETATM   18  N   UNL     1      38.038 -13.245  -1.301  1.00  0.00    -0.071 N 
HETATM   19  H   UNL     1      37.550 -13.843  -0.623  1.00  0.00     0.279 HD
HETATM   20  C   UNL     1      37.886 -11.832  -0.810  1.00  0.00     0.270 C 
HETATM   21  C   UNL     1      37.356 -13.467  -2.642  1.00  0.00     0.235 C 
HETATM   22  C   UNL     1      38.249 -14.470  -3.338  1.00  0.00     0.030 C 
HETATM   23  C   UNL     1      39.639 -14.038  -2.913  1.00  0.00     0.035 C 
ENDBRANCH  16  17
ENDBRANCH  15  16
ENDBRANCH  12  15
ENDBRANCH  10  11
ENDBRANCH   5  10
BRANCH   6  24
HETATM   24  C   UNL     1      41.917 -13.394   4.861  1.00  0.00    -0.024 A 
HETATM   25  C   UNL     1      41.209 -14.538   5.314  1.00  0.00    -0.053 A 
HETATM   26  C   UNL     1      40.166 -14.481   6.401  1.00  0.00     0.049 C 
HETATM   27  C   UNL     1      41.489 -15.794   4.749  1.00  0.00     0.014 A 
HETATM   28  C   UNL     1      42.461 -15.950   3.758  1.00  0.00    -0.061 A 
HETATM   29  C   UNL     1      42.805 -17.317   3.237  1.00  0.00     0.048 C 
HETATM   30  C   UNL     1      43.176 -14.831   3.333  1.00  0.00     0.007 A 
HETATM   31  C   UNL     1      42.908 -13.571   3.873  1.00  0.00     0.011 A 
ENDBRANCH   6  24
BRANCH   9  32
HETATM   32  C   UNL     1      44.060 -12.182   6.433  1.00  0.00     0.293 C 
HETATM   33  O   UNL     1      44.360 -13.232   6.986  1.00  0.00    -0.259 OA
BRANCH  32  34
HETATM   34  O   UNL     1      44.820 -11.441   5.609  1.00  0.00    -0.323 OA
HETATM   35  C   UNL     1      46.138 -11.215   6.122  1.00  0.00     0.213 C 
ENDBRANCH  32  34
ENDBRANCH   9  32
BRANCH   1  36
HETATM   36  C   UNL     1      43.425 -10.096   8.426  1.00  0.00     0.056 C 
HETATM   37  C   UNL     1      44.162  -8.767   8.261  1.00  0.00     0.011 C 
ENDBRANCH   1  36
TORSDOF 9
ENDMDL
MODEL 2
REMARK VINA RESULT:      -7.2      2.094      3.563
REMARK  9 active torsions:
REMARK  status: ('A' for Active; 'I' for Inactive)
REMARK    1  A    between atoms: C_2  and  C_3 
REMARK    2  A    between atoms: C_7  and  C_8 
REMARK    3  A    between atoms: C_8  and  C_9 
REMARK       I    between atoms: C_9  and  N_10 
REMARK    4  A    between atoms: N_10  and  C_11 
REMARK    5  A    between atoms: C_11  and  C_12 
REMARK    6  A    between atoms: C_12  and  C_13 
REMARK    7  A    between atoms: C_21  and  C_22 
REMARK    8  A    between atoms: C_32  and  C_33 
REMARK    9  A    between atoms: C_33  and  O_34 
ROOT
HETATM    1  C   UNL     1      40.967 -11.581   4.206  1.00  0.00     0.051 C 
HETATM    2  N   UNL     1      40.342 -10.895   3.183  1.00  0.00    -0.228 NA
HETATM    3  C   UNL     1      40.444 -11.380   1.993  1.00  0.00     0.170 C 
HETATM    4  N   UNL     1      40.902 -12.848   1.643  1.00  0.00    -0.318 N 
HETATM    5  C   UNL     1      40.668 -13.059   0.386  1.00  0.00     0.011 C 
HETATM    6  C   UNL     1      41.021 -13.671   2.865  1.00  0.00     0.166 C 
HETATM    7  S   UNL     1      39.965 -10.487   0.579  1.00  0.00    -0.086 SA
HETATM    8  C   UNL     1      40.615 -11.813  -0.471  1.00  0.00     0.135 C 
HETATM    9  C   UNL     1      41.479 -12.816   4.014  1.00  0.00     0.069 C 
ENDROOT
BRANCH   5  10
HETATM   10  C   UNL     1      40.149 -14.370  -0.139  1.00  0.00     0.156 C 
BRANCH  10  11
HETATM   11  C   UNL     1      39.576 -14.112  -1.521  1.00  0.00     0.222 C 
HETATM   12  N   UNL     1      38.228 -13.874  -1.596  1.00  0.00    -0.361 N 
HETATM   13  H   UNL     1      37.720 -13.615  -0.754  1.00  0.00     0.162 HD
HETATM   14  O   UNL     1      40.300 -14.213  -2.511  1.00  0.00    -0.273 OA
BRANCH  12  15
HETATM   15  C   UNL     1      37.574 -13.633  -2.878  1.00  0.00     0.124 C 
BRANCH  15  16
HETATM   16  C   UNL     1      36.698 -12.371  -2.849  1.00  0.00     0.053 C 
BRANCH  16  17
HETATM   17  C   UNL     1      37.419 -11.156  -2.239  1.00  0.00     0.189 C 
HETATM   18  N   UNL     1      36.379 -10.057  -1.959  1.00  0.00    -0.071 N 
HETATM   19  H   UNL     1      35.450 -10.387  -2.250  1.00  0.00     0.279 HD
HETATM   20  C   UNL     1      36.263  -9.681  -0.509  1.00  0.00     0.270 C 
HETATM   21  C   UNL     1      36.708  -8.863  -2.842  1.00  0.00     0.235 C 
HETATM   22  C   UNL     1      37.587  -9.447  -3.925  1.00  0.00     0.030 C 
HETATM   23  C   UNL     1      38.415 -10.471  -3.174  1.00  0.00     0.035 C 
ENDBRANCH  16  17
ENDBRANCH  15  16
ENDBRANCH  12  15
ENDBRANCH  10  11
ENDBRANCH   5  10
BRANCH   6  24
HETATM   24  C   UNL     1      41.762 -15.000   2.725  1.00  0.00    -0.024 A 
HETATM   25  C   UNL     1      41.421 -16.102   3.552  1.00  0.00    -0.053 A 
HETATM   26  C   UNL     1      40.300 -16.057   4.559  1.00  0.00     0.049 C 
HETATM   27  C   UNL     1      42.159 -17.294   3.456  1.00  0.00     0.014 A 
HETATM   28  C   UNL     1      43.235 -17.419   2.574  1.00  0.00    -0.061 A 
HETATM   29  C   UNL     1      44.064 -18.672   2.557  1.00  0.00     0.048 C 
HETATM   30  C   UNL     1      43.587 -16.327   1.782  1.00  0.00     0.007 A 
HETATM   31  C   UNL     1      42.862 -15.136   1.853  1.00  0.00     0.011 A 
ENDBRANCH   6  24
BRANCH   9  32
HETATM   32  C   UNL     1      42.893 -12.916   4.431  1.00  0.00     0.293 C 
HETATM   33  O   UNL     1      43.743 -12.279   3.823  1.00  0.00    -0.259 OA
BRANCH  32  34
HETATM   34  O   UNL     1      43.061 -13.669   5.531  1.00  0.00    -0.323 OA
HETATM   35  C   UNL     1      43.894 -13.042   6.513  1.00  0.00     0.213 C 
ENDBRANCH  32  34
ENDBRANCH   9  32
BRANCH   1  36
HETATM   36  C   UNL     1      41.157 -10.767   5.477  1.00  0.00     0.056 C 
HETATM   37  C   UNL     1      41.703  -9.374   5.166  1.00  0.00     0.011 C 
ENDBRANCH   1  36
TORSDOF 9
ENDMDL
MODEL 3
REMARK VINA RESULT:      -7.2      1.727      2.195
REMARK  9 active torsions:
REMARK  status: ('A' for Active; 'I' for Inactive)
REMARK    1  A    between atoms: C_2  and  C_3 
REMARK    2  A    between atoms: C_7  and  C_8 
REMARK    3  A    between atoms: C_8  and  C_9 
REMARK       I    between atoms: C_9  and  N_10 
REMARK    4  A    between atoms: N_10  and  C_11 
REMARK    5  A    between atoms: C_11  and  C_12 
REMARK    6  A    between atoms: C_12  and  C_13 
REMARK    7  A    between atoms: C_21  and  C_22 
REMARK    8  A    between atoms: C_32  and  C_33 
REMARK    9  A    between atoms: C_33  and  O_34 
ROOT
HETATM    1  C   UNL     1      41.496 -10.961   6.183  1.00  0.00     0.051 C 
HETATM    2  N   UNL     1      40.758 -10.251   5.255  1.00  0.00    -0.228 NA
HETATM    3  C   UNL     1      40.617 -10.771   4.084  1.00  0.00     0.170 C 
HETATM    4  N   UNL     1      40.894 -12.280   3.718  1.00  0.00    -0.318 N 
HETATM    5  C   UNL     1      40.431 -12.502   2.528  1.00  0.00     0.011 C 
HETATM    6  C   UNL     1      41.158 -13.080   4.933  1.00  0.00     0.166 C 
HETATM    7  S   UNL     1      39.970  -9.878   2.739  1.00  0.00    -0.086 SA
HETATM    8  C   UNL     1      40.327 -11.277   1.645  1.00  0.00     0.135 C 
HETATM    9  C   UNL     1      41.871 -12.237   5.954  1.00  0.00     0.069 C 
ENDROOT
BRANCH   5  10
HETATM   10  C   UNL     1      39.731 -13.779   2.149  1.00  0.00     0.156 C 
BRANCH  10  11
HETATM   11  C   UNL     1      40.210 -14.166   0.762  1.00  0.00     0.222 C 
HETATM   12  N   UNL     1      39.351 -13.926  -0.278  1.00  0.00    -0.361 N 
HETATM   13  H   UNL     1      38.576 -13.280  -0.145  1.00  0.00     0.162 HD
HETATM   14  O   UNL     1      41.285 -14.751   0.628  1.00  0.00    -0.273 OA
BRANCH  12  15
HETATM   15  C   UNL     1      39.706 -14.277  -1.649  1.00  0.00     0.124 C 
BRANCH  15  16
HETATM   16  C   UNL     1      40.200 -13.060  -2.446  1.00  0.00     0.053 C 
BRANCH  16  17
HETATM   17  C   UNL     1      39.520 -11.748  -2.018  1.00  0.00     0.189 C 
HETATM   18  N   UNL     1      38.467 -11.373  -3.075  1.00  0.00    -0.071 N 
HETATM   19  H   UNL     1      38.468 -12.080  -3.821  1.00  0.00     0.279 HD
HETATM   20  C   UNL     1      37.062 -11.315  -2.545  1.00  0.00     0.270 C 
HETATM   21  C   UNL     1      38.895 -10.065  -3.721  1.00  0.00     0.235 C 
HETATM   22  C   UNL     1      40.369  -9.968  -3.397  1.00  0.00     0.030 C 
HETATM   23  C   UNL     1      40.444 -10.532  -1.992  1.00  0.00     0.035 C 
ENDBRANCH  16  17
ENDBRANCH  15  16
ENDBRANCH  12  15
ENDBRANCH  10  11
ENDBRANCH   5  10
BRANCH   6  24
HETATM   24  C   UNL     1      41.761 -14.468   4.720  1.00  0.00    -0.024 A 
HETATM   25  C   UNL     1      41.342 -15.562   5.522  1.00  0.00    -0.053 A 
HETATM   26  C   UNL     1      40.266 -15.447   6.572  1.00  0.00     0.049 C 
HETATM   27  C   UNL     1      41.956 -16.815   5.357  1.00  0.00     0.014 A 
HETATM   28  C   UNL     1      42.983 -17.011   4.431  1.00  0.00    -0.061 A 
HETATM   29  C   UNL     1      43.685 -18.337   4.340  1.00  0.00     0.048 C 
HETATM   30  C   UNL     1      43.413 -15.930   3.663  1.00  0.00     0.007 A 
HETATM   31  C   UNL     1      42.811 -14.677   3.802  1.00  0.00     0.011 A 
ENDBRANCH   6  24
BRANCH   9  32
HETATM   32  C   UNL     1      43.324 -12.443   6.128  1.00  0.00     0.293 C 
HETATM   33  O   UNL     1      43.718 -13.245   6.964  1.00  0.00    -0.259 OA
BRANCH  32  34
HETATM   34  O   UNL     1      44.060 -11.747   5.246  1.00  0.00    -0.323 OA
HETATM   35  C   UNL     1      45.312 -11.309   5.787  1.00  0.00     0.213 C 
ENDBRANCH  32  34
ENDBRANCH   9  32
BRANCH   1  36
HETATM   36  C   UNL     1      41.964 -10.134   7.371  1.00  0.00     0.056 C 
HETATM   37  C   UNL     1      40.859  -9.202   7.867  1.00  0.00     0.011 C 
ENDBRANCH   1  36
TORSDOF 9
ENDMDL
MODEL 4
REMARK VINA RESULT:      -7.2      2.155      7.748
REMARK  9 active torsions:
REMARK  status: ('A' for Active; 'I' for Inactive)
REMARK    1  A    between atoms: C_2  and  C_3 
REMARK    2  A    between atoms: C_7  and  C_8 
REMARK    3  A    between atoms: C_8  and  C_9 
REMARK       I    between atoms: C_9  and  N_10 
REMARK    4  A    between atoms: N_10  and  C_11 
REMARK    5  A    between atoms: C_11  and  C_12 
REMARK    6  A    between atoms: C_12  and  C_13 
REMARK    7  A    between atoms: C_21  and  C_22 
REMARK    8  A    between atoms: C_32  and  C_33 
REMARK    9  A    between atoms: C_33  and  O_34 
ROOT
HETATM    1  C   UNL     1      41.088 -10.571   1.092  1.00  0.00     0.051 C 
HETATM    2  N   UNL     1      41.202  -9.751   2.197  1.00  0.00    -0.228 NA
HETATM    3  C   UNL     1      41.360 -10.318   3.344  1.00  0.00     0.170 C 
HETATM    4  N   UNL     1      41.789 -11.819   3.567  1.00  0.00    -0.318 N 
HETATM    5  C   UNL     1      42.073 -11.980   4.821  1.00  0.00     0.011 C 
HETATM    6  C   UNL     1      42.176 -12.455   2.290  1.00  0.00     0.166 C 
HETATM    7  S   UNL     1      41.230  -9.444   4.842  1.00  0.00    -0.086 SA
HETATM    8  C   UNL     1      41.404 -10.997   5.757  1.00  0.00     0.135 C 
HETATM    9  C   UNL     1      41.346 -11.894   1.169  1.00  0.00     0.069 C 
ENDROOT
BRANCH   5  10
HETATM   10  C   UNL     1      43.222 -12.827   5.296  1.00  0.00     0.156 C 
BRANCH  10  11
HETATM   11  C   UNL     1      44.371 -11.891   5.627  1.00  0.00     0.222 C 
HETATM   12  N   UNL     1      44.708 -11.770   6.950  1.00  0.00    -0.361 N 
HETATM   13  H   UNL     1      44.388 -12.474   7.612  1.00  0.00     0.162 HD
HETATM   14  O   UNL     1      44.889 -11.221   4.734  1.00  0.00    -0.273 OA
BRANCH  12  15
HETATM   15  C   UNL     1      45.785 -10.884   7.378  1.00  0.00     0.124 C 
BRANCH  15  16
HETATM   16  C   UNL     1      45.565 -10.357   8.804  1.00  0.00     0.053 C 
BRANCH  16  17
HETATM   17  C   UNL     1      44.083 -10.093   9.123  1.00  0.00     0.189 C 
HETATM   18  N   UNL     1      43.816  -8.582   9.005  1.00  0.00    -0.071 N 
HETATM   19  H   UNL     1      44.689  -8.103   8.748  1.00  0.00     0.279 HD
HETATM   20  C   UNL     1      42.806  -8.221   7.953  1.00  0.00     0.270 C 
HETATM   21  C   UNL     1      43.429  -8.064  10.381  1.00  0.00     0.235 C 
HETATM   22  C   UNL     1      43.940  -9.131  11.324  1.00  0.00     0.030 C 
HETATM   23  C   UNL     1      43.675 -10.413  10.560  1.00  0.00     0.035 C 
ENDBRANCH  16  17
ENDBRANCH  15  16
ENDBRANCH  12  15
ENDBRANCH  10  11
ENDBRANCH   5  10
BRANCH   6  24
HETATM   24  C   UNL     1      42.297 -13.978   2.292  1.00  0.00    -0.024 A 
HETATM   25  C   UNL     1      41.349 -14.772   2.989  1.00  0.00    -0.053 A 
HETATM   26  C   UNL     1      40.159 -14.189   3.708  1.00  0.00     0.049 C 
HETATM   27  C   UNL     1      41.516 -16.167   3.036  1.00  0.00     0.014 A 
HETATM   28  C   UNL     1      42.604 -16.795   2.426  1.00  0.00    -0.061 A 
HETATM   29  C   UNL     1      42.808 -18.276   2.570  1.00  0.00     0.048 C 
HETATM   30  C   UNL     1      43.550 -16.012   1.766  1.00  0.00     0.007 A 
HETATM   31  C   UNL     1      43.400 -14.625   1.697  1.00  0.00     0.011 A 
ENDBRANCH   6  24
BRANCH   9  32
HETATM   32  C   UNL     1      40.237 -12.721   0.648  1.00  0.00     0.293 C 
HETATM   33  O   UNL     1      39.128 -12.621   1.155  1.00  0.00    -0.259 OA
BRANCH  32  34
HETATM   34  O   UNL     1      40.588 -13.452  -0.422  1.00  0.00    -0.323 OA
HETATM   35  C   UNL     1      39.859 -14.681  -0.520  1.00  0.00     0.213 C 
ENDBRANCH  32  34
ENDBRANCH   9  32
BRANCH   1  36
HETATM   36  C   UNL     1      40.506  -9.885  -0.135  1.00  0.00     0.056 C 
HETATM   37  C   UNL     1      41.576  -9.656  -1.202  1.00  0.00     0.011 C 
ENDBRANCH   1  36
TORSDOF 9
ENDMDL
MODEL 5
REMARK VINA RESULT:      -7.0      2.127      8.052
REMARK  9 active torsions:
REMARK  status: ('A' for Active; 'I' for Inactive)
REMARK    1  A    between atoms: C_2  and  C_3 
REMARK    2  A    between atoms: C_7  and  C_8 
REMARK    3  A    between atoms: C_8  and  C_9 
REMARK       I    between atoms: C_9  and  N_10 
REMARK    4  A    between atoms: N_10  and  C_11 
REMARK    5  A    between atoms: C_11  and  C_12 
REMARK    6  A    between atoms: C_12  and  C_13 
REMARK    7  A    between atoms: C_21  and  C_22 
REMARK    8  A    between atoms: C_32  and  C_33 
REMARK    9  A    between atoms: C_33  and  O_34 
ROOT
HETATM    1  C   UNL     1      40.454 -12.063   1.777  1.00  0.00     0.051 C 
HETATM    2  N   UNL     1      40.772 -10.806   2.253  1.00  0.00    -0.228 NA
HETATM    3  C   UNL     1      41.400 -10.736   3.376  1.00  0.00     0.170 C 
HETATM    4  N   UNL     1      42.149 -11.933   4.078  1.00  0.00    -0.318 N 
HETATM    5  C   UNL     1      42.854 -11.457   5.055  1.00  0.00     0.011 C 
HETATM    6  C   UNL     1      42.204 -13.115   3.191  1.00  0.00     0.166 C 
HETATM    7  S   UNL     1      41.610  -9.238   4.235  1.00  0.00    -0.086 SA
HETATM    8  C   UNL     1      42.359 -10.141   5.615  1.00  0.00     0.135 C 
HETATM    9  C   UNL     1      40.963 -13.178   2.345  1.00  0.00     0.069 C 
ENDROOT
BRANCH   5  10
HETATM   10  C   UNL     1      44.230 -11.962   5.390  1.00  0.00     0.156 C 
BRANCH  10  11
HETATM   11  C   UNL     1      44.468 -11.690   6.865  1.00  0.00     0.222 C 
HETATM   12  N   UNL     1      45.405 -10.738   7.174  1.00  0.00    -0.361 N 
HETATM   13  H   UNL     1      45.701 -10.079   6.458  1.00  0.00     0.162 HD
HETATM   14  O   UNL     1      43.897 -12.375   7.712  1.00  0.00    -0.273 OA
BRANCH  12  15
HETATM   15  C   UNL     1      45.723 -10.413   8.561  1.00  0.00     0.124 C 
BRANCH  15  16
HETATM   16  C   UNL     1      45.172  -9.038   8.970  1.00  0.00     0.053 C 
BRANCH  16  17
HETATM   17  C   UNL     1      43.701  -9.091   9.416  1.00  0.00     0.189 C 
HETATM   18  N   UNL     1      43.253  -7.671   9.804  1.00  0.00    -0.071 N 
HETATM   19  H   UNL     1      44.041  -7.022   9.681  1.00  0.00     0.279 HD
HETATM   20  C   UNL     1      42.125  -7.136   8.966  1.00  0.00     0.270 C 
HETATM   21  C   UNL     1      42.921  -7.672  11.288  1.00  0.00     0.235 C 
HETATM   22  C   UNL     1      43.626  -8.903  11.814  1.00  0.00     0.030 C 
HETATM   23  C   UNL     1      43.450  -9.901  10.687  1.00  0.00     0.035 C 
ENDBRANCH  16  17
ENDBRANCH  15  16
ENDBRANCH  12  15
ENDBRANCH  10  11
ENDBRANCH   5  10
BRANCH   6  24
HETATM   24  C   UNL     1      42.600 -14.440   3.841  1.00  0.00    -0.024 A 
HETATM   25  C   UNL     1      43.267 -15.439   3.085  1.00  0.00    -0.053 A 
HETATM   26  C   UNL     1      43.669 -15.248   1.645  1.00  0.00     0.049 C 
HETATM   27  C   UNL     1      43.561 -16.677   3.681  1.00  0.00     0.014 A 
HETATM   28  C   UNL     1      43.200 -16.958   5.001  1.00  0.00    -0.061 A 
HETATM   29  C   UNL     1      43.444 -18.321   5.584  1.00  0.00     0.048 C 
HETATM   30  C   UNL     1      42.520 -15.987   5.734  1.00  0.00     0.007 A 
HETATM   31  C   UNL     1      42.225 -14.745   5.166  1.00  0.00     0.011 A 
ENDBRANCH   6  24
BRANCH   9  32
HETATM   32  C   UNL     1      39.918 -14.153   2.720  1.00  0.00     0.293 C 
HETATM   33  O   UNL     1      38.935 -13.768   3.338  1.00  0.00    -0.259 OA
BRANCH  32  34
HETATM   34  O   UNL     1      40.156 -15.385   2.239  1.00  0.00    -0.323 OA
HETATM   35  C   UNL     1      39.990 -15.469   0.819  1.00  0.00     0.213 C 
ENDBRANCH  32  34
ENDBRANCH   9  32
BRANCH   1  36
HETATM   36  C   UNL     1      39.385 -12.069   0.696  1.00  0.00     0.056 C 
HETATM   37  C   UNL     1      40.007 -12.012  -0.699  1.00  0.00     0.011 C 
ENDBRANCH   1  36
TORSDOF 9
ENDMDL
MODEL 6
REMARK VINA RESULT:      -6.9      2.922      4.803
REMARK  9 active torsions:
REMARK  status: ('A' for Active; 'I' for Inactive)
REMARK    1  A    between atoms: C_2  and  C_3 
REMARK    2  A    between atoms: C_7  and  C_8 
REMARK    3  A    between atoms: C_8  and  C_9 
REMARK       I    between atoms: C_9  and  N_10 
REMARK    4  A    between atoms: N_10  and  C_11 
REMARK    5  A    between atoms: C_11  and  C_12 
REMARK    6  A    between atoms: C_12  and  C_13 
REMARK    7  A    between atoms: C_21  and  C_22 
REMARK    8  A    between atoms: C_32  and  C_33 
REMARK    9  A    between atoms: C_33  and  O_34 
ROOT
HETATM    1  C   UNL     1      42.166 -10.141   6.157  1.00  0.00     0.051 C 
HETATM    2  N   UNL     1      41.683  -9.755   4.922  1.00  0.00    -0.228 NA
HETATM    3  C   UNL     1      41.680 -10.637   3.983  1.00  0.00     0.170 C 
HETATM    4  N   UNL     1      41.834 -12.192   4.192  1.00  0.00    -0.318 N 
HETATM    5  C   UNL     1      41.554 -12.784   3.074  1.00  0.00     0.011 C 
HETATM    6  C   UNL     1      41.795 -12.539   5.629  1.00  0.00     0.166 C 
HETATM    7  S   UNL     1      41.377 -10.226   2.319  1.00  0.00    -0.086 SA
HETATM    8  C   UNL     1      41.745 -11.933   1.837  1.00  0.00     0.135 C 
HETATM    9  C   UNL     1      42.421 -11.437   6.437  1.00  0.00     0.069 C 
ENDROOT
BRANCH   5  10
HETATM   10  C   UNL     1      40.782 -14.073   3.003  1.00  0.00     0.156 C 
BRANCH  10  11
HETATM   11  C   UNL     1      41.647 -15.083   2.271  1.00  0.00     0.222 C 
HETATM   12  N   UNL     1      42.682 -15.638   2.979  1.00  0.00    -0.361 N 
HETATM   13  H   UNL     1      42.680 -15.576   3.995  1.00  0.00     0.162 HD
HETATM   14  O   UNL     1      41.456 -15.298   1.075  1.00  0.00    -0.273 OA
BRANCH  12  15
HETATM   15  C   UNL     1      43.585 -16.605   2.365  1.00  0.00     0.124 C 
BRANCH  15  16
HETATM   16  C   UNL     1      44.144 -17.603   3.390  1.00  0.00     0.053 C 
BRANCH  16  17
HETATM   17  C   UNL     1      43.264 -18.855   3.548  1.00  0.00     0.189 C 
HETATM   18  N   UNL     1      44.158 -20.035   3.968  1.00  0.00    -0.071 N 
HETATM   19  H   UNL     1      45.132 -19.713   4.039  1.00  0.00     0.279 HD
HETATM   20  C   UNL     1      43.805 -20.623   5.305  1.00  0.00     0.270 C 
HETATM   21  C   UNL     1      44.125 -21.070   2.855  1.00  0.00     0.235 C 
HETATM   22  C   UNL     1      43.638 -20.290   1.653  1.00  0.00     0.030 C 
HETATM   23  C   UNL     1      42.617 -19.345   2.253  1.00  0.00     0.035 C 
ENDBRANCH  16  17
ENDBRANCH  15  16
ENDBRANCH  12  15
ENDBRANCH  10  11
ENDBRANCH   5  10
BRANCH   6  24
HETATM   24  C   UNL     1      42.256 -13.946   6.006  1.00  0.00    -0.024 A 
HETATM   25  C   UNL     1      41.325 -14.900   6.492  1.00  0.00    -0.053 A 
HETATM   26  C   UNL     1      39.849 -14.618   6.617  1.00  0.00     0.049 C 
HETATM   27  C   UNL     1      41.779 -16.167   6.898  1.00  0.00     0.014 A 
HETATM   28  C   UNL     1      43.133 -16.509   6.848  1.00  0.00    -0.061 A 
HETATM   29  C   UNL     1      43.603 -17.836   7.374  1.00  0.00     0.048 C 
HETATM   30  C   UNL     1      44.051 -15.562   6.396  1.00  0.00     0.007 A 
HETATM   31  C   UNL     1      43.621 -14.300   5.979  1.00  0.00     0.011 A 
ENDBRANCH   6  24
BRANCH   9  32
HETATM   32  C   UNL     1      43.790 -11.648   6.953  1.00  0.00     0.293 C 
HETATM   33  O   UNL     1      43.942 -12.020   8.109  1.00  0.00    -0.259 OA
BRANCH  32  34
HETATM   34  O   UNL     1      44.735 -11.474   6.014  1.00  0.00    -0.323 OA
HETATM   35  C   UNL     1      46.021 -11.173   6.568  1.00  0.00     0.213 C 
ENDBRANCH  32  34
ENDBRANCH   9  32
BRANCH   1  36
HETATM   36  C   UNL     1      42.523  -8.983   7.077  1.00  0.00     0.056 C 
HETATM   37  C   UNL     1      41.680  -9.009   8.352  1.00  0.00     0.011 C 
ENDBRANCH   1  36
TORSDOF 9
ENDMDL
MODEL 7
REMARK VINA RESULT:      -6.9      3.927      9.094
REMARK  9 active torsions:
REMARK  status: ('A' for Active; 'I' for Inactive)
REMARK    1  A    between atoms: C_2  and  C_3 
REMARK    2  A    between atoms: C_7  and  C_8 
REMARK    3  A    between atoms: C_8  and  C_9 
REMARK       I    between atoms: C_9  and  N_10 
REMARK    4  A    between atoms: N_10  and  C_11 
REMARK    5  A    between atoms: C_11  and  C_12 
REMARK    6  A    between atoms: C_12  and  C_13 
REMARK    7  A    between atoms: C_21  and  C_22 
REMARK    8  A    between atoms: C_32  and  C_33 
REMARK    9  A    between atoms: C_33  and  O_34 
ROOT
HETATM    1  C   UNL     1      43.665 -12.576   6.794  1.00  0.00     0.051 C 
HETATM    2  N   UNL     1      44.106 -11.931   7.933  1.00  0.00    -0.228 NA
HETATM    3  C   UNL     1      43.822 -10.680   8.056  1.00  0.00     0.170 C 
HETATM    4  N   UNL     1      42.731  -9.907   7.221  1.00  0.00    -0.318 N 
HETATM    5  C   UNL     1      42.554  -8.742   7.760  1.00  0.00     0.011 C 
HETATM    6  C   UNL     1      41.932 -10.841   6.400  1.00  0.00     0.166 C 
HETATM    7  S   UNL     1      44.546  -9.676   9.278  1.00  0.00    -0.086 SA
HETATM    8  C   UNL     1      43.729  -8.226   8.562  1.00  0.00     0.135 C 
HETATM    9  C   UNL     1      42.793 -11.988   5.947  1.00  0.00     0.069 C 
ENDROOT
BRANCH   5  10
HETATM   10  C   UNL     1      41.201  -8.097   7.886  1.00  0.00     0.156 C 
BRANCH  10  11
HETATM   11  C   UNL     1      40.757  -8.247   9.331  1.00  0.00     0.222 C 
HETATM   12  N   UNL     1      40.514  -9.522   9.772  1.00  0.00    -0.361 N 
HETATM   13  H   UNL     1      40.879 -10.310   9.243  1.00  0.00     0.162 HD
HETATM   14  O   UNL     1      40.548  -7.245  10.012  1.00  0.00    -0.273 OA
BRANCH  12  15
HETATM   15  C   UNL     1      40.065  -9.775  11.137  1.00  0.00     0.124 C 
BRANCH  15  16
HETATM   16  C   UNL     1      41.240  -9.844  12.125  1.00  0.00     0.053 C 
BRANCH  16  17
HETATM   17  C   UNL     1      41.018  -8.981  13.380  1.00  0.00     0.189 C 
HETATM   18  N   UNL     1      40.722  -7.537  12.937  1.00  0.00    -0.071 N 
HETATM   19  H   UNL     1      40.749  -7.485  11.911  1.00  0.00     0.279 HD
HETATM   20  C   UNL     1      39.369  -7.035  13.356  1.00  0.00     0.270 C 
HETATM   21  C   UNL     1      41.850  -6.651  13.443  1.00  0.00     0.235 C 
HETATM   22  C   UNL     1      42.974  -7.623  13.723  1.00  0.00     0.030 C 
HETATM   23  C   UNL     1      42.247  -8.832  14.275  1.00  0.00     0.035 C 
ENDBRANCH  16  17
ENDBRANCH  15  16
ENDBRANCH  12  15
ENDBRANCH  10  11
ENDBRANCH   5  10
BRANCH   6  24
HETATM   24  C   UNL     1      41.068 -10.221   5.303  1.00  0.00    -0.024 A 
HETATM   25  C   UNL     1      39.796 -10.771   4.994  1.00  0.00    -0.053 A 
HETATM   26  C   UNL     1      39.202 -11.937   5.743  1.00  0.00     0.049 C 
HETATM   27  C   UNL     1      39.046 -10.229   3.937  1.00  0.00     0.014 A 
HETATM   28  C   UNL     1      39.528  -9.168   3.166  1.00  0.00    -0.061 A 
HETATM   29  C   UNL     1      38.747  -8.669   1.984  1.00  0.00     0.048 C 
HETATM   30  C   UNL     1      40.789  -8.647   3.452  1.00  0.00     0.007 A 
HETATM   31  C   UNL     1      41.548  -9.162   4.505  1.00  0.00     0.011 A 
ENDBRANCH   6  24
BRANCH   9  32
HETATM   32  C   UNL     1      43.271 -11.984   4.550  1.00  0.00     0.293 C 
HETATM   33  O   UNL     1      44.240 -11.298   4.251  1.00  0.00    -0.259 OA
BRANCH  32  34
HETATM   34  O   UNL     1      42.597 -12.841   3.764  1.00  0.00    -0.323 OA
HETATM   35  C   UNL     1      42.263 -12.282   2.489  1.00  0.00     0.213 C 
ENDBRANCH  32  34
ENDBRANCH   9  32
BRANCH   1  36
HETATM   36  C   UNL     1      44.363 -13.899   6.516  1.00  0.00     0.056 C 
HETATM   37  C   UNL     1      43.443 -15.083   6.810  1.00  0.00     0.011 C 
ENDBRANCH   1  36
TORSDOF 9
ENDMDL
MODEL 8
REMARK VINA RESULT:      -6.8     17.551     19.950
REMARK  9 active torsions:
REMARK  status: ('A' for Active; 'I' for Inactive)
REMARK    1  A    between atoms: C_2  and  C_3 
REMARK    2  A    between atoms: C_7  and  C_8 
REMARK    3  A    between atoms: C_8  and  C_9 
REMARK       I    between atoms: C_9  and  N_10 
REMARK    4  A    between atoms: N_10  and  C_11 
REMARK    5  A    between atoms: C_11  and  C_12 
REMARK    6  A    between atoms: C_12  and  C_13 
REMARK    7  A    between atoms: C_21  and  C_22 
REMARK    8  A    between atoms: C_32  and  C_33 
REMARK    9  A    between atoms: C_33  and  O_34 
ROOT
HETATM    1  C   UNL     1      50.149 -32.095   0.764  1.00  0.00     0.051 C 
HETATM    2  N   UNL     1      50.229 -31.800   2.111  1.00  0.00    -0.228 NA
HETATM    3  C   UNL     1      49.638 -30.731   2.522  1.00  0.00     0.170 C 
HETATM    4  N   UNL     1      48.545 -29.927   1.717  1.00  0.00    -0.318 N 
HETATM    5  C   UNL     1      48.008 -29.058   2.515  1.00  0.00     0.011 C 
HETATM    6  C   UNL     1      48.139 -30.660   0.499  1.00  0.00     0.166 C 
HETATM    7  S   UNL     1      49.889 -30.081   4.116  1.00  0.00    -0.086 SA
HETATM    8  C   UNL     1      48.877 -28.642   3.682  1.00  0.00     0.135 C 
HETATM    9  C   UNL     1      49.312 -31.420  -0.054  1.00  0.00     0.069 C 
ENDROOT
BRANCH   5  10
HETATM   10  C   UNL     1      46.538 -28.740   2.504  1.00  0.00     0.156 C 
BRANCH  10  11
HETATM   11  C   UNL     1      45.794 -30.012   2.870  1.00  0.00     0.222 C 
HETATM   12  N   UNL     1      44.725 -30.350   2.081  1.00  0.00    -0.361 N 
HETATM   13  H   UNL     1      44.629 -29.923   1.163  1.00  0.00     0.162 HD
HETATM   14  O   UNL     1      46.107 -30.631   3.886  1.00  0.00    -0.273 OA
BRANCH  12  15
HETATM   15  C   UNL     1      43.931 -31.542   2.357  1.00  0.00     0.124 C 
BRANCH  15  16
HETATM   16  C   UNL     1      42.706 -31.644   1.435  1.00  0.00     0.053 C 
BRANCH  16  17
HETATM   17  C   UNL     1      41.431 -31.059   2.066  1.00  0.00     0.189 C 
HETATM   18  N   UNL     1      41.504 -31.253   3.591  1.00  0.00    -0.071 N 
HETATM   19  H   UNL     1      42.381 -31.732   3.830  1.00  0.00     0.279 HD
HETATM   20  C   UNL     1      41.493 -29.969   4.371  1.00  0.00     0.270 C 
HETATM   21  C   UNL     1      40.376 -32.187   4.000  1.00  0.00     0.235 C 
HETATM   22  C   UNL     1      39.997 -32.880   2.710  1.00  0.00     0.030 C 
HETATM   23  C   UNL     1      40.141 -31.779   1.678  1.00  0.00     0.035 C 
ENDBRANCH  16  17
ENDBRANCH  15  16
ENDBRANCH  12  15
ENDBRANCH  10  11
ENDBRANCH   5  10
BRANCH   6  24
HETATM   24  C   UNL     1      47.345 -29.871  -0.541  1.00  0.00    -0.024 A 
HETATM   25  C   UNL     1      46.273 -30.484  -1.241  1.00  0.00    -0.053 A 
HETATM   26  C   UNL     1      45.821 -31.898  -0.977  1.00  0.00     0.049 C 
HETATM   27  C   UNL     1      45.598 -29.764  -2.241  1.00  0.00     0.014 A 
HETATM   28  C   UNL     1      45.966 -28.458  -2.577  1.00  0.00    -0.061 A 
HETATM   29  C   UNL     1      45.288 -27.745  -3.713  1.00  0.00     0.048 C 
HETATM   30  C   UNL     1      47.036 -27.867  -1.909  1.00  0.00     0.007 A 
HETATM   31  C   UNL     1      47.715 -28.560  -0.904  1.00  0.00     0.011 A 
ENDBRANCH   6  24
BRANCH   9  32
HETATM   32  C   UNL     1      49.999 -30.868  -1.240  1.00  0.00     0.293 C 
HETATM   33  O   UNL     1      50.850 -30.001  -1.089  1.00  0.00    -0.259 OA
BRANCH  32  34
HETATM   34  O   UNL     1      49.641 -31.477  -2.382  1.00  0.00    -0.323 OA
HETATM   35  C   UNL     1      50.764 -31.916  -3.155  1.00  0.00     0.213 C 
ENDBRANCH  32  34
ENDBRANCH   9  32
BRANCH   1  36
HETATM   36  C   UNL     1      51.180 -33.106   0.284  1.00  0.00     0.056 C 
HETATM   37  C   UNL     1      50.508 -34.362  -0.268  1.00  0.00     0.011 C 
ENDBRANCH   1  36
TORSDOF 9
ENDMDL
MODEL 9
REMARK VINA RESULT:      -6.7      1.773      2.497
REMARK  9 active torsions:
REMARK  status: ('A' for Active; 'I' for Inactive)
REMARK    1  A    between atoms: C_2  and  C_3 
REMARK    2  A    between atoms: C_7  and  C_8 
REMARK    3  A    between atoms: C_8  and  C_9 
REMARK       I    between atoms: C_9  and  N_10 
REMARK    4  A    between atoms: N_10  and  C_11 
REMARK    5  A    between atoms: C_11  and  C_12 
REMARK    6  A    between atoms: C_12  and  C_13 
REMARK    7  A    between atoms: C_21  and  C_22 
REMARK    8  A    between atoms: C_32  and  C_33 
REMARK    9  A    between atoms: C_33  and  O_34 
ROOT
HETATM    1  C   UNL     1      42.226 -10.383   6.175  1.00  0.00     0.051 C 
HETATM    2  N   UNL     1      41.277  -9.498   5.702  1.00  0.00    -0.228 NA
HETATM    3  C   UNL     1      40.759  -9.742   4.548  1.00  0.00     0.170 C 
HETATM    4  N   UNL     1      40.835 -11.121   3.787  1.00  0.00    -0.318 N 
HETATM    5  C   UNL     1      40.020 -11.078   2.780  1.00  0.00     0.011 C 
HETATM    6  C   UNL     1      41.417 -12.170   4.651  1.00  0.00     0.166 C 
HETATM    7  S   UNL     1      39.778  -8.580   3.702  1.00  0.00    -0.086 SA
HETATM    8  C   UNL     1      39.713  -9.687   2.269  1.00  0.00     0.135 C 
HETATM    9  C   UNL     1      42.449 -11.566   5.563  1.00  0.00     0.069 C 
ENDROOT
BRANCH   5  10
HETATM   10  C   UNL     1      39.175 -12.250   2.362  1.00  0.00     0.156 C 
BRANCH  10  11
HETATM   11  C   UNL     1      39.318 -12.400   0.858  1.00  0.00     0.222 C 
HETATM   12  N   UNL     1      38.157 -12.486   0.134  1.00  0.00    -0.361 N 
HETATM   13  H   UNL     1      37.282 -12.187   0.558  1.00  0.00     0.162 HD
HETATM   14  O   UNL     1      40.436 -12.528   0.360  1.00  0.00    -0.273 OA
BRANCH  12  15
HETATM   15  C   UNL     1      38.182 -12.651  -1.316  1.00  0.00     0.124 C 
BRANCH  15  16
HETATM   16  C   UNL     1      37.932 -11.325  -2.050  1.00  0.00     0.053 C 
BRANCH  16  17
HETATM   17  C   UNL     1      39.028 -10.992  -3.077  1.00  0.00     0.189 C 
HETATM   18  N   UNL     1      40.401 -11.230  -2.424  1.00  0.00    -0.071 N 
HETATM   19  H   UNL     1      40.265 -11.548  -1.456  1.00  0.00     0.279 HD
HETATM   20  C   UNL     1      41.228 -12.283  -3.107  1.00  0.00     0.270 C 
HETATM   21  C   UNL     1      41.120  -9.893  -2.342  1.00  0.00     0.235 C 
HETATM   22  C   UNL     1      40.009  -8.877  -2.482  1.00  0.00     0.030 C 
HETATM   23  C   UNL     1      39.084  -9.523  -3.494  1.00  0.00     0.035 C 
ENDBRANCH  16  17
ENDBRANCH  15  16
ENDBRANCH  12  15
ENDBRANCH  10  11
ENDBRANCH   5  10
BRANCH   6  24
HETATM   24  C   UNL     1      41.856 -13.460   3.960  1.00  0.00    -0.024 A 
HETATM   25  C   UNL     1      41.504 -14.722   4.506  1.00  0.00    -0.053 A 
HETATM   26  C   UNL     1      40.653 -14.874   5.741  1.00  0.00     0.049 C 
HETATM   27  C   UNL     1      41.974 -15.897   3.894  1.00  0.00     0.014 A 
HETATM   28  C   UNL     1      42.795 -15.855   2.764  1.00  0.00    -0.061 A 
HETATM   29  C   UNL     1      43.358 -17.122   2.184  1.00  0.00     0.048 C 
HETATM   30  C   UNL     1      43.162 -14.615   2.244  1.00  0.00     0.007 A 
HETATM   31  C   UNL     1      42.699 -13.434   2.830  1.00  0.00     0.011 A 
ENDBRANCH   6  24
BRANCH   9  32
HETATM   32  C   UNL     1      43.874 -11.774   5.230  1.00  0.00     0.293 C 
HETATM   33  O   UNL     1      44.307 -11.354   4.166  1.00  0.00    -0.259 OA
BRANCH  32  34
HETATM   34  O   UNL     1      44.563 -12.356   6.226  1.00  0.00    -0.323 OA
HETATM   35  C   UNL     1      43.927 -13.538   6.727  1.00  0.00     0.213 C 
ENDBRANCH  32  34
ENDBRANCH   9  32
BRANCH   1  36
HETATM   36  C   UNL     1      43.075  -9.838   7.313  1.00  0.00     0.056 C 
HETATM   37  C   UNL     1      42.202  -9.282   8.438  1.00  0.00     0.011 C 
ENDBRANCH   1  36
TORSDOF 9
ENDMDL
MODEL 10
REMARK VINA RESULT:      -6.5      6.318      9.667
REMARK  9 active torsions:
REMARK  status: ('A' for Active; 'I' for Inactive)
REMARK    1  A    between atoms: C_2  and  C_3 
REMARK    2  A    between atoms: C_7  and  C_8 
REMARK    3  A    between atoms: C_8  and  C_9 
REMARK       I    between atoms: C_9  and  N_10 
REMARK    4  A    between atoms: N_10  and  C_11 
REMARK    5  A    between atoms: C_11  and  C_12 
REMARK    6  A    between atoms: C_12  and  C_13 
REMARK    7  A    between atoms: C_21  and  C_22 
REMARK    8  A    between atoms: C_32  and  C_33 
REMARK    9  A    between atoms: C_33  and  O_34 
ROOT
HETATM    1  C   UNL     1      38.837  -5.954  14.631  1.00  0.00     0.051 C 
HETATM    2  N   UNL     1      37.896  -5.343  13.826  1.00  0.00    -0.228 NA
HETATM    3  C   UNL     1      38.099  -5.364  12.553  1.00  0.00     0.170 C 
HETATM    4  N   UNL     1      39.113  -6.314  11.807  1.00  0.00    -0.318 N 
HETATM    5  C   UNL     1      38.890  -6.230  10.534  1.00  0.00     0.011 C 
HETATM    6  C   UNL     1      39.675  -7.320  12.734  1.00  0.00     0.166 C 
HETATM    7  S   UNL     1      37.167  -4.400  11.444  1.00  0.00    -0.086 SA
HETATM    8  C   UNL     1      38.236  -4.941  10.085  1.00  0.00     0.135 C 
HETATM    9  C   UNL     1      39.813  -6.727  14.109  1.00  0.00     0.069 C 
ENDROOT
BRANCH   5  10
HETATM   10  C   UNL     1      38.945  -7.419   9.615  1.00  0.00     0.156 C 
BRANCH  10  11
HETATM   11  C   UNL     1      40.228  -7.313   8.809  1.00  0.00     0.222 C 
HETATM   12  N   UNL     1      40.886  -8.485   8.540  1.00  0.00    -0.361 N 
HETATM   13  H   UNL     1      40.390  -9.368   8.637  1.00  0.00     0.162 HD
HETATM   14  O   UNL     1      40.672  -6.205   8.511  1.00  0.00    -0.273 OA
BRANCH  12  15
HETATM   15  C   UNL     1      42.137  -8.493   7.789  1.00  0.00     0.124 C 
BRANCH  15  16
HETATM   16  C   UNL     1      42.855  -9.848   7.882  1.00  0.00     0.053 C 
BRANCH  16  17
HETATM   17  C   UNL     1      42.952 -10.569   6.526  1.00  0.00     0.189 C 
HETATM   18  N   UNL     1      42.080 -11.836   6.579  1.00  0.00    -0.071 N 
HETATM   19  H   UNL     1      41.644 -11.908   7.506  1.00  0.00     0.279 HD
HETATM   20  C   UNL     1      40.959 -11.848   5.578  1.00  0.00     0.270 C 
HETATM   21  C   UNL     1      42.995 -13.042   6.437  1.00  0.00     0.235 C 
HETATM   22  C   UNL     1      44.362 -12.500   6.790  1.00  0.00     0.030 C 
HETATM   23  C   UNL     1      44.341 -11.108   6.190  1.00  0.00     0.035 C 
ENDBRANCH  16  17
ENDBRANCH  15  16
ENDBRANCH  12  15
ENDBRANCH  10  11
ENDBRANCH   5  10
BRANCH   6  24
HETATM   24  C   UNL     1      40.901  -8.090  12.246  1.00  0.00    -0.024 A 
HETATM   25  C   UNL     1      40.968  -9.500  12.392  1.00  0.00    -0.053 A 
HETATM   26  C   UNL     1      39.843 -10.320  12.972  1.00  0.00     0.049 C 
HETATM   27  C   UNL     1      42.133 -10.182  12.000  1.00  0.00     0.014 A 
HETATM   28  C   UNL     1      43.238  -9.503  11.481  1.00  0.00    -0.061 A 
HETATM   29  C   UNL     1      44.503 -10.246  11.156  1.00  0.00     0.048 C 
HETATM   30  C   UNL     1      43.183  -8.116  11.364  1.00  0.00     0.007 A 
HETATM   31  C   UNL     1      42.032  -7.417  11.738  1.00  0.00     0.011 A 
ENDBRANCH   6  24
BRANCH   9  32
HETATM   32  C   UNL     1      41.161  -6.320  14.555  1.00  0.00     0.293 C 
HETATM   33  O   UNL     1      41.576  -5.206  14.264  1.00  0.00    -0.259 OA
BRANCH  32  34
HETATM   34  O   UNL     1      41.755  -7.242  15.331  1.00  0.00    -0.323 OA
HETATM   35  C   UNL     1      42.144  -6.726  16.609  1.00  0.00     0.213 C 
ENDBRANCH  32  34
ENDBRANCH   9  32
BRANCH   1  36
HETATM   36  C   UNL     1      38.762  -5.548  16.096  1.00  0.00     0.056 C 
HETATM   37  C   UNL     1      38.059  -4.201  16.261  1.00  0.00     0.011 C 
ENDBRANCH   1  36
TORSDOF 9
ENDMDL
