MODEL 1
REMARK VINA RESULT:      -8.6      0.000      0.000
REMARK  3 active torsions:
REMARK  status: ('A' for Active; 'I' for Inactive)
REMARK    1  A    between atoms: C_2  and  C_3 
REMARK    2  A    between atoms: C_11  and  C_12 
REMARK    3  A    between atoms: C_12  and  C_13 
ROOT
HETATM    1  C   UNL     1      44.050 -18.627   4.480  1.00  0.00     0.041 A 
HETATM    2  N   UNL     1      44.117 -17.782   5.537  1.00  0.00    -0.245 NA
HETATM    3  C   UNL     1      43.623 -16.548   5.321  1.00  0.00     0.111 A 
HETATM    4  C   UNL     1      43.070 -16.073   4.140  1.00  0.00     0.028 A 
HETATM    5  C   UNL     1      43.032 -16.977   3.058  1.00  0.00     0.025 A 
HETATM    6  C   UNL     1      43.537 -18.274   3.225  1.00  0.00    -0.036 A 
HETATM    7  C   UNL     1      43.473 -19.236   2.074  1.00  0.00     0.050 C 
HETATM    8  S   UNL     1      43.622 -15.383   6.562  1.00  0.00    -0.063 SA
HETATM    9  C   UNL     1      42.904 -14.198   5.553  1.00  0.00     0.085 A 
HETATM   10  C   UNL     1      42.637 -14.717   4.298  1.00  0.00     0.060 A 
HETATM   11  N   UNL     1      42.031 -14.003   3.317  1.00  0.00    -0.397 N 
HETATM   12  H   UNL     1      41.535 -13.144   3.573  1.00  0.00     0.156 HD
HETATM   13  H   UNL     1      41.602 -14.467   2.522  1.00  0.00     0.156 HD
ENDROOT
BRANCH   9  14
HETATM   14  C   UNL     1      42.557 -12.874   6.047  1.00  0.00     0.201 C 
HETATM   15  O   UNL     1      41.405 -12.434   6.000  1.00  0.00    -0.286 OA
BRANCH  14  16
HETATM   16  C   UNL     1      43.590 -11.956   6.602  1.00  0.00     0.018 A 
HETATM   17  C   UNL     1      43.160 -10.866   7.375  1.00  0.00     0.055 A 
HETATM   18  C   UNL     1      44.117  -9.985   7.829  1.00  0.00     0.106 A 
HETATM   19  C   UNL     1      45.452 -10.150   7.538  1.00  0.00     0.105 A 
HETATM   20  O   UNL     1      43.883  -8.876   8.580  1.00  0.00    -0.323 OA
HETATM   21  O   UNL     1      46.222  -9.165   8.071  1.00  0.00    -0.323 OA
HETATM   22  C   UNL     1      45.905 -11.203   6.774  1.00  0.00     0.040 A 
HETATM   23  C   UNL     1      45.220  -8.350   8.714  1.00  0.00     0.352 A 
HETATM   24  C   UNL     1      44.959 -12.113   6.291  1.00  0.00     0.018 A 
ENDBRANCH  14  16
ENDBRANCH   9  14
BRANCH   1  25
HETATM   25  C   UNL     1      44.603 -20.007   4.752  1.00  0.00     0.055 C 
HETATM   26  C   UNL     1      43.624 -20.864   5.539  1.00  0.00     0.011 C 
ENDBRANCH   1  25
TORSDOF 3
ENDMDL
MODEL 2
REMARK VINA RESULT:      -8.6      1.196      1.961
REMARK  3 active torsions:
REMARK  status: ('A' for Active; 'I' for Inactive)
REMARK    1  A    between atoms: C_2  and  C_3 
REMARK    2  A    between atoms: C_11  and  C_12 
REMARK    3  A    between atoms: C_12  and  C_13 
ROOT
HETATM    1  C   UNL     1      43.818 -18.489   3.647  1.00  0.00     0.041 A 
HETATM    2  N   UNL     1      43.499 -17.229   3.267  1.00  0.00    -0.245 NA
HETATM    3  C   UNL     1      43.243 -16.370   4.272  1.00  0.00     0.111 A 
HETATM    4  C   UNL     1      43.272 -16.654   5.630  1.00  0.00     0.028 A 
HETATM    5  C   UNL     1      43.593 -17.981   5.985  1.00  0.00     0.025 A 
HETATM    6  C   UNL     1      43.864 -18.919   4.980  1.00  0.00    -0.036 A 
HETATM    7  C   UNL     1      44.225 -20.323   5.368  1.00  0.00     0.050 C 
HETATM    8  S   UNL     1      42.848 -14.746   3.949  1.00  0.00    -0.063 SA
HETATM    9  C   UNL     1      42.676 -14.378   5.614  1.00  0.00     0.085 A 
HETATM   10  C   UNL     1      42.963 -15.483   6.395  1.00  0.00     0.060 A 
HETATM   11  N   UNL     1      42.946 -15.456   7.751  1.00  0.00    -0.397 N 
HETATM   12  H   UNL     1      42.962 -14.545   8.221  1.00  0.00     0.156 HD
HETATM   13  H   UNL     1      43.416 -16.173   8.295  1.00  0.00     0.156 HD
ENDROOT
BRANCH   9  14
HETATM   14  C   UNL     1      42.367 -13.033   6.076  1.00  0.00     0.201 C 
HETATM   15  O   UNL     1      41.224 -12.568   6.035  1.00  0.00    -0.286 OA
BRANCH  14  16
HETATM   16  C   UNL     1      43.428 -12.123   6.588  1.00  0.00     0.018 A 
HETATM   17  C   UNL     1      43.035 -10.997   7.327  1.00  0.00     0.055 A 
HETATM   18  C   UNL     1      44.019 -10.126   7.741  1.00  0.00     0.106 A 
HETATM   19  C   UNL     1      45.346 -10.334   7.442  1.00  0.00     0.105 A 
HETATM   20  O   UNL     1      43.822  -8.986   8.456  1.00  0.00    -0.323 OA
HETATM   21  O   UNL     1      46.147  -9.352   7.933  1.00  0.00    -0.323 OA
HETATM   22  C   UNL     1      45.764 -11.424   6.710  1.00  0.00     0.040 A 
HETATM   23  C   UNL     1      45.173  -8.490   8.558  1.00  0.00     0.352 A 
HETATM   24  C   UNL     1      44.790 -12.326   6.268  1.00  0.00     0.018 A 
ENDBRANCH  14  16
ENDBRANCH   9  14
BRANCH   1  25
HETATM   25  C   UNL     1      44.108 -19.430   2.499  1.00  0.00     0.055 C 
HETATM   26  C   UNL     1      42.844 -20.093   1.977  1.00  0.00     0.011 C 
ENDBRANCH   1  25
TORSDOF 3
ENDMDL
MODEL 3
REMARK VINA RESULT:      -8.5      2.715      3.494
REMARK  3 active torsions:
REMARK  status: ('A' for Active; 'I' for Inactive)
REMARK    1  A    between atoms: C_2  and  C_3 
REMARK    2  A    between atoms: C_11  and  C_12 
REMARK    3  A    between atoms: C_12  and  C_13 
ROOT
HETATM    1  C   UNL     1      43.870 -18.863   4.126  1.00  0.00     0.041 A 
HETATM    2  N   UNL     1      43.802 -17.752   4.898  1.00  0.00    -0.245 NA
HETATM    3  C   UNL     1      43.438 -16.625   4.257  1.00  0.00     0.111 A 
HETATM    4  C   UNL     1      43.138 -16.500   2.908  1.00  0.00     0.028 A 
HETATM    5  C   UNL     1      43.236 -17.676   2.134  1.00  0.00     0.025 A 
HETATM    6  C   UNL     1      43.615 -18.878   2.748  1.00  0.00    -0.036 A 
HETATM    7  C   UNL     1      43.695 -20.127   1.921  1.00  0.00     0.050 C 
HETATM    8  S   UNL     1      43.290 -15.154   5.101  1.00  0.00    -0.063 SA
HETATM    9  C   UNL     1      42.846 -14.299   3.684  1.00  0.00     0.085 A 
HETATM   10  C   UNL     1      42.775 -15.151   2.596  1.00  0.00     0.060 A 
HETATM   11  N   UNL     1      42.404 -14.741   1.357  1.00  0.00    -0.397 N 
HETATM   12  H   UNL     1      41.928 -13.837   1.265  1.00  0.00     0.156 HD
HETATM   13  H   UNL     1      42.095 -15.406   0.657  1.00  0.00     0.156 HD
ENDROOT
BRANCH   9  14
HETATM   14  C   UNL     1      42.504 -12.884   3.714  1.00  0.00     0.201 C 
HETATM   15  O   UNL     1      43.122 -12.043   3.056  1.00  0.00    -0.286 OA
BRANCH  14  16
HETATM   16  C   UNL     1      41.410 -12.367   4.581  1.00  0.00     0.018 A 
HETATM   17  C   UNL     1      41.708 -11.325   5.473  1.00  0.00     0.055 A 
HETATM   18  C   UNL     1      40.707 -10.897   6.316  1.00  0.00     0.106 A 
HETATM   19  C   UNL     1      39.453 -11.465   6.302  1.00  0.00     0.105 A 
HETATM   20  O   UNL     1      40.818  -9.910   7.245  1.00  0.00    -0.323 OA
HETATM   21  O   UNL     1      38.621 -10.905   7.220  1.00  0.00    -0.323 OA
HETATM   22  C   UNL     1      39.131 -12.496   5.446  1.00  0.00     0.040 A 
HETATM   23  C   UNL     1      39.498  -9.933   7.827  1.00  0.00     0.352 A 
HETATM   24  C   UNL     1      40.127 -12.960   4.580  1.00  0.00     0.018 A 
ENDBRANCH  14  16
ENDBRANCH   9  14
BRANCH   1  25
HETATM   25  C   UNL     1      44.272 -20.115   4.872  1.00  0.00     0.055 C 
HETATM   26  C   UNL     1      43.520 -20.258   6.185  1.00  0.00     0.011 C 
ENDBRANCH   1  25
TORSDOF 3
ENDMDL
MODEL 4
REMARK VINA RESULT:      -7.9      4.974      6.251
REMARK  3 active torsions:
REMARK  status: ('A' for Active; 'I' for Inactive)
REMARK    1  A    between atoms: C_2  and  C_3 
REMARK    2  A    between atoms: C_11  and  C_12 
REMARK    3  A    between atoms: C_12  and  C_13 
ROOT
HETATM    1  C   UNL     1      43.338 -17.897   3.266  1.00  0.00     0.041 A 
HETATM    2  N   UNL     1      42.848 -17.198   2.214  1.00  0.00    -0.245 NA
HETATM    3  C   UNL     1      42.023 -16.181   2.531  1.00  0.00     0.111 A 
HETATM    4  C   UNL     1      41.635 -15.797   3.806  1.00  0.00     0.028 A 
HETATM    5  C   UNL     1      42.152 -16.560   4.874  1.00  0.00     0.025 A 
HETATM    6  C   UNL     1      43.013 -17.633   4.604  1.00  0.00    -0.036 A 
HETATM    7  C   UNL     1      43.576 -18.424   5.748  1.00  0.00     0.050 C 
HETATM    8  S   UNL     1      41.347 -15.201   1.314  1.00  0.00    -0.063 SA
HETATM    9  C   UNL     1      40.491 -14.248   2.454  1.00  0.00     0.085 A 
HETATM   10  C   UNL     1      40.765 -14.661   3.746  1.00  0.00     0.060 A 
HETATM   11  N   UNL     1      40.251 -14.050   4.842  1.00  0.00    -0.397 N 
HETATM   12  H   UNL     1      39.848 -13.114   4.736  1.00  0.00     0.156 HD
HETATM   13  H   UNL     1      40.668 -14.182   5.758  1.00  0.00     0.156 HD
ENDROOT
BRANCH   9  14
HETATM   14  C   UNL     1      39.683 -13.107   2.050  1.00  0.00     0.201 C 
HETATM   15  O   UNL     1      38.651 -12.786   2.646  1.00  0.00    -0.286 OA
BRANCH  14  16
HETATM   16  C   UNL     1      40.037 -12.286   0.860  1.00  0.00     0.018 A 
HETATM   17  C   UNL     1      41.048 -11.322   0.997  1.00  0.00     0.055 A 
HETATM   18  C   UNL     1      41.323 -10.523  -0.090  1.00  0.00     0.106 A 
HETATM   19  C   UNL     1      40.636 -10.647  -1.276  1.00  0.00     0.105 A 
HETATM   20  O   UNL     1      42.259  -9.537  -0.135  1.00  0.00    -0.323 OA
HETATM   21  O   UNL     1      41.055  -9.755  -2.213  1.00  0.00    -0.323 OA
HETATM   22  C   UNL     1      39.631 -11.575  -1.440  1.00  0.00     0.040 A 
HETATM   23  C   UNL     1      42.071  -9.042  -1.477  1.00  0.00     0.352 A 
HETATM   24  C   UNL     1      39.321 -12.400  -0.353  1.00  0.00     0.018 A 
ENDBRANCH  14  16
ENDBRANCH   9  14
BRANCH   1  25
HETATM   25  C   UNL     1      44.267 -19.026   2.884  1.00  0.00     0.055 C 
HETATM   26  C   UNL     1      43.514 -20.197   2.272  1.00  0.00     0.011 C 
ENDBRANCH   1  25
TORSDOF 3
ENDMDL
MODEL 5
REMARK VINA RESULT:      -7.7      3.238      5.009
REMARK  3 active torsions:
REMARK  status: ('A' for Active; 'I' for Inactive)
REMARK    1  A    between atoms: C_2  and  C_3 
REMARK    2  A    between atoms: C_11  and  C_12 
REMARK    3  A    between atoms: C_12  and  C_13 
ROOT
HETATM    1  C   UNL     1      43.694 -19.422   3.610  1.00  0.00     0.041 A 
HETATM    2  N   UNL     1      43.408 -18.284   2.932  1.00  0.00    -0.245 NA
HETATM    3  C   UNL     1      43.343 -17.167   3.681  1.00  0.00     0.111 A 
HETATM    4  C   UNL     1      43.534 -17.078   5.053  1.00  0.00     0.028 A 
HETATM    5  C   UNL     1      43.814 -18.286   5.726  1.00  0.00     0.025 A 
HETATM    6  C   UNL     1      43.889 -19.481   4.997  1.00  0.00    -0.036 A 
HETATM    7  C   UNL     1      44.209 -20.758   5.718  1.00  0.00     0.050 C 
HETATM    8  S   UNL     1      43.012 -15.659   2.965  1.00  0.00    -0.063 SA
HETATM    9  C   UNL     1      43.087 -14.843   4.470  1.00  0.00     0.085 A 
HETATM   10  C   UNL     1      43.405 -15.721   5.491  1.00  0.00     0.060 A 
HETATM   11  N   UNL     1      43.570 -15.329   6.779  1.00  0.00    -0.397 N 
HETATM   12  H   UNL     1      43.706 -14.332   6.973  1.00  0.00     0.156 HD
HETATM   13  H   UNL     1      44.061 -15.916   7.445  1.00  0.00     0.156 HD
ENDROOT
BRANCH   9  14
HETATM   14  C   UNL     1      42.928 -13.400   4.572  1.00  0.00     0.201 C 
HETATM   15  O   UNL     1      43.476 -12.737   5.457  1.00  0.00    -0.286 OA
BRANCH  14  16
HETATM   16  C   UNL     1      42.055 -12.645   3.631  1.00  0.00     0.018 A 
HETATM   17  C   UNL     1      40.682 -12.935   3.625  1.00  0.00     0.055 A 
HETATM   18  C   UNL     1      39.892 -12.280   2.707  1.00  0.00     0.106 A 
HETATM   19  C   UNL     1      40.416 -11.373   1.814  1.00  0.00     0.105 A 
HETATM   20  O   UNL     1      38.550 -12.440   2.554  1.00  0.00    -0.323 OA
HETATM   21  O   UNL     1      39.469 -10.852   0.989  1.00  0.00    -0.323 OA
HETATM   22  C   UNL     1      41.761 -11.073   1.787  1.00  0.00     0.040 A 
HETATM   23  C   UNL     1      38.292 -11.547   1.451  1.00  0.00     0.352 A 
HETATM   24  C   UNL     1      42.593 -11.727   2.702  1.00  0.00     0.018 A 
ENDBRANCH  14  16
ENDBRANCH   9  14
BRANCH   1  25
HETATM   25  C   UNL     1      43.769 -20.659   2.745  1.00  0.00     0.055 C 
HETATM   26  C   UNL     1      43.400 -20.363   1.300  1.00  0.00     0.011 C 
ENDBRANCH   1  25
TORSDOF 3
ENDMDL
MODEL 6
REMARK VINA RESULT:      -7.5      3.901      8.330
REMARK  3 active torsions:
REMARK  status: ('A' for Active; 'I' for Inactive)
REMARK    1  A    between atoms: C_2  and  C_3 
REMARK    2  A    between atoms: C_11  and  C_12 
REMARK    3  A    between atoms: C_12  and  C_13 
ROOT
HETATM    1  C   UNL     1      41.424 -10.109   6.072  1.00  0.00     0.041 A 
HETATM    2  N   UNL     1      42.350 -10.574   5.199  1.00  0.00    -0.245 NA
HETATM    3  C   UNL     1      42.110 -11.804   4.705  1.00  0.00     0.111 A 
HETATM    4  C   UNL     1      41.028 -12.620   5.005  1.00  0.00     0.028 A 
HETATM    5  C   UNL     1      40.095 -12.107   5.930  1.00  0.00     0.025 A 
HETATM    6  C   UNL     1      40.296 -10.834   6.481  1.00  0.00    -0.036 A 
HETATM    7  C   UNL     1      39.287 -10.288   7.447  1.00  0.00     0.050 C 
HETATM    8  S   UNL     1      43.175 -12.511   3.582  1.00  0.00    -0.063 SA
HETATM    9  C   UNL     1      42.238 -13.943   3.481  1.00  0.00     0.085 A 
HETATM   10  C   UNL     1      41.106 -13.846   4.270  1.00  0.00     0.060 A 
HETATM   11  N   UNL     1      40.168 -14.824   4.341  1.00  0.00    -0.397 N 
HETATM   12  H   UNL     1      40.162 -15.548   3.616  1.00  0.00     0.156 HD
HETATM   13  H   UNL     1      39.236 -14.630   4.693  1.00  0.00     0.156 HD
ENDROOT
BRANCH   9  14
HETATM   14  C   UNL     1      42.594 -15.033   2.585  1.00  0.00     0.201 C 
HETATM   15  O   UNL     1      42.451 -14.955   1.362  1.00  0.00    -0.286 OA
BRANCH  14  16
HETATM   16  C   UNL     1      43.112 -16.328   3.105  1.00  0.00     0.018 A 
HETATM   17  C   UNL     1      42.970 -17.469   2.299  1.00  0.00     0.055 A 
HETATM   18  C   UNL     1      43.394 -18.675   2.815  1.00  0.00     0.106 A 
HETATM   19  C   UNL     1      43.934 -18.775   4.076  1.00  0.00     0.105 A 
HETATM   20  O   UNL     1      43.327 -19.877   2.182  1.00  0.00    -0.323 OA
HETATM   21  O   UNL     1      44.274 -20.053   4.393  1.00  0.00    -0.323 OA
HETATM   22  C   UNL     1      44.078 -17.677   4.896  1.00  0.00     0.040 A 
HETATM   23  C   UNL     1      43.869 -20.749   3.195  1.00  0.00     0.352 A 
HETATM   24  C   UNL     1      43.652 -16.438   4.406  1.00  0.00     0.018 A 
ENDBRANCH  14  16
ENDBRANCH   9  14
BRANCH   1  25
HETATM   25  C   UNL     1      41.713  -8.724   6.606  1.00  0.00     0.055 C 
HETATM   26  C   UNL     1      41.371  -7.644   5.591  1.00  0.00     0.011 C 
ENDBRANCH   1  25
TORSDOF 3
ENDMDL
MODEL 7
REMARK VINA RESULT:      -7.5      4.910      7.518
REMARK  3 active torsions:
REMARK  status: ('A' for Active; 'I' for Inactive)
REMARK    1  A    between atoms: C_2  and  C_3 
REMARK    2  A    between atoms: C_11  and  C_12 
REMARK    3  A    between atoms: C_12  and  C_13 
ROOT
HETATM    1  C   UNL     1      43.748 -17.148   4.381  1.00  0.00     0.041 A 
HETATM    2  N   UNL     1      43.261 -16.829   3.157  1.00  0.00    -0.245 NA
HETATM    3  C   UNL     1      42.788 -15.574   3.034  1.00  0.00     0.111 A 
HETATM    4  C   UNL     1      42.750 -14.603   4.024  1.00  0.00     0.028 A 
HETATM    5  C   UNL     1      43.251 -14.978   5.289  1.00  0.00     0.025 A 
HETATM    6  C   UNL     1      43.753 -16.273   5.476  1.00  0.00    -0.036 A 
HETATM    7  C   UNL     1      44.304 -16.656   6.818  1.00  0.00     0.050 C 
HETATM    8  S   UNL     1      42.162 -15.024   1.550  1.00  0.00    -0.063 SA
HETATM    9  C   UNL     1      41.796 -13.477   2.192  1.00  0.00     0.085 A 
HETATM   10  C   UNL     1      42.193 -13.386   3.514  1.00  0.00     0.060 A 
HETATM   11  N   UNL     1      42.059 -12.255   4.250  1.00  0.00    -0.397 N 
HETATM   12  H   UNL     1      41.889 -11.371   3.761  1.00  0.00     0.156 HD
HETATM   13  H   UNL     1      42.593 -12.120   5.103  1.00  0.00     0.156 HD
ENDROOT
BRANCH   9  14
HETATM   14  C   UNL     1      41.235 -12.416   1.369  1.00  0.00     0.201 C 
HETATM   15  O   UNL     1      41.115 -11.258   1.778  1.00  0.00    -0.286 OA
BRANCH  14  16
HETATM   16  C   UNL     1      40.732 -12.682  -0.007  1.00  0.00     0.018 A 
HETATM   17  C   UNL     1      39.840 -13.750  -0.191  1.00  0.00     0.055 A 
HETATM   18  C   UNL     1      39.431 -14.029  -1.477  1.00  0.00     0.106 A 
HETATM   19  C   UNL     1      39.877 -13.300  -2.555  1.00  0.00     0.105 A 
HETATM   20  O   UNL     1      38.580 -15.025  -1.841  1.00  0.00    -0.323 OA
HETATM   21  O   UNL     1      39.363 -13.748  -3.731  1.00  0.00    -0.323 OA
HETATM   22  C   UNL     1      40.761 -12.253  -2.410  1.00  0.00     0.040 A 
HETATM   23  C   UNL     1      38.556 -14.854  -3.273  1.00  0.00     0.352 A 
HETATM   24  C   UNL     1      41.202 -11.946  -1.118  1.00  0.00     0.018 A 
ENDBRANCH  14  16
ENDBRANCH   9  14
BRANCH   1  25
HETATM   25  C   UNL     1      44.281 -18.558   4.490  1.00  0.00     0.055 C 
HETATM   26  C   UNL     1      43.958 -19.383   3.254  1.00  0.00     0.011 C 
ENDBRANCH   1  25
TORSDOF 3
ENDMDL
MODEL 8
REMARK VINA RESULT:      -7.5      4.664      7.579
REMARK  3 active torsions:
REMARK  status: ('A' for Active; 'I' for Inactive)
REMARK    1  A    between atoms: C_2  and  C_3 
REMARK    2  A    between atoms: C_11  and  C_12 
REMARK    3  A    between atoms: C_12  and  C_13 
ROOT
HETATM    1  C   UNL     1      39.915 -13.335  -1.563  1.00  0.00     0.041 A 
HETATM    2  N   UNL     1      39.683 -14.257  -0.598  1.00  0.00    -0.245 NA
HETATM    3  C   UNL     1      40.241 -13.992   0.599  1.00  0.00     0.111 A 
HETATM    4  C   UNL     1      41.017 -12.889   0.924  1.00  0.00     0.028 A 
HETATM    5  C   UNL     1      41.249 -11.959  -0.111  1.00  0.00     0.025 A 
HETATM    6  C   UNL     1      40.697 -12.186  -1.379  1.00  0.00    -0.036 A 
HETATM    7  C   UNL     1      40.931 -11.181  -2.468  1.00  0.00     0.050 C 
HETATM    8  S   UNL     1      40.020 -15.051   1.913  1.00  0.00    -0.063 SA
HETATM    9  C   UNL     1      40.977 -14.081   2.953  1.00  0.00     0.085 A 
HETATM   10  C   UNL     1      41.417 -12.944   2.298  1.00  0.00     0.060 A 
HETATM   11  N   UNL     1      42.159 -11.983   2.903  1.00  0.00    -0.397 N 
HETATM   12  H   UNL     1      42.194 -11.966   3.927  1.00  0.00     0.156 HD
HETATM   13  H   UNL     1      42.234 -11.052   2.504  1.00  0.00     0.156 HD
ENDROOT
BRANCH   9  14
HETATM   14  C   UNL     1      41.174 -14.418   4.354  1.00  0.00     0.201 C 
HETATM   15  O   UNL     1      40.716 -13.729   5.269  1.00  0.00    -0.286 OA
BRANCH  14  16
HETATM   16  C   UNL     1      41.982 -15.600   4.764  1.00  0.00     0.018 A 
HETATM   17  C   UNL     1      42.500 -16.429   3.756  1.00  0.00     0.055 A 
HETATM   18  C   UNL     1      43.191 -17.555   4.146  1.00  0.00     0.106 A 
HETATM   19  C   UNL     1      43.371 -17.875   5.472  1.00  0.00     0.105 A 
HETATM   20  O   UNL     1      43.753 -18.471   3.312  1.00  0.00    -0.323 OA
HETATM   21  O   UNL     1      44.068 -19.030   5.636  1.00  0.00    -0.323 OA
HETATM   22  C   UNL     1      42.867 -17.088   6.485  1.00  0.00     0.040 A 
HETATM   23  C   UNL     1      44.291 -19.413   4.262  1.00  0.00     0.352 A 
HETATM   24  C   UNL     1      42.154 -15.939   6.124  1.00  0.00     0.018 A 
ENDBRANCH  14  16
ENDBRANCH   9  14
BRANCH   1  25
HETATM   25  C   UNL     1      39.271 -13.651  -2.894  1.00  0.00     0.055 C 
HETATM   26  C   UNL     1      38.719 -15.068  -2.933  1.00  0.00     0.011 C 
ENDBRANCH   1  25
TORSDOF 3
ENDMDL
MODEL 9
REMARK VINA RESULT:      -7.5      4.867      6.272
REMARK  3 active torsions:
REMARK  status: ('A' for Active; 'I' for Inactive)
REMARK    1  A    between atoms: C_2  and  C_3 
REMARK    2  A    between atoms: C_11  and  C_12 
REMARK    3  A    between atoms: C_12  and  C_13 
ROOT
HETATM    1  C   UNL     1      43.338 -16.851   4.167  1.00  0.00     0.041 A 
HETATM    2  N   UNL     1      42.893 -15.603   4.445  1.00  0.00    -0.245 NA
HETATM    3  C   UNL     1      41.996 -15.102   3.574  1.00  0.00     0.111 A 
HETATM    4  C   UNL     1      41.502 -15.733   2.441  1.00  0.00     0.028 A 
HETATM    5  C   UNL     1      42.002 -17.026   2.177  1.00  0.00     0.025 A 
HETATM    6  C   UNL     1      42.941 -17.595   3.048  1.00  0.00    -0.036 A 
HETATM    7  C   UNL     1      43.450 -18.979   2.771  1.00  0.00     0.050 C 
HETATM    8  S   UNL     1      41.333 -13.551   3.804  1.00  0.00    -0.063 SA
HETATM    9  C   UNL     1      40.384 -13.664   2.381  1.00  0.00     0.085 A 
HETATM   10  C   UNL     1      40.552 -14.896   1.773  1.00  0.00     0.060 A 
HETATM   11  N   UNL     1      39.883 -15.265   0.652  1.00  0.00    -0.397 N 
HETATM   12  H   UNL     1      39.055 -14.728   0.379  1.00  0.00     0.156 HD
HETATM   13  H   UNL     1      39.808 -16.241   0.386  1.00  0.00     0.156 HD
ENDROOT
BRANCH   9  14
HETATM   14  C   UNL     1      39.468 -12.606   1.982  1.00  0.00     0.201 C 
HETATM   15  O   UNL     1      38.375 -12.439   2.530  1.00  0.00    -0.286 OA
BRANCH  14  16
HETATM   16  C   UNL     1      39.784 -11.689   0.853  1.00  0.00     0.018 A 
HETATM   17  C   UNL     1      41.025 -11.032   0.860  1.00  0.00     0.055 A 
HETATM   18  C   UNL     1      41.282 -10.136  -0.154  1.00  0.00     0.106 A 
HETATM   19  C   UNL     1      40.363  -9.877  -1.145  1.00  0.00     0.105 A 
HETATM   20  O   UNL     1      42.421  -9.408  -0.301  1.00  0.00    -0.323 OA
HETATM   21  O   UNL     1      40.810  -8.955  -2.037  1.00  0.00    -0.323 OA
HETATM   22  C   UNL     1      39.133 -10.498  -1.176  1.00  0.00     0.040 A 
HETATM   23  C   UNL     1      42.108  -8.647  -1.486  1.00  0.00     0.352 A 
HETATM   24  C   UNL     1      38.836 -11.409  -0.157  1.00  0.00     0.018 A 
ENDBRANCH  14  16
ENDBRANCH   9  14
BRANCH   1  25
HETATM   25  C   UNL     1      44.336 -17.392   5.165  1.00  0.00     0.055 C 
HETATM   26  C   UNL     1      44.624 -16.394   6.276  1.00  0.00     0.011 C 
ENDBRANCH   1  25
TORSDOF 3
ENDMDL
MODEL 10
REMARK VINA RESULT:      -7.4      4.769      8.123
REMARK  3 active torsions:
REMARK  status: ('A' for Active; 'I' for Inactive)
REMARK    1  A    between atoms: C_2  and  C_3 
REMARK    2  A    between atoms: C_11  and  C_12 
REMARK    3  A    between atoms: C_12  and  C_13 
ROOT
HETATM    1  C   UNL     1      40.581 -10.906  -0.661  1.00  0.00     0.041 A 
HETATM    2  N   UNL     1      41.482 -11.081   0.335  1.00  0.00    -0.245 NA
HETATM    3  C   UNL     1      41.166 -12.029   1.238  1.00  0.00     0.111 A 
HETATM    4  C   UNL     1      40.028 -12.823   1.242  1.00  0.00     0.028 A 
HETATM    5  C   UNL     1      39.107 -12.600   0.196  1.00  0.00     0.025 A 
HETATM    6  C   UNL     1      39.381 -11.622  -0.769  1.00  0.00    -0.036 A 
HETATM    7  C   UNL     1      38.406 -11.408  -1.889  1.00  0.00     0.050 C 
HETATM    8  S   UNL     1      42.212 -12.374   2.537  1.00  0.00    -0.063 SA
HETATM    9  C   UNL     1      41.162 -13.578   3.160  1.00  0.00     0.085 A 
HETATM   10  C   UNL     1      40.052 -13.730   2.349  1.00  0.00     0.060 A 
HETATM   11  N   UNL     1      39.081 -14.647   2.589  1.00  0.00    -0.397 N 
HETATM   12  H   UNL     1      39.283 -15.412   3.240  1.00  0.00     0.156 HD
HETATM   13  H   UNL     1      38.437 -14.930   1.857  1.00  0.00     0.156 HD
ENDROOT
BRANCH   9  14
HETATM   14  C   UNL     1      41.507 -14.365   4.334  1.00  0.00     0.201 C 
HETATM   15  O   UNL     1      41.125 -14.060   5.468  1.00  0.00    -0.286 OA
BRANCH  14  16
HETATM   16  C   UNL     1      42.380 -15.567   4.236  1.00  0.00     0.018 A 
HETATM   17  C   UNL     1      42.158 -16.463   3.179  1.00  0.00     0.055 A 
HETATM   18  C   UNL     1      42.928 -17.604   3.133  1.00  0.00     0.106 A 
HETATM   19  C   UNL     1      43.882 -17.875   4.087  1.00  0.00     0.105 A 
HETATM   20  O   UNL     1      42.845 -18.581   2.191  1.00  0.00    -0.323 OA
HETATM   21  O   UNL     1      44.517 -19.056   3.863  1.00  0.00    -0.323 OA
HETATM   22  C   UNL     1      44.118 -17.022   5.143  1.00  0.00     0.040 A 
HETATM   23  C   UNL     1      43.842 -19.508   2.669  1.00  0.00     0.352 A 
HETATM   24  C   UNL     1      43.349 -15.856   5.223  1.00  0.00     0.018 A 
ENDBRANCH  14  16
ENDBRANCH   9  14
BRANCH   1  25
HETATM   25  C   UNL     1      40.963  -9.842  -1.665  1.00  0.00     0.055 C 
HETATM   26  C   UNL     1      42.169  -9.038  -1.206  1.00  0.00     0.011 C 
ENDBRANCH   1  25
TORSDOF 3
ENDMDL
