MODEL 1
REMARK VINA RESULT:     -10.6      0.000      0.000
REMARK  5 active torsions:
REMARK  status: ('A' for Active; 'I' for Inactive)
REMARK    1  A    between atoms: C_4  and  N_5 
REMARK    2  A    between atoms: C_7  and  C_8 
REMARK       I    between atoms: C_8  and  N_9 
REMARK    3  A    between atoms: N_9  and  N_10 
REMARK       I    between atoms: N_10  and  C_11 
REMARK    4  A    between atoms: C_11  and  C_12 
REMARK    5  A    between atoms: C_16  and  C_17 
ROOT
HETATM    1  C   UNL     1      42.597 -13.104   5.867  1.00  0.00     0.286 C 
HETATM    2  N   UNL     1      43.754 -13.005   6.605  1.00  0.00    -0.262 N 
HETATM    3  O   UNL     1      41.534 -12.582   6.175  1.00  0.00    -0.264 OA
HETATM    4  H   UNL     1      44.622 -13.471   6.339  1.00  0.00     0.190 HD
ENDROOT
BRANCH   2   5
HETATM    5  N   UNL     1      43.709 -12.278   7.795  1.00  0.00    -0.262 N 
HETATM    6  C   UNL     1      44.289 -11.030   7.873  1.00  0.00     0.288 C 
HETATM    7  O   UNL     1      44.813 -10.487   6.903  1.00  0.00    -0.264 OA
HETATM    8  H   UNL     1      43.307 -12.752   8.600  1.00  0.00     0.190 HD
BRANCH   6   9
HETATM    9  C   UNL     1      44.225 -10.418   9.174  1.00  0.00     0.121 A 
HETATM   10  N   UNL     1      45.340  -9.969   9.824  1.00  0.00    -0.272 N 
HETATM   11  H   UNL     1      46.300 -10.014   9.495  1.00  0.00     0.189 HD
HETATM   12  N   UNL     1      45.091  -9.404  11.017  1.00  0.00    -0.174 NA
HETATM   13  C   UNL     1      43.762  -9.508  11.173  1.00  0.00     0.089 A 
HETATM   14  C   UNL     1      43.183 -10.135  10.034  1.00  0.00     0.071 A 
BRANCH  13  15
HETATM   15  C   UNL     1      43.075  -9.009  12.368  1.00  0.00    -0.006 A 
HETATM   16  C   UNL     1      41.943  -9.671  12.868  1.00  0.00     0.014 A 
HETATM   17  C   UNL     1      41.297  -9.212  14.020  1.00  0.00     0.001 A 
HETATM   18  C   UNL     1      41.771  -8.083  14.683  1.00  0.00     0.000 A 
HETATM   19  C   UNL     1      42.888  -7.409  14.195  1.00  0.00     0.001 A 
HETATM   20  C   UNL     1      43.536  -7.868  13.045  1.00  0.00     0.014 A 
ENDBRANCH  13  15
ENDBRANCH   6   9
ENDBRANCH   2   5
BRANCH   1  21
HETATM   21  C   UNL     1      42.713 -13.927   4.594  1.00  0.00     0.125 C 
HETATM   22  N   UNL     1      43.146 -15.149   4.667  1.00  0.00    -0.164 NA
HETATM   23  N   UNL     1      43.224 -15.903   3.498  1.00  0.00    -0.201 N 
HETATM   24  C   UNL     1      43.088 -15.329   2.219  1.00  0.00     0.245 C 
HETATM   25  C   UNL     1      43.110 -13.821   2.213  1.00  0.00     0.111 C 
HETATM   26  O   UNL     1      43.006 -15.918   1.141  1.00  0.00    -0.271 OA
HETATM   27  C   UNL     1      42.251 -13.285   3.326  1.00  0.00     0.076 C 
BRANCH  23  28
HETATM   28  C   UNL     1      43.482 -17.303   3.722  1.00  0.00     0.062 A 
HETATM   29  C   UNL     1      43.435 -18.258   2.693  1.00  0.00     0.038 A 
HETATM   30  C   UNL     1      43.691 -19.621   2.929  1.00  0.00    -0.060 A 
HETATM   31  C   UNL     1      43.661 -20.609   1.799  1.00  0.00     0.048 C 
HETATM   32  C   UNL     1      44.022 -20.042   4.217  1.00  0.00     0.007 A 
HETATM   33  C   UNL     1      44.084 -19.117   5.254  1.00  0.00     0.003 A 
HETATM   34  C   UNL     1      43.820 -17.766   5.008  1.00  0.00     0.032 A 
ENDBRANCH  23  28
ENDBRANCH   1  21
TORSDOF 5
ENDMDL
MODEL 2
REMARK VINA RESULT:     -10.4      1.839     11.248
REMARK  5 active torsions:
REMARK  status: ('A' for Active; 'I' for Inactive)
REMARK    1  A    between atoms: C_4  and  N_5 
REMARK    2  A    between atoms: C_7  and  C_8 
REMARK       I    between atoms: C_8  and  N_9 
REMARK    3  A    between atoms: N_9  and  N_10 
REMARK       I    between atoms: N_10  and  C_11 
REMARK    4  A    between atoms: C_11  and  C_12 
REMARK    5  A    between atoms: C_16  and  C_17 
ROOT
HETATM    1  C   UNL     1      44.394 -10.880   8.479  1.00  0.00     0.286 C 
HETATM    2  N   UNL     1      43.366 -11.672   8.022  1.00  0.00    -0.262 N 
HETATM    3  O   UNL     1      45.579 -11.184   8.423  1.00  0.00    -0.264 OA
HETATM    4  H   UNL     1      42.384 -11.405   8.102  1.00  0.00     0.190 HD
ENDROOT
BRANCH   2   5
HETATM    5  N   UNL     1      43.692 -12.914   7.475  1.00  0.00    -0.262 N 
HETATM    6  C   UNL     1      43.031 -13.380   6.359  1.00  0.00     0.288 C 
HETATM    7  O   UNL     1      42.181 -12.714   5.772  1.00  0.00    -0.264 OA
HETATM    8  H   UNL     1      44.368 -13.471   7.991  1.00  0.00     0.190 HD
BRANCH   6   9
HETATM    9  C   UNL     1      43.420 -14.699   5.938  1.00  0.00     0.121 A 
HETATM   10  N   UNL     1      44.385 -15.418   6.585  1.00  0.00    -0.272 N 
HETATM   11  H   UNL     1      44.925 -15.126   7.395  1.00  0.00     0.189 HD
HETATM   12  N   UNL     1      44.602 -16.638   6.069  1.00  0.00    -0.174 NA
HETATM   13  C   UNL     1      43.764 -16.720   5.023  1.00  0.00     0.089 A 
HETATM   14  C   UNL     1      43.003 -15.524   4.912  1.00  0.00     0.071 A 
BRANCH  13  15
HETATM   15  C   UNL     1      43.692 -17.913   4.173  1.00  0.00    -0.006 A 
HETATM   16  C   UNL     1      44.153 -19.152   4.643  1.00  0.00     0.014 A 
HETATM   17  C   UNL     1      44.067 -20.297   3.844  1.00  0.00     0.001 A 
HETATM   18  C   UNL     1      43.524 -20.215   2.565  1.00  0.00     0.000 A 
HETATM   19  C   UNL     1      43.070 -18.991   2.079  1.00  0.00     0.001 A 
HETATM   20  C   UNL     1      43.154 -17.847   2.878  1.00  0.00     0.014 A 
ENDBRANCH  13  15
ENDBRANCH   6   9
ENDBRANCH   2   5
BRANCH   1  21
HETATM   21  C   UNL     1      43.966  -9.550   9.080  1.00  0.00     0.125 C 
HETATM   22  N   UNL     1      43.256  -9.546  10.167  1.00  0.00    -0.164 NA
HETATM   23  N   UNL     1      42.891  -8.322  10.723  1.00  0.00    -0.201 N 
HETATM   24  C   UNL     1      43.047  -7.103  10.035  1.00  0.00     0.245 C 
HETATM   25  C   UNL     1      43.395  -7.258   8.576  1.00  0.00     0.111 C 
HETATM   26  O   UNL     1      42.886  -5.968  10.483  1.00  0.00    -0.271 OA
HETATM   27  C   UNL     1      44.455  -8.311   8.403  1.00  0.00     0.076 C 
BRANCH  23  28
HETATM   28  C   UNL     1      42.319  -8.428  12.042  1.00  0.00     0.062 A 
HETATM   29  C   UNL     1      42.796  -7.688  13.137  1.00  0.00     0.038 A 
HETATM   30  C   UNL     1      42.225  -7.802  14.418  1.00  0.00    -0.060 A 
HETATM   31  C   UNL     1      42.741  -6.973  15.559  1.00  0.00     0.048 C 
HETATM   32  C   UNL     1      41.141  -8.659  14.610  1.00  0.00     0.007 A 
HETATM   33  C   UNL     1      40.643  -9.398  13.542  1.00  0.00     0.003 A 
HETATM   34  C   UNL     1      41.224  -9.281  12.275  1.00  0.00     0.032 A 
ENDBRANCH  23  28
ENDBRANCH   1  21
TORSDOF 5
ENDMDL
MODEL 3
REMARK VINA RESULT:      -9.7      7.081     11.247
REMARK  5 active torsions:
REMARK  status: ('A' for Active; 'I' for Inactive)
REMARK    1  A    between atoms: C_4  and  N_5 
REMARK    2  A    between atoms: C_7  and  C_8 
REMARK       I    between atoms: C_8  and  N_9 
REMARK    3  A    between atoms: N_9  and  N_10 
REMARK       I    between atoms: N_10  and  C_11 
REMARK    4  A    between atoms: C_11  and  C_12 
REMARK    5  A    between atoms: C_16  and  C_17 
ROOT
HETATM    1  C   UNL     1      40.171 -13.055  -1.071  1.00  0.00     0.286 C 
HETATM    2  N   UNL     1      41.264 -12.858  -0.258  1.00  0.00    -0.262 N 
HETATM    3  O   UNL     1      39.530 -14.096  -1.127  1.00  0.00    -0.264 OA
HETATM    4  H   UNL     1      41.797 -11.987  -0.248  1.00  0.00     0.190 HD
ENDROOT
BRANCH   2   5
HETATM    5  N   UNL     1      41.683 -13.922   0.542  1.00  0.00    -0.262 N 
HETATM    6  C   UNL     1      42.157 -13.693   1.816  1.00  0.00     0.288 C 
HETATM    7  O   UNL     1      42.179 -12.571   2.317  1.00  0.00    -0.264 OA
HETATM    8  H   UNL     1      41.696 -14.839   0.103  1.00  0.00     0.190 HD
BRANCH   6   9
HETATM    9  C   UNL     1      42.614 -14.869   2.507  1.00  0.00     0.121 A 
HETATM   10  N   UNL     1      43.105 -14.822   3.782  1.00  0.00    -0.272 N 
HETATM   11  H   UNL     1      43.210 -13.998   4.367  1.00  0.00     0.189 HD
HETATM   12  N   UNL     1      43.463 -16.017   4.278  1.00  0.00    -0.174 NA
HETATM   13  C   UNL     1      43.224 -16.885   3.283  1.00  0.00     0.089 A 
HETATM   14  C   UNL     1      42.687 -16.202   2.156  1.00  0.00     0.071 A 
BRANCH  13  15
HETATM   15  C   UNL     1      43.492 -18.321   3.418  1.00  0.00    -0.006 A 
HETATM   16  C   UNL     1      43.332 -19.182   2.322  1.00  0.00     0.014 A 
HETATM   17  C   UNL     1      43.606 -20.548   2.439  1.00  0.00     0.001 A 
HETATM   18  C   UNL     1      44.038 -21.070   3.655  1.00  0.00     0.000 A 
HETATM   19  C   UNL     1      44.193 -20.231   4.756  1.00  0.00     0.001 A 
HETATM   20  C   UNL     1      43.922 -18.865   4.639  1.00  0.00     0.014 A 
ENDBRANCH  13  15
ENDBRANCH   6   9
ENDBRANCH   2   5
BRANCH   1  21
HETATM   21  C   UNL     1      39.783 -11.862  -1.929  1.00  0.00     0.125 C 
HETATM   22  N   UNL     1      40.521 -10.795  -1.901  1.00  0.00    -0.164 NA
HETATM   23  N   UNL     1      40.171  -9.716  -2.711  1.00  0.00    -0.201 N 
HETATM   24  C   UNL     1      38.927  -9.639  -3.369  1.00  0.00     0.245 C 
HETATM   25  C   UNL     1      37.928 -10.676  -2.923  1.00  0.00     0.111 C 
HETATM   26  O   UNL     1      38.576  -8.806  -4.205  1.00  0.00    -0.271 OA
HETATM   27  C   UNL     1      38.590 -12.022  -2.815  1.00  0.00     0.076 C 
BRANCH  23  28
HETATM   28  C   UNL     1      41.179  -8.689  -2.785  1.00  0.00     0.062 A 
HETATM   29  C   UNL     1      41.661  -8.185  -4.005  1.00  0.00     0.038 A 
HETATM   30  C   UNL     1      42.645  -7.181  -4.059  1.00  0.00    -0.060 A 
HETATM   31  C   UNL     1      43.114  -6.645  -5.381  1.00  0.00     0.048 C 
HETATM   32  C   UNL     1      43.149  -6.651  -2.870  1.00  0.00     0.007 A 
HETATM   33  C   UNL     1      42.685  -7.126  -1.649  1.00  0.00     0.003 A 
HETATM   34  C   UNL     1      41.711  -8.130  -1.608  1.00  0.00     0.032 A 
ENDBRANCH  23  28
ENDBRANCH   1  21
TORSDOF 5
ENDMDL
MODEL 4
REMARK VINA RESULT:      -9.5      1.544      2.164
REMARK  5 active torsions:
REMARK  status: ('A' for Active; 'I' for Inactive)
REMARK    1  A    between atoms: C_4  and  N_5 
REMARK    2  A    between atoms: C_7  and  C_8 
REMARK       I    between atoms: C_8  and  N_9 
REMARK    3  A    between atoms: N_9  and  N_10 
REMARK       I    between atoms: N_10  and  C_11 
REMARK    4  A    between atoms: C_11  and  C_12 
REMARK    5  A    between atoms: C_16  and  C_17 
ROOT
HETATM    1  C   UNL     1      42.048 -11.043   5.428  1.00  0.00     0.286 C 
HETATM    2  N   UNL     1      42.543 -11.707   6.526  1.00  0.00    -0.262 N 
HETATM    3  O   UNL     1      41.744  -9.857   5.415  1.00  0.00    -0.264 OA
HETATM    4  H   UNL     1      42.765 -12.703   6.517  1.00  0.00     0.190 HD
ENDROOT
BRANCH   2   5
HETATM    5  N   UNL     1      42.690 -10.987   7.712  1.00  0.00    -0.262 N 
HETATM    6  C   UNL     1      43.900 -10.971   8.373  1.00  0.00     0.288 C 
HETATM    7  O   UNL     1      44.899 -11.533   7.929  1.00  0.00    -0.264 OA
HETATM    8  H   UNL     1      41.849 -10.559   8.089  1.00  0.00     0.190 HD
BRANCH   6   9
HETATM    9  C   UNL     1      43.897 -10.244   9.614  1.00  0.00     0.121 A 
HETATM   10  N   UNL     1      45.001  -9.586  10.077  1.00  0.00    -0.272 N 
HETATM   11  H   UNL     1      45.914  -9.535   9.633  1.00  0.00     0.189 HD
HETATM   12  N   UNL     1      44.811  -8.942  11.240  1.00  0.00    -0.174 NA
HETATM   13  C   UNL     1      43.538  -9.206  11.572  1.00  0.00     0.089 A 
HETATM   14  C   UNL     1      42.930 -10.017  10.574  1.00  0.00     0.071 A 
BRANCH  13  15
HETATM   15  C   UNL     1      42.926  -8.684  12.799  1.00  0.00    -0.006 A 
HETATM   16  C   UNL     1      41.842  -9.348  13.392  1.00  0.00     0.014 A 
HETATM   17  C   UNL     1      41.269  -8.868  14.574  1.00  0.00     0.001 A 
HETATM   18  C   UNL     1      41.769  -7.715  15.173  1.00  0.00     0.000 A 
HETATM   19  C   UNL     1      42.840  -7.039  14.592  1.00  0.00     0.001 A 
HETATM   20  C   UNL     1      43.415  -7.520  13.413  1.00  0.00     0.014 A 
ENDBRANCH  13  15
ENDBRANCH   6   9
ENDBRANCH   2   5
BRANCH   1  21
HETATM   21  C   UNL     1      41.894 -11.892   4.176  1.00  0.00     0.125 C 
HETATM   22  N   UNL     1      42.448 -13.066   4.135  1.00  0.00    -0.164 NA
HETATM   23  N   UNL     1      42.279 -13.847   2.993  1.00  0.00    -0.201 N 
HETATM   24  C   UNL     1      41.746 -13.329   1.797  1.00  0.00     0.245 C 
HETATM   25  C   UNL     1      41.618 -11.827   1.777  1.00  0.00     0.111 C 
HETATM   26  O   UNL     1      41.432 -13.958   0.786  1.00  0.00    -0.271 OA
HETATM   27  C   UNL     1      41.045 -11.337   3.078  1.00  0.00     0.076 C 
BRANCH  23  28
HETATM   28  C   UNL     1      42.724 -15.209   3.147  1.00  0.00     0.062 A 
HETATM   29  C   UNL     1      43.081 -15.755   4.391  1.00  0.00     0.038 A 
HETATM   30  C   UNL     1      43.512 -17.088   4.523  1.00  0.00    -0.060 A 
HETATM   31  C   UNL     1      43.857 -17.647   5.873  1.00  0.00     0.048 C 
HETATM   32  C   UNL     1      43.569 -17.904   3.392  1.00  0.00     0.007 A 
HETATM   33  C   UNL     1      43.214 -17.392   2.149  1.00  0.00     0.003 A 
HETATM   34  C   UNL     1      42.794 -16.063   2.030  1.00  0.00     0.032 A 
ENDBRANCH  23  28
ENDBRANCH   1  21
TORSDOF 5
ENDMDL
MODEL 5
REMARK VINA RESULT:      -9.4      2.466     11.018
REMARK  5 active torsions:
REMARK  status: ('A' for Active; 'I' for Inactive)
REMARK    1  A    between atoms: C_4  and  N_5 
REMARK    2  A    between atoms: C_7  and  C_8 
REMARK       I    between atoms: C_8  and  N_9 
REMARK    3  A    between atoms: N_9  and  N_10 
REMARK       I    between atoms: N_10  and  C_11 
REMARK    4  A    between atoms: C_11  and  C_12 
REMARK    5  A    between atoms: C_16  and  C_17 
ROOT
HETATM    1  C   UNL     1      42.342 -10.585   6.624  1.00  0.00     0.286 C 
HETATM    2  N   UNL     1      41.728 -11.810   6.747  1.00  0.00    -0.262 N 
HETATM    3  O   UNL     1      43.297 -10.361   5.892  1.00  0.00    -0.264 OA
HETATM    4  H   UNL     1      40.947 -11.977   7.382  1.00  0.00     0.190 HD
ENDROOT
BRANCH   2   5
HETATM    5  N   UNL     1      42.240 -12.875   6.004  1.00  0.00    -0.262 N 
HETATM    6  C   UNL     1      41.496 -13.441   4.991  1.00  0.00     0.288 C 
HETATM    7  O   UNL     1      40.392 -13.009   4.666  1.00  0.00    -0.264 OA
HETATM    8  H   UNL     1      43.136 -13.248   6.307  1.00  0.00     0.190 HD
BRANCH   6   9
HETATM    9  C   UNL     1      42.115 -14.570   4.349  1.00  0.00     0.121 A 
HETATM   10  N   UNL     1      42.900 -14.438   3.238  1.00  0.00    -0.272 N 
HETATM   11  H   UNL     1      43.126 -13.577   2.748  1.00  0.00     0.189 HD
HETATM   12  N   UNL     1      43.414 -15.593   2.787  1.00  0.00    -0.174 NA
HETATM   13  C   UNL     1      42.930 -16.529   3.618  1.00  0.00     0.089 A 
HETATM   14  C   UNL     1      42.115 -15.925   4.614  1.00  0.00     0.071 A 
BRANCH  13  15
HETATM   15  C   UNL     1      43.254 -17.952   3.465  1.00  0.00    -0.006 A 
HETATM   16  C   UNL     1      42.987 -18.617   2.259  1.00  0.00     0.014 A 
HETATM   17  C   UNL     1      43.313 -19.968   2.099  1.00  0.00     0.001 A 
HETATM   18  C   UNL     1      43.906 -20.670   3.145  1.00  0.00     0.000 A 
HETATM   19  C   UNL     1      44.169 -20.027   4.353  1.00  0.00     0.001 A 
HETATM   20  C   UNL     1      43.846 -18.676   4.511  1.00  0.00     0.014 A 
ENDBRANCH  13  15
ENDBRANCH   6   9
ENDBRANCH   2   5
BRANCH   1  21
HETATM   21  C   UNL     1      41.745  -9.477   7.476  1.00  0.00     0.125 C 
HETATM   22  N   UNL     1      41.672  -9.637   8.762  1.00  0.00    -0.164 NA
HETATM   23  N   UNL     1      41.147  -8.604   9.537  1.00  0.00    -0.201 N 
HETATM   24  C   UNL     1      40.474  -7.504   8.972  1.00  0.00     0.245 C 
HETATM   25  C   UNL     1      40.148  -7.664   7.508  1.00  0.00     0.111 C 
HETATM   26  O   UNL     1      40.097  -6.483   9.548  1.00  0.00    -0.271 OA
HETATM   27  C   UNL     1      41.333  -8.225   6.771  1.00  0.00     0.076 C 
BRANCH  23  28
HETATM   28  C   UNL     1      41.334  -8.785  10.955  1.00  0.00     0.062 A 
HETATM   29  C   UNL     1      42.225  -8.003  11.709  1.00  0.00     0.038 A 
HETATM   30  C   UNL     1      42.394  -8.191  13.093  1.00  0.00    -0.060 A 
HETATM   31  C   UNL     1      43.333  -7.316  13.872  1.00  0.00     0.048 C 
HETATM   32  C   UNL     1      41.644  -9.169  13.747  1.00  0.00     0.007 A 
HETATM   33  C   UNL     1      40.749  -9.953  13.027  1.00  0.00     0.003 A 
HETATM   34  C   UNL     1      40.595  -9.761  11.650  1.00  0.00     0.032 A 
ENDBRANCH  23  28
ENDBRANCH   1  21
TORSDOF 5
ENDMDL
MODEL 6
REMARK VINA RESULT:      -9.3      2.140      2.317
REMARK  5 active torsions:
REMARK  status: ('A' for Active; 'I' for Inactive)
REMARK    1  A    between atoms: C_4  and  N_5 
REMARK    2  A    between atoms: C_7  and  C_8 
REMARK       I    between atoms: C_8  and  N_9 
REMARK    3  A    between atoms: N_9  and  N_10 
REMARK       I    between atoms: N_10  and  C_11 
REMARK    4  A    between atoms: C_11  and  C_12 
REMARK    5  A    between atoms: C_16  and  C_17 
ROOT
HETATM    1  C   UNL     1      40.494 -12.939   5.622  1.00  0.00     0.286 C 
HETATM    2  N   UNL     1      41.333 -11.874   5.855  1.00  0.00    -0.262 N 
HETATM    3  O   UNL     1      39.574 -13.269   6.359  1.00  0.00    -0.264 OA
HETATM    4  H   UNL     1      42.108 -11.634   5.237  1.00  0.00     0.190 HD
ENDROOT
BRANCH   2   5
HETATM    5  N   UNL     1      41.136 -11.130   7.020  1.00  0.00    -0.262 N 
HETATM    6  C   UNL     1      41.954 -10.060   7.311  1.00  0.00     0.288 C 
HETATM    7  O   UNL     1      42.841  -9.684   6.548  1.00  0.00    -0.264 OA
HETATM    8  H   UNL     1      40.425 -11.474   7.660  1.00  0.00     0.190 HD
BRANCH   6   9
HETATM    9  C   UNL     1      41.682  -9.421   8.571  1.00  0.00     0.121 A 
HETATM   10  N   UNL     1      40.430  -9.390   9.119  1.00  0.00    -0.272 N 
HETATM   11  H   UNL     1      39.581  -9.785   8.726  1.00  0.00     0.189 HD
HETATM   12  N   UNL     1      40.366  -8.773  10.309  1.00  0.00    -0.174 NA
HETATM   13  C   UNL     1      41.620  -8.356  10.546  1.00  0.00     0.089 A 
HETATM   14  C   UNL     1      42.475  -8.749   9.479  1.00  0.00     0.071 A 
BRANCH  13  15
HETATM   15  C   UNL     1      41.982  -7.620  11.762  1.00  0.00    -0.006 A 
HETATM   16  C   UNL     1      42.908  -8.155  12.670  1.00  0.00     0.014 A 
HETATM   17  C   UNL     1      43.273  -7.448  13.820  1.00  0.00     0.001 A 
HETATM   18  C   UNL     1      42.713  -6.199  14.078  1.00  0.00     0.000 A 
HETATM   19  C   UNL     1      41.784  -5.658  13.191  1.00  0.00     0.001 A 
HETATM   20  C   UNL     1      41.422  -6.363  12.040  1.00  0.00     0.014 A 
ENDBRANCH  13  15
ENDBRANCH   6   9
ENDBRANCH   2   5
BRANCH   1  21
HETATM   21  C   UNL     1      40.778 -13.716   4.346  1.00  0.00     0.125 C 
HETATM   22  N   UNL     1      41.646 -14.681   4.373  1.00  0.00    -0.164 NA
HETATM   23  N   UNL     1      41.881 -15.404   3.205  1.00  0.00    -0.201 N 
HETATM   24  C   UNL     1      41.403 -14.983   1.948  1.00  0.00     0.245 C 
HETATM   25  C   UNL     1      40.852 -13.579   1.936  1.00  0.00     0.111 C 
HETATM   26  O   UNL     1      41.437 -15.610   0.889  1.00  0.00    -0.271 OA
HETATM   27  C   UNL     1      39.977 -13.354   3.138  1.00  0.00     0.076 C 
BRANCH  23  28
HETATM   28  C   UNL     1      42.671 -16.593   3.402  1.00  0.00     0.062 A 
HETATM   29  C   UNL     1      42.594 -17.706   2.550  1.00  0.00     0.038 A 
HETATM   30  C   UNL     1      43.374 -18.859   2.756  1.00  0.00    -0.060 A 
HETATM   31  C   UNL     1      43.287 -20.018   1.806  1.00  0.00     0.048 C 
HETATM   32  C   UNL     1      44.269 -18.896   3.826  1.00  0.00     0.007 A 
HETATM   33  C   UNL     1      44.372 -17.805   4.682  1.00  0.00     0.003 A 
HETATM   34  C   UNL     1      43.586 -16.668   4.470  1.00  0.00     0.032 A 
ENDBRANCH  23  28
ENDBRANCH   1  21
TORSDOF 5
ENDMDL
MODEL 7
REMARK VINA RESULT:      -9.0     17.085     20.426
REMARK  5 active torsions:
REMARK  status: ('A' for Active; 'I' for Inactive)
REMARK    1  A    between atoms: C_4  and  N_5 
REMARK    2  A    between atoms: C_7  and  C_8 
REMARK       I    between atoms: C_8  and  N_9 
REMARK    3  A    between atoms: N_9  and  N_10 
REMARK       I    between atoms: N_10  and  C_11 
REMARK    4  A    between atoms: C_11  and  C_12 
REMARK    5  A    between atoms: C_16  and  C_17 
ROOT
HETATM    1  C   UNL     1      40.651 -31.614   6.099  1.00  0.00     0.286 C 
HETATM    2  N   UNL     1      41.925 -31.190   5.799  1.00  0.00    -0.262 N 
HETATM    3  O   UNL     1      39.690 -31.500   5.349  1.00  0.00    -0.264 OA
HETATM    4  H   UNL     1      42.705 -31.275   6.452  1.00  0.00     0.190 HD
ENDROOT
BRANCH   2   5
HETATM    5  N   UNL     1      42.134 -30.570   4.566  1.00  0.00    -0.262 N 
HETATM    6  C   UNL     1      42.688 -31.271   3.517  1.00  0.00     0.288 C 
HETATM    7  O   UNL     1      42.968 -32.465   3.600  1.00  0.00    -0.264 OA
HETATM    8  H   UNL     1      41.935 -29.573   4.522  1.00  0.00     0.190 HD
BRANCH   6   9
HETATM    9  C   UNL     1      42.907 -30.496   2.325  1.00  0.00     0.121 A 
HETATM   10  N   UNL     1      41.988 -29.598   1.859  1.00  0.00    -0.272 N 
HETATM   11  H   UNL     1      41.083 -29.382   2.267  1.00  0.00     0.189 HD
HETATM   12  N   UNL     1      42.369 -28.948   0.748  1.00  0.00    -0.174 NA
HETATM   13  C   UNL     1      43.577 -29.453   0.453  1.00  0.00     0.089 A 
HETATM   14  C   UNL     1      43.950 -30.425   1.423  1.00  0.00     0.071 A 
BRANCH  13  15
HETATM   15  C   UNL     1      44.347 -29.006  -0.712  1.00  0.00    -0.006 A 
HETATM   16  C   UNL     1      45.577 -28.351  -0.544  1.00  0.00     0.014 A 
HETATM   17  C   UNL     1      46.326 -27.942  -1.652  1.00  0.00     0.001 A 
HETATM   18  C   UNL     1      45.853 -28.178  -2.940  1.00  0.00     0.000 A 
HETATM   19  C   UNL     1      44.629 -28.819  -3.124  1.00  0.00     0.001 A 
HETATM   20  C   UNL     1      43.882 -29.231  -2.017  1.00  0.00     0.014 A 
ENDBRANCH  13  15
ENDBRANCH   6   9
ENDBRANCH   2   5
BRANCH   1  21
HETATM   21  C   UNL     1      40.492 -32.262   7.465  1.00  0.00     0.125 C 
HETATM   22  N   UNL     1      41.422 -32.097   8.356  1.00  0.00    -0.164 NA
HETATM   23  N   UNL     1      41.254 -32.674   9.613  1.00  0.00    -0.201 N 
HETATM   24  C   UNL     1      40.247 -33.622   9.881  1.00  0.00     0.245 C 
HETATM   25  C   UNL     1      39.546 -34.142   8.651  1.00  0.00     0.111 C 
HETATM   26  O   UNL     1      39.930 -34.085  10.977  1.00  0.00    -0.271 OA
HETATM   27  C   UNL     1      39.222 -33.007   7.719  1.00  0.00     0.076 C 
BRANCH  23  28
HETATM   28  C   UNL     1      42.216 -32.232  10.591  1.00  0.00     0.062 A 
HETATM   29  C   UNL     1      42.236 -30.923  11.099  1.00  0.00     0.038 A 
HETATM   30  C   UNL     1      43.182 -30.508  12.055  1.00  0.00    -0.060 A 
HETATM   31  C   UNL     1      43.154 -29.109  12.598  1.00  0.00     0.048 C 
HETATM   32  C   UNL     1      44.118 -31.426  12.533  1.00  0.00     0.007 A 
HETATM   33  C   UNL     1      44.117 -32.731  12.053  1.00  0.00     0.003 A 
HETATM   34  C   UNL     1      43.177 -33.129  11.098  1.00  0.00     0.032 A 
ENDBRANCH  23  28
ENDBRANCH   1  21
TORSDOF 5
ENDMDL
MODEL 8
REMARK VINA RESULT:      -8.9      3.528     11.272
REMARK  5 active torsions:
REMARK  status: ('A' for Active; 'I' for Inactive)
REMARK    1  A    between atoms: C_4  and  N_5 
REMARK    2  A    between atoms: C_7  and  C_8 
REMARK       I    between atoms: C_8  and  N_9 
REMARK    3  A    between atoms: N_9  and  N_10 
REMARK       I    between atoms: N_10  and  C_11 
REMARK    4  A    between atoms: C_11  and  C_12 
REMARK    5  A    between atoms: C_16  and  C_17 
ROOT
HETATM    1  C   UNL     1      39.474 -10.119   7.212  1.00  0.00     0.286 C 
HETATM    2  N   UNL     1      40.715 -10.714   7.238  1.00  0.00    -0.262 N 
HETATM    3  O   UNL     1      38.485 -10.607   6.681  1.00  0.00    -0.264 OA
HETATM    4  H   UNL     1      41.530 -10.275   7.666  1.00  0.00     0.190 HD
ENDROOT
BRANCH   2   5
HETATM    5  N   UNL     1      40.862 -11.946   6.600  1.00  0.00    -0.262 N 
HETATM    6  C   UNL     1      41.874 -12.142   5.685  1.00  0.00     0.288 C 
HETATM    7  O   UNL     1      42.710 -11.277   5.435  1.00  0.00    -0.264 OA
HETATM    8  H   UNL     1      40.142 -12.640   6.786  1.00  0.00     0.190 HD
BRANCH   6   9
HETATM    9  C   UNL     1      41.873 -13.435   5.055  1.00  0.00     0.121 A 
HETATM   10  N   UNL     1      40.778 -13.930   4.404  1.00  0.00    -0.272 N 
HETATM   11  H   UNL     1      39.876 -13.477   4.295  1.00  0.00     0.189 HD
HETATM   12  N   UNL     1      40.965 -15.141   3.856  1.00  0.00    -0.174 NA
HETATM   13  C   UNL     1      42.225 -15.473   4.180  1.00  0.00     0.089 A 
HETATM   14  C   UNL     1      42.829 -14.425   4.929  1.00  0.00     0.071 A 
BRANCH  13  15
HETATM   15  C   UNL     1      42.827 -16.746   3.771  1.00  0.00    -0.006 A 
HETATM   16  C   UNL     1      43.795 -17.367   4.574  1.00  0.00     0.014 A 
HETATM   17  C   UNL     1      44.357 -18.591   4.200  1.00  0.00     0.001 A 
HETATM   18  C   UNL     1      43.962 -19.207   3.015  1.00  0.00     0.000 A 
HETATM   19  C   UNL     1      43.009 -18.599   2.201  1.00  0.00     0.001 A 
HETATM   20  C   UNL     1      42.445 -17.376   2.576  1.00  0.00     0.014 A 
ENDBRANCH  13  15
ENDBRANCH   6   9
ENDBRANCH   2   5
BRANCH   1  21
HETATM   21  C   UNL     1      39.391  -8.770   7.909  1.00  0.00     0.125 C 
HETATM   22  N   UNL     1      39.569  -8.710   9.193  1.00  0.00    -0.164 NA
HETATM   23  N   UNL     1      39.516  -7.465   9.819  1.00  0.00    -0.201 N 
HETATM   24  C   UNL     1      39.042  -6.311   9.165  1.00  0.00     0.245 C 
HETATM   25  C   UNL     1      38.367  -6.584   7.843  1.00  0.00     0.111 C 
HETATM   26  O   UNL     1      39.080  -5.152   9.575  1.00  0.00    -0.271 OA
HETATM   27  C   UNL     1      39.170  -7.572   7.044  1.00  0.00     0.076 C 
BRANCH  23  28
HETATM   28  C   UNL     1      39.961  -7.481  11.189  1.00  0.00     0.062 A 
HETATM   29  C   UNL     1      41.310  -7.648  11.547  1.00  0.00     0.038 A 
HETATM   30  C   UNL     1      41.728  -7.659  12.890  1.00  0.00    -0.060 A 
HETATM   31  C   UNL     1      43.182  -7.809  13.235  1.00  0.00     0.048 C 
HETATM   32  C   UNL     1      40.784  -7.480  13.902  1.00  0.00     0.007 A 
HETATM   33  C   UNL     1      39.444  -7.305  13.577  1.00  0.00     0.003 A 
HETATM   34  C   UNL     1      39.039  -7.303  12.238  1.00  0.00     0.032 A 
ENDBRANCH  23  28
ENDBRANCH   1  21
TORSDOF 5
ENDMDL
MODEL 9
REMARK VINA RESULT:      -8.8      3.454     11.334
REMARK  5 active torsions:
REMARK  status: ('A' for Active; 'I' for Inactive)
REMARK    1  A    between atoms: C_4  and  N_5 
REMARK    2  A    between atoms: C_7  and  C_8 
REMARK       I    between atoms: C_8  and  N_9 
REMARK    3  A    between atoms: N_9  and  N_10 
REMARK       I    between atoms: N_10  and  C_11 
REMARK    4  A    between atoms: C_11  and  C_12 
REMARK    5  A    between atoms: C_16  and  C_17 
ROOT
HETATM    1  C   UNL     1      43.437 -11.373   5.367  1.00  0.00     0.286 C 
HETATM    2  N   UNL     1      42.224 -12.011   5.484  1.00  0.00    -0.262 N 
HETATM    3  O   UNL     1      44.028 -11.198   4.309  1.00  0.00    -0.264 OA
HETATM    4  H   UNL     1      41.764 -12.166   6.381  1.00  0.00     0.190 HD
ENDROOT
BRANCH   2   5
HETATM    5  N   UNL     1      41.634 -12.510   4.321  1.00  0.00    -0.262 N 
HETATM    6  C   UNL     1      41.669 -13.860   4.045  1.00  0.00     0.288 C 
HETATM    7  O   UNL     1      42.162 -14.677   4.819  1.00  0.00    -0.264 OA
HETATM    8  H   UNL     1      41.264 -11.821   3.671  1.00  0.00     0.190 HD
BRANCH   6   9
HETATM    9  C   UNL     1      41.080 -14.230   2.786  1.00  0.00     0.121 A 
HETATM   10  N   UNL     1      40.445 -15.426   2.600  1.00  0.00    -0.272 N 
HETATM   11  H   UNL     1      40.321 -16.165   3.286  1.00  0.00     0.189 HD
HETATM   12  N   UNL     1      39.936 -15.594   1.370  1.00  0.00    -0.174 NA
HETATM   13  C   UNL     1      40.269 -14.475   0.707  1.00  0.00     0.089 A 
HETATM   14  C   UNL     1      40.985 -13.594   1.564  1.00  0.00     0.071 A 
BRANCH  13  15
HETATM   15  C   UNL     1      39.900 -14.259  -0.696  1.00  0.00    -0.006 A 
HETATM   16  C   UNL     1      39.169 -15.230  -1.398  1.00  0.00     0.014 A 
HETATM   17  C   UNL     1      38.795 -15.021  -2.729  1.00  0.00     0.001 A 
HETATM   18  C   UNL     1      39.153 -13.841  -3.376  1.00  0.00     0.000 A 
HETATM   19  C   UNL     1      39.887 -12.871  -2.697  1.00  0.00     0.001 A 
HETATM   20  C   UNL     1      40.258 -13.079  -1.365  1.00  0.00     0.014 A 
ENDBRANCH  13  15
ENDBRANCH   6   9
ENDBRANCH   2   5
BRANCH   1  21
HETATM   21  C   UNL     1      44.031 -10.874   6.675  1.00  0.00     0.125 C 
HETATM   22  N   UNL     1      43.389  -9.977   7.360  1.00  0.00    -0.164 NA
HETATM   23  N   UNL     1      43.930  -9.544   8.569  1.00  0.00    -0.201 N 
HETATM   24  C   UNL     1      45.247  -9.853   8.961  1.00  0.00     0.245 C 
HETATM   25  C   UNL     1      46.090 -10.458   7.867  1.00  0.00     0.111 C 
HETATM   26  O   UNL     1      45.770  -9.639  10.054  1.00  0.00    -0.271 OA
HETATM   27  C   UNL     1      45.307 -11.507   7.127  1.00  0.00     0.076 C 
BRANCH  23  28
HETATM   28  C   UNL     1      43.030  -8.738   9.356  1.00  0.00     0.062 A 
HETATM   29  C   UNL     1      42.012  -9.292  10.149  1.00  0.00     0.038 A 
HETATM   30  C   UNL     1      41.143  -8.491  10.913  1.00  0.00    -0.060 A 
HETATM   31  C   UNL     1      40.085  -9.119  11.773  1.00  0.00     0.048 C 
HETATM   32  C   UNL     1      41.304  -7.105  10.902  1.00  0.00     0.007 A 
HETATM   33  C   UNL     1      42.309  -6.530  10.131  1.00  0.00     0.003 A 
HETATM   34  C   UNL     1      43.162  -7.337   9.371  1.00  0.00     0.032 A 
ENDBRANCH  23  28
ENDBRANCH   1  21
TORSDOF 5
ENDMDL
MODEL 10
REMARK VINA RESULT:      -8.8      2.882      3.485
REMARK  5 active torsions:
REMARK  status: ('A' for Active; 'I' for Inactive)
REMARK    1  A    between atoms: C_4  and  N_5 
REMARK    2  A    between atoms: C_7  and  C_8 
REMARK       I    between atoms: C_8  and  N_9 
REMARK    3  A    between atoms: N_9  and  N_10 
REMARK       I    between atoms: N_10  and  C_11 
REMARK    4  A    between atoms: C_11  and  C_12 
REMARK    5  A    between atoms: C_16  and  C_17 
ROOT
HETATM    1  C   UNL     1      41.044 -11.876   5.407  1.00  0.00     0.286 C 
HETATM    2  N   UNL     1      40.174 -11.841   6.473  1.00  0.00    -0.262 N 
HETATM    3  O   UNL     1      42.016 -11.142   5.284  1.00  0.00    -0.264 OA
HETATM    4  H   UNL     1      39.356 -12.448   6.540  1.00  0.00     0.190 HD
ENDROOT
BRANCH   2   5
HETATM    5  N   UNL     1      40.403 -10.894   7.472  1.00  0.00    -0.262 N 
HETATM    6  C   UNL     1      39.617  -9.765   7.556  1.00  0.00     0.288 C 
HETATM    7  O   UNL     1      38.663  -9.571   6.806  1.00  0.00    -0.264 OA
HETATM    8  H   UNL     1      41.217 -11.046   8.062  1.00  0.00     0.190 HD
BRANCH   6   9
HETATM    9  C   UNL     1      40.000  -8.842   8.591  1.00  0.00     0.121 A 
HETATM   10  N   UNL     1      39.476  -7.582   8.677  1.00  0.00    -0.272 N 
HETATM   11  H   UNL     1      38.795  -7.160   8.052  1.00  0.00     0.189 HD
HETATM   12  N   UNL     1      39.930  -6.868   9.718  1.00  0.00    -0.174 NA
HETATM   13  C   UNL     1      40.808  -7.677  10.331  1.00  0.00     0.089 A 
HETATM   14  C   UNL     1      40.875  -8.927   9.655  1.00  0.00     0.071 A 
BRANCH  13  15
HETATM   15  C   UNL     1      41.543  -7.265  11.532  1.00  0.00    -0.006 A 
HETATM   16  C   UNL     1      41.439  -5.952  12.015  1.00  0.00     0.014 A 
HETATM   17  C   UNL     1      42.121  -5.559  13.171  1.00  0.00     0.001 A 
HETATM   18  C   UNL     1      42.918  -6.473  13.855  1.00  0.00     0.000 A 
HETATM   19  C   UNL     1      43.040  -7.778  13.383  1.00  0.00     0.001 A 
HETATM   20  C   UNL     1      42.357  -8.172  12.229  1.00  0.00     0.014 A 
ENDBRANCH  13  15
ENDBRANCH   6   9
ENDBRANCH   2   5
BRANCH   1  21
HETATM   21  C   UNL     1      40.723 -12.918   4.347  1.00  0.00     0.125 C 
HETATM   22  N   UNL     1      41.548 -13.902   4.158  1.00  0.00    -0.164 NA
HETATM   23  N   UNL     1      41.233 -14.866   3.201  1.00  0.00    -0.201 N 
HETATM   24  C   UNL     1      40.191 -14.692   2.270  1.00  0.00     0.245 C 
HETATM   25  C   UNL     1      39.627 -13.294   2.228  1.00  0.00     0.111 C 
HETATM   26  O   UNL     1      39.747 -15.527   1.482  1.00  0.00    -0.271 OA
HETATM   27  C   UNL     1      39.424 -12.773   3.624  1.00  0.00     0.076 C 
BRANCH  23  28
HETATM   28  C   UNL     1      42.084 -16.028   3.241  1.00  0.00     0.062 A 
HETATM   29  C   UNL     1      42.476 -16.640   4.443  1.00  0.00     0.038 A 
HETATM   30  C   UNL     1      43.307 -17.776   4.464  1.00  0.00    -0.060 A 
HETATM   31  C   UNL     1      43.681 -18.423   5.766  1.00  0.00     0.048 C 
HETATM   32  C   UNL     1      43.741 -18.329   3.258  1.00  0.00     0.007 A 
HETATM   33  C   UNL     1      43.361 -17.748   2.053  1.00  0.00     0.003 A 
HETATM   34  C   UNL     1      42.542 -16.614   2.046  1.00  0.00     0.032 A 
ENDBRANCH  23  28
ENDBRANCH   1  21
TORSDOF 5
ENDMDL
