MODEL 1
REMARK VINA RESULT:      -8.1      0.000      0.000
REMARK  7 active torsions:
REMARK  status: ('A' for Active; 'I' for Inactive)
REMARK    1  A    between atoms: N_3  and  C_4 
REMARK    2  A    between atoms: C_12  and  C_13 
REMARK       I    between atoms: C_13  and  N_14 
REMARK    3  A    between atoms: N_14  and  C_15 
REMARK    4  A    between atoms: C_15  and  C_16 
REMARK    5  A    between atoms: C_16  and  O_17 
REMARK    6  A    between atoms: C_16  and  C_18 
REMARK    7  A    between atoms: C_21  and  O_22 
ROOT
HETATM    1  C   UNL     1      41.193 -12.927   4.487  1.00  0.00     0.255 C 
HETATM    2  N   UNL     1      41.639 -13.525   3.333  1.00  0.00    -0.350 N 
HETATM    3  O   UNL     1      40.005 -12.673   4.669  1.00  0.00    -0.268 OA
HETATM    4  H   UNL     1      42.622 -13.706   3.197  1.00  0.00     0.163 HD
ENDROOT
BRANCH   2   5
HETATM    5  C   UNL     1      40.738 -13.809   2.209  1.00  0.00     0.114 C 
HETATM    6  C   UNL     1      41.350 -13.258   0.918  1.00  0.00     0.035 C 
BRANCH   5   7
HETATM    7  C   UNL     1      40.427 -15.330   2.145  1.00  0.00     0.173 C 
BRANCH   7   8
HETATM    8  O   UNL     1      39.117 -15.608   2.652  1.00  0.00    -0.389 OA
HETATM    9  H   UNL     1      38.835 -16.451   2.258  1.00  0.00     0.210 HD
ENDBRANCH   7   8
BRANCH   7  10
HETATM   10  C   UNL     1      41.479 -16.193   2.818  1.00  0.00    -0.028 A 
HETATM   11  C   UNL     1      42.486 -16.780   2.040  1.00  0.00     0.012 A 
HETATM   12  C   UNL     1      43.484 -17.555   2.635  1.00  0.00     0.037 A 
HETATM   13  C   UNL     1      43.504 -17.752   4.016  1.00  0.00     0.068 A 
HETATM   14  C   UNL     1      42.504 -17.176   4.799  1.00  0.00     0.037 A 
HETATM   15  C   UNL     1      41.498 -16.404   4.204  1.00  0.00     0.012 A 
BRANCH  13  16
HETATM   16  O   UNL     1      44.541 -18.521   4.466  1.00  0.00    -0.356 OA
HETATM   17  C   UNL     1      44.261 -19.889   4.727  1.00  0.00     0.210 C 
ENDBRANCH  13  16
ENDBRANCH   7  10
ENDBRANCH   5   7
ENDBRANCH   2   5
BRANCH   1  18
HETATM   18  C   UNL     1      42.181 -12.658   5.522  1.00  0.00     0.075 C 
HETATM   19  C   UNL     1      42.422 -11.557   6.342  1.00  0.00     0.051 C 
HETATM   20  C   UNL     1      41.674 -10.284   6.526  1.00  0.00     0.071 C 
HETATM   21  N   UNL     1      43.577 -11.862   7.075  1.00  0.00    -0.220 N 
HETATM   22  N   UNL     1      43.957 -13.155   6.882  1.00  0.00    -0.177 NA
HETATM   23  C   UNL     1      43.138 -13.608   5.940  1.00  0.00     0.158 C 
BRANCH  21  24
HETATM   24  C   UNL     1      44.352 -11.011   7.938  1.00  0.00     0.150 A 
HETATM   25  N   UNL     1      44.068 -10.967   9.268  1.00  0.00    -0.241 NA
HETATM   26  C   UNL     1      44.809 -10.139  10.036  1.00  0.00     0.119 A 
HETATM   27  C   UNL     1      45.832  -9.342   9.553  1.00  0.00     0.019 A 
HETATM   28  C   UNL     1      46.112  -9.390   8.194  1.00  0.00     0.005 A 
HETATM   29  C   UNL     1      45.364 -10.231   7.372  1.00  0.00     0.052 A 
ENDBRANCH  21  24
ENDBRANCH   1  18
TORSDOF 7
ENDMDL
MODEL 2
REMARK VINA RESULT:      -7.9      2.548      7.647
REMARK  7 active torsions:
REMARK  status: ('A' for Active; 'I' for Inactive)
REMARK    1  A    between atoms: N_3  and  C_4 
REMARK    2  A    between atoms: C_12  and  C_13 
REMARK       I    between atoms: C_13  and  N_14 
REMARK    3  A    between atoms: N_14  and  C_15 
REMARK    4  A    between atoms: C_15  and  C_16 
REMARK    5  A    between atoms: C_16  and  O_17 
REMARK    6  A    between atoms: C_16  and  C_18 
REMARK    7  A    between atoms: C_21  and  O_22 
ROOT
HETATM    1  C   UNL     1      41.600 -13.214   3.106  1.00  0.00     0.255 C 
HETATM    2  N   UNL     1      41.618 -12.758   4.402  1.00  0.00    -0.350 N 
HETATM    3  O   UNL     1      41.127 -12.548   2.189  1.00  0.00    -0.268 OA
HETATM    4  H   UNL     1      41.993 -13.332   5.142  1.00  0.00     0.163 HD
ENDROOT
BRANCH   2   5
HETATM    5  C   UNL     1      40.988 -11.488   4.785  1.00  0.00     0.114 C 
HETATM    6  C   UNL     1      40.197 -11.686   6.082  1.00  0.00     0.035 C 
BRANCH   5   7
HETATM    7  C   UNL     1      42.060 -10.367   4.881  1.00  0.00     0.173 C 
BRANCH   7   8
HETATM    8  O   UNL     1      42.785 -10.246   3.652  1.00  0.00    -0.389 OA
HETATM    9  H   UNL     1      43.726 -10.163   3.887  1.00  0.00     0.210 HD
ENDBRANCH   7   8
BRANCH   7  10
HETATM   10  C   UNL     1      42.995 -10.522   6.066  1.00  0.00    -0.028 A 
HETATM   11  C   UNL     1      42.795  -9.733   7.206  1.00  0.00     0.012 A 
HETATM   12  C   UNL     1      43.620  -9.874   8.324  1.00  0.00     0.037 A 
HETATM   13  C   UNL     1      44.656 -10.809   8.331  1.00  0.00     0.068 A 
HETATM   14  C   UNL     1      44.868 -11.596   7.199  1.00  0.00     0.037 A 
HETATM   15  C   UNL     1      44.044 -11.453   6.075  1.00  0.00     0.012 A 
BRANCH  13  16
HETATM   16  O   UNL     1      45.379 -10.849   9.490  1.00  0.00    -0.356 OA
HETATM   17  C   UNL     1      44.829 -10.177  10.614  1.00  0.00     0.210 C 
ENDBRANCH  13  16
ENDBRANCH   7  10
ENDBRANCH   5   7
ENDBRANCH   2   5
BRANCH   1  18
HETATM   18  C   UNL     1      42.223 -14.505   2.847  1.00  0.00     0.075 C 
HETATM   19  C   UNL     1      42.006 -15.784   3.357  1.00  0.00     0.051 C 
HETATM   20  C   UNL     1      40.970 -16.310   4.287  1.00  0.00     0.071 C 
HETATM   21  N   UNL     1      42.986 -16.604   2.784  1.00  0.00    -0.220 N 
HETATM   22  N   UNL     1      43.682 -15.942   1.819  1.00  0.00    -0.177 NA
HETATM   23  C   UNL     1      43.237 -14.692   1.884  1.00  0.00     0.158 C 
BRANCH  21  24
HETATM   24  C   UNL     1      43.320 -17.968   3.095  1.00  0.00     0.150 A 
HETATM   25  N   UNL     1      43.927 -18.257   4.279  1.00  0.00    -0.241 NA
HETATM   26  C   UNL     1      44.240 -19.549   4.519  1.00  0.00     0.119 A 
HETATM   27  C   UNL     1      43.980 -20.586   3.640  1.00  0.00     0.019 A 
HETATM   28  C   UNL     1      43.364 -20.282   2.434  1.00  0.00     0.005 A 
HETATM   29  C   UNL     1      43.032 -18.958   2.152  1.00  0.00     0.052 A 
ENDBRANCH  21  24
ENDBRANCH   1  18
TORSDOF 7
ENDMDL
MODEL 3
REMARK VINA RESULT:      -7.9      1.387      1.827
REMARK  7 active torsions:
REMARK  status: ('A' for Active; 'I' for Inactive)
REMARK    1  A    between atoms: N_3  and  C_4 
REMARK    2  A    between atoms: C_12  and  C_13 
REMARK       I    between atoms: C_13  and  N_14 
REMARK    3  A    between atoms: N_14  and  C_15 
REMARK    4  A    between atoms: C_15  and  C_16 
REMARK    5  A    between atoms: C_16  and  O_17 
REMARK    6  A    between atoms: C_16  and  C_18 
REMARK    7  A    between atoms: C_21  and  O_22 
ROOT
HETATM    1  C   UNL     1      41.464 -13.389   5.053  1.00  0.00     0.255 C 
HETATM    2  N   UNL     1      42.004 -13.502   3.794  1.00  0.00    -0.350 N 
HETATM    3  O   UNL     1      40.616 -14.174   5.469  1.00  0.00    -0.268 OA
HETATM    4  H   UNL     1      42.684 -12.833   3.466  1.00  0.00     0.163 HD
ENDROOT
BRANCH   2   5
HETATM    5  C   UNL     1      41.530 -14.509   2.836  1.00  0.00     0.114 C 
HETATM    6  C   UNL     1      40.554 -13.855   1.854  1.00  0.00     0.035 C 
BRANCH   5   7
HETATM    7  C   UNL     1      42.740 -15.194   2.140  1.00  0.00     0.173 C 
BRANCH   7   8
HETATM    8  O   UNL     1      42.509 -15.336   0.734  1.00  0.00    -0.389 OA
HETATM    9  H   UNL     1      42.067 -16.193   0.606  1.00  0.00     0.210 HD
ENDBRANCH   7   8
BRANCH   7  10
HETATM   10  C   UNL     1      43.137 -16.513   2.775  1.00  0.00    -0.028 A 
HETATM   11  C   UNL     1      43.053 -17.691   2.021  1.00  0.00     0.012 A 
HETATM   12  C   UNL     1      43.439 -18.916   2.568  1.00  0.00     0.037 A 
HETATM   13  C   UNL     1      43.926 -18.991   3.873  1.00  0.00     0.068 A 
HETATM   14  C   UNL     1      44.011 -17.826   4.635  1.00  0.00     0.037 A 
HETATM   15  C   UNL     1      43.618 -16.596   4.090  1.00  0.00     0.012 A 
BRANCH  13  16
HETATM   16  O   UNL     1      44.277 -20.249   4.279  1.00  0.00    -0.356 OA
HETATM   17  C   UNL     1      43.975 -20.599   5.622  1.00  0.00     0.210 C 
ENDBRANCH  13  16
ENDBRANCH   7  10
ENDBRANCH   5   7
ENDBRANCH   2   5
BRANCH   1  18
HETATM   18  C   UNL     1      41.984 -12.330   5.906  1.00  0.00     0.075 C 
HETATM   19  C   UNL     1      43.182 -12.171   6.600  1.00  0.00     0.051 C 
HETATM   20  C   UNL     1      44.420 -12.997   6.628  1.00  0.00     0.071 C 
HETATM   21  N   UNL     1      43.060 -10.977   7.323  1.00  0.00    -0.220 N 
HETATM   22  N   UNL     1      41.928 -10.305   6.977  1.00  0.00    -0.177 NA
HETATM   23  C   UNL     1      41.286 -11.129   6.157  1.00  0.00     0.158 C 
BRANCH  21  24
HETATM   24  C   UNL     1      43.934 -10.433   8.327  1.00  0.00     0.150 A 
HETATM   25  N   UNL     1      43.712 -10.724   9.638  1.00  0.00    -0.241 NA
HETATM   26  C   UNL     1      44.546 -10.174  10.548  1.00  0.00     0.119 A 
HETATM   27  C   UNL     1      45.604  -9.343  10.226  1.00  0.00     0.019 A 
HETATM   28  C   UNL     1      45.821  -9.049   8.887  1.00  0.00     0.005 A 
HETATM   29  C   UNL     1      44.977  -9.596   7.923  1.00  0.00     0.052 A 
ENDBRANCH  21  24
ENDBRANCH   1  18
TORSDOF 7
ENDMDL
MODEL 4
REMARK VINA RESULT:      -7.7      3.072      7.532
REMARK  7 active torsions:
REMARK  status: ('A' for Active; 'I' for Inactive)
REMARK    1  A    between atoms: N_3  and  C_4 
REMARK    2  A    between atoms: C_12  and  C_13 
REMARK       I    between atoms: C_13  and  N_14 
REMARK    3  A    between atoms: N_14  and  C_15 
REMARK    4  A    between atoms: C_15  and  C_16 
REMARK    5  A    between atoms: C_16  and  O_17 
REMARK    6  A    between atoms: C_16  and  C_18 
REMARK    7  A    between atoms: C_21  and  O_22 
ROOT
HETATM    1  C   UNL     1      42.465 -13.424   2.582  1.00  0.00     0.255 C 
HETATM    2  N   UNL     1      41.957 -13.492   3.857  1.00  0.00    -0.350 N 
HETATM    3  O   UNL     1      43.641 -13.676   2.337  1.00  0.00    -0.268 OA
HETATM    4  H   UNL     1      40.992 -13.260   4.038  1.00  0.00     0.163 HD
ENDROOT
BRANCH   2   5
HETATM    5  C   UNL     1      42.811 -13.778   5.017  1.00  0.00     0.114 C 
HETATM    6  C   UNL     1      42.711 -12.623   6.017  1.00  0.00     0.035 C 
BRANCH   5   7
HETATM    7  C   UNL     1      42.438 -15.158   5.628  1.00  0.00     0.173 C 
BRANCH   7   8
HETATM    8  O   UNL     1      42.890 -15.257   6.983  1.00  0.00    -0.389 OA
HETATM    9  H   UNL     1      42.233 -15.792   7.461  1.00  0.00     0.210 HD
ENDBRANCH   7   8
BRANCH   7  10
HETATM   10  C   UNL     1      42.908 -16.336   4.796  1.00  0.00    -0.028 A 
HETATM   11  C   UNL     1      44.012 -17.084   5.227  1.00  0.00     0.012 A 
HETATM   12  C   UNL     1      44.450 -18.191   4.497  1.00  0.00     0.037 A 
HETATM   13  C   UNL     1      43.792 -18.582   3.331  1.00  0.00     0.068 A 
HETATM   14  C   UNL     1      42.694 -17.842   2.890  1.00  0.00     0.037 A 
HETATM   15  C   UNL     1      42.257 -16.727   3.617  1.00  0.00     0.012 A 
BRANCH  13  16
HETATM   16  O   UNL     1      44.318 -19.687   2.723  1.00  0.00    -0.356 OA
HETATM   17  C   UNL     1      43.471 -20.392   1.825  1.00  0.00     0.210 C 
ENDBRANCH  13  16
ENDBRANCH   7  10
ENDBRANCH   5   7
ENDBRANCH   2   5
BRANCH   1  18
HETATM   18  C   UNL     1      41.533 -13.096   1.512  1.00  0.00     0.075 C 
HETATM   19  C   UNL     1      40.587 -13.845   0.813  1.00  0.00     0.051 C 
HETATM   20  C   UNL     1      40.115 -15.245   0.989  1.00  0.00     0.071 C 
HETATM   21  N   UNL     1      40.062 -12.993  -0.167  1.00  0.00    -0.220 N 
HETATM   22  N   UNL     1      40.501 -11.715   0.003  1.00  0.00    -0.177 NA
HETATM   23  C   UNL     1      41.391 -11.794   0.984  1.00  0.00     0.158 C 
BRANCH  21  24
HETATM   24  C   UNL     1      39.182 -13.306  -1.261  1.00  0.00     0.150 A 
HETATM   25  N   UNL     1      38.005 -12.633  -1.387  1.00  0.00    -0.241 NA
HETATM   26  C   UNL     1      37.200 -12.975  -2.418  1.00  0.00     0.119 A 
HETATM   27  C   UNL     1      37.503 -13.958  -3.344  1.00  0.00     0.019 A 
HETATM   28  C   UNL     1      38.703 -14.641  -3.205  1.00  0.00     0.005 A 
HETATM   29  C   UNL     1      39.554 -14.317  -2.150  1.00  0.00     0.052 A 
ENDBRANCH  21  24
ENDBRANCH   1  18
TORSDOF 7
ENDMDL
MODEL 5
REMARK VINA RESULT:      -7.6      3.451      9.165
REMARK  7 active torsions:
REMARK  status: ('A' for Active; 'I' for Inactive)
REMARK    1  A    between atoms: N_3  and  C_4 
REMARK    2  A    between atoms: C_12  and  C_13 
REMARK       I    between atoms: C_13  and  N_14 
REMARK    3  A    between atoms: N_14  and  C_15 
REMARK    4  A    between atoms: C_15  and  C_16 
REMARK    5  A    between atoms: C_16  and  O_17 
REMARK    6  A    between atoms: C_16  and  C_18 
REMARK    7  A    between atoms: C_21  and  O_22 
ROOT
HETATM    1  C   UNL     1      44.038 -11.646   7.000  1.00  0.00     0.255 C 
HETATM    2  N   UNL     1      44.362 -10.312   7.054  1.00  0.00    -0.350 N 
HETATM    3  O   UNL     1      44.144 -12.380   7.979  1.00  0.00    -0.268 OA
HETATM    4  H   UNL     1      44.286  -9.733   6.231  1.00  0.00     0.163 HD
ENDROOT
BRANCH   2   5
HETATM    5  C   UNL     1      44.945  -9.704   8.257  1.00  0.00     0.114 C 
HETATM    6  C   UNL     1      46.401  -9.325   7.978  1.00  0.00     0.035 C 
BRANCH   5   7
HETATM    7  C   UNL     1      44.073  -8.505   8.725  1.00  0.00     0.173 C 
BRANCH   7   8
HETATM    8  O   UNL     1      44.771  -7.267   8.554  1.00  0.00    -0.389 OA
HETATM    9  H   UNL     1      45.563  -7.460   8.023  1.00  0.00     0.210 HD
ENDBRANCH   7   8
BRANCH   7  10
HETATM   10  C   UNL     1      43.545  -8.655  10.139  1.00  0.00    -0.028 A 
HETATM   11  C   UNL     1      43.609  -9.906  10.767  1.00  0.00     0.012 A 
HETATM   12  C   UNL     1      43.158 -10.069  12.079  1.00  0.00     0.037 A 
HETATM   13  C   UNL     1      42.642  -8.988  12.794  1.00  0.00     0.068 A 
HETATM   14  C   UNL     1      42.568  -7.739  12.177  1.00  0.00     0.037 A 
HETATM   15  C   UNL     1      43.015  -7.574  10.859  1.00  0.00     0.012 A 
BRANCH  13  16
HETATM   16  O   UNL     1      42.247  -9.285  14.068  1.00  0.00    -0.356 OA
HETATM   17  C   UNL     1      41.750  -8.210  14.854  1.00  0.00     0.210 C 
ENDBRANCH  13  16
ENDBRANCH   7  10
ENDBRANCH   5   7
ENDBRANCH   2   5
BRANCH   1  18
HETATM   18  C   UNL     1      43.501 -12.150   5.744  1.00  0.00     0.075 C 
HETATM   19  C   UNL     1      42.567 -13.139   5.438  1.00  0.00     0.051 C 
HETATM   20  C   UNL     1      41.695 -13.972   6.310  1.00  0.00     0.071 C 
HETATM   21  N   UNL     1      42.536 -13.228   4.041  1.00  0.00    -0.220 N 
HETATM   22  N   UNL     1      43.266 -12.232   3.466  1.00  0.00    -0.177 NA
HETATM   23  C   UNL     1      43.853 -11.617   4.486  1.00  0.00     0.158 C 
BRANCH  21  24
HETATM   24  C   UNL     1      41.874 -14.198   3.210  1.00  0.00     0.150 A 
HETATM   25  N   UNL     1      40.609 -13.952   2.772  1.00  0.00    -0.241 NA
HETATM   26  C   UNL     1      40.018 -14.900   2.011  1.00  0.00     0.119 A 
HETATM   27  C   UNL     1      40.621 -16.093   1.653  1.00  0.00     0.019 A 
HETATM   28  C   UNL     1      41.910 -16.336   2.108  1.00  0.00     0.005 A 
HETATM   29  C   UNL     1      42.547 -15.382   2.899  1.00  0.00     0.052 A 
ENDBRANCH  21  24
ENDBRANCH   1  18
TORSDOF 7
ENDMDL
MODEL 6
REMARK VINA RESULT:      -7.6      1.747      2.058
REMARK  7 active torsions:
REMARK  status: ('A' for Active; 'I' for Inactive)
REMARK    1  A    between atoms: N_3  and  C_4 
REMARK    2  A    between atoms: C_12  and  C_13 
REMARK       I    between atoms: C_13  and  N_14 
REMARK    3  A    between atoms: N_14  and  C_15 
REMARK    4  A    between atoms: C_15  and  C_16 
REMARK    5  A    between atoms: C_16  and  O_17 
REMARK    6  A    between atoms: C_16  and  C_18 
REMARK    7  A    between atoms: C_21  and  O_22 
ROOT
HETATM    1  C   UNL     1      43.216 -11.815   4.638  1.00  0.00     0.255 C 
HETATM    2  N   UNL     1      42.639 -13.040   4.403  1.00  0.00    -0.350 N 
HETATM    3  O   UNL     1      43.359 -10.982   3.748  1.00  0.00    -0.268 OA
HETATM    4  H   UNL     1      42.551 -13.717   5.146  1.00  0.00     0.163 HD
ENDROOT
BRANCH   2   5
HETATM    5  C   UNL     1      42.243 -13.463   3.053  1.00  0.00     0.114 C 
HETATM    6  C   UNL     1      43.499 -13.708   2.211  1.00  0.00     0.035 C 
BRANCH   5   7
HETATM    7  C   UNL     1      41.303 -14.699   3.135  1.00  0.00     0.173 C 
BRANCH   7   8
HETATM    8  O   UNL     1      40.336 -14.538   4.178  1.00  0.00    -0.389 OA
HETATM    9  H   UNL     1      40.015 -13.621   4.126  1.00  0.00     0.210 HD
ENDBRANCH   7   8
BRANCH   7  10
HETATM   10  C   UNL     1      42.044 -16.016   3.261  1.00  0.00    -0.028 A 
HETATM   11  C   UNL     1      42.078 -16.893   2.169  1.00  0.00     0.012 A 
HETATM   12  C   UNL     1      42.776 -18.100   2.245  1.00  0.00     0.037 A 
HETATM   13  C   UNL     1      43.463 -18.453   3.407  1.00  0.00     0.068 A 
HETATM   14  C   UNL     1      43.433 -17.591   4.503  1.00  0.00     0.037 A 
HETATM   15  C   UNL     1      42.728 -16.382   4.430  1.00  0.00     0.012 A 
BRANCH  13  16
HETATM   16  O   UNL     1      44.111 -19.655   3.342  1.00  0.00    -0.356 OA
HETATM   17  C   UNL     1      43.811 -20.489   2.232  1.00  0.00     0.210 C 
ENDBRANCH  13  16
ENDBRANCH   7  10
ENDBRANCH   5   7
ENDBRANCH   2   5
BRANCH   1  18
HETATM   18  C   UNL     1      43.603 -11.516   6.010  1.00  0.00     0.075 C 
HETATM   19  C   UNL     1      42.953 -10.871   7.061  1.00  0.00     0.051 C 
HETATM   20  C   UNL     1      41.566 -10.346   7.186  1.00  0.00     0.071 C 
HETATM   21  N   UNL     1      43.877 -10.809   8.112  1.00  0.00    -0.220 N 
HETATM   22  N   UNL     1      44.995 -11.533   7.830  1.00  0.00    -0.177 NA
HETATM   23  C   UNL     1      44.832 -11.924   6.572  1.00  0.00     0.158 C 
BRANCH  21  24
HETATM   24  C   UNL     1      43.781 -10.103   9.362  1.00  0.00     0.150 A 
HETATM   25  N   UNL     1      43.730 -10.805  10.526  1.00  0.00    -0.241 NA
HETATM   26  C   UNL     1      43.619 -10.101  11.674  1.00  0.00     0.119 A 
HETATM   27  C   UNL     1      43.557  -8.719  11.732  1.00  0.00     0.019 A 
HETATM   28  C   UNL     1      43.606  -8.012  10.539  1.00  0.00     0.005 A 
HETATM   29  C   UNL     1      43.715  -8.708   9.337  1.00  0.00     0.052 A 
ENDBRANCH  21  24
ENDBRANCH   1  18
TORSDOF 7
ENDMDL
MODEL 7
REMARK VINA RESULT:      -7.6      3.984      9.541
REMARK  7 active torsions:
REMARK  status: ('A' for Active; 'I' for Inactive)
REMARK    1  A    between atoms: N_3  and  C_4 
REMARK    2  A    between atoms: C_12  and  C_13 
REMARK       I    between atoms: C_13  and  N_14 
REMARK    3  A    between atoms: N_14  and  C_15 
REMARK    4  A    between atoms: C_15  and  C_16 
REMARK    5  A    between atoms: C_16  and  O_17 
REMARK    6  A    between atoms: C_16  and  C_18 
REMARK    7  A    between atoms: C_21  and  O_22 
ROOT
HETATM    1  C   UNL     1      44.039 -11.230   7.474  1.00  0.00     0.255 C 
HETATM    2  N   UNL     1      43.095 -10.822   8.385  1.00  0.00    -0.350 N 
HETATM    3  O   UNL     1      45.165 -10.742   7.442  1.00  0.00    -0.268 OA
HETATM    4  H   UNL     1      42.169 -11.223   8.379  1.00  0.00     0.163 HD
ENDROOT
BRANCH   2   5
HETATM    5  C   UNL     1      43.343  -9.711   9.313  1.00  0.00     0.114 C 
HETATM    6  C   UNL     1      42.087  -8.842   9.411  1.00  0.00     0.035 C 
BRANCH   5   7
HETATM    7  C   UNL     1      43.823 -10.260  10.686  1.00  0.00     0.173 C 
BRANCH   7   8
HETATM    8  O   UNL     1      43.613 -11.673  10.775  1.00  0.00    -0.389 OA
HETATM    9  H   UNL     1      43.792 -11.927  11.697  1.00  0.00     0.210 HD
ENDBRANCH   7   8
BRANCH   7  10
HETATM   10  C   UNL     1      43.221  -9.532  11.874  1.00  0.00    -0.028 A 
HETATM   11  C   UNL     1      42.171 -10.129  12.584  1.00  0.00     0.012 A 
HETATM   12  C   UNL     1      41.615  -9.497  13.699  1.00  0.00     0.037 A 
HETATM   13  C   UNL     1      42.101  -8.264  14.134  1.00  0.00     0.068 A 
HETATM   14  C   UNL     1      43.142  -7.658  13.431  1.00  0.00     0.037 A 
HETATM   15  C   UNL     1      43.697  -8.287  12.309  1.00  0.00     0.012 A 
BRANCH  13  16
HETATM   16  O   UNL     1      41.475  -7.764  15.241  1.00  0.00    -0.356 OA
HETATM   17  C   UNL     1      41.838  -6.452  15.649  1.00  0.00     0.210 C 
ENDBRANCH  13  16
ENDBRANCH   7  10
ENDBRANCH   5   7
ENDBRANCH   2   5
BRANCH   1  18
HETATM   18  C   UNL     1      43.670 -12.317   6.577  1.00  0.00     0.075 C 
HETATM   19  C   UNL     1      43.328 -12.359   5.226  1.00  0.00     0.051 C 
HETATM   20  C   UNL     1      43.322 -11.302   4.179  1.00  0.00     0.071 C 
HETATM   21  N   UNL     1      42.985 -13.689   4.952  1.00  0.00    -0.220 N 
HETATM   22  N   UNL     1      43.264 -14.499   6.011  1.00  0.00    -0.177 NA
HETATM   23  C   UNL     1      43.645 -13.671   6.976  1.00  0.00     0.158 C 
BRANCH  21  24
HETATM   24  C   UNL     1      42.399 -14.246   3.762  1.00  0.00     0.150 A 
HETATM   25  N   UNL     1      41.068 -14.081   3.530  1.00  0.00    -0.241 NA
HETATM   26  C   UNL     1      40.557 -14.639   2.410  1.00  0.00     0.119 A 
HETATM   27  C   UNL     1      41.304 -15.359   1.494  1.00  0.00     0.019 A 
HETATM   28  C   UNL     1      42.659 -15.525   1.741  1.00  0.00     0.005 A 
HETATM   29  C   UNL     1      43.217 -14.967   2.889  1.00  0.00     0.052 A 
ENDBRANCH  21  24
ENDBRANCH   1  18
TORSDOF 7
ENDMDL
MODEL 8
REMARK VINA RESULT:      -7.5      2.123      2.709
REMARK  7 active torsions:
REMARK  status: ('A' for Active; 'I' for Inactive)
REMARK    1  A    between atoms: N_3  and  C_4 
REMARK    2  A    between atoms: C_12  and  C_13 
REMARK       I    between atoms: C_13  and  N_14 
REMARK    3  A    between atoms: N_14  and  C_15 
REMARK    4  A    between atoms: C_15  and  C_16 
REMARK    5  A    between atoms: C_16  and  O_17 
REMARK    6  A    between atoms: C_16  and  C_18 
REMARK    7  A    between atoms: C_21  and  O_22 
ROOT
HETATM    1  C   UNL     1      41.010 -13.747   5.133  1.00  0.00     0.255 C 
HETATM    2  N   UNL     1      41.020 -13.780   3.759  1.00  0.00    -0.350 N 
HETATM    3  O   UNL     1      41.090 -14.770   5.807  1.00  0.00    -0.268 OA
HETATM    4  H   UNL     1      40.932 -12.929   3.225  1.00  0.00     0.163 HD
ENDROOT
BRANCH   2   5
HETATM    5  C   UNL     1      41.030 -15.046   3.014  1.00  0.00     0.114 C 
HETATM    6  C   UNL     1      39.958 -14.999   1.922  1.00  0.00     0.035 C 
BRANCH   5   7
HETATM    7  C   UNL     1      42.457 -15.333   2.468  1.00  0.00     0.173 C 
BRANCH   7   8
HETATM    8  O   UNL     1      42.466 -15.332   1.036  1.00  0.00    -0.389 OA
HETATM    9  H   UNL     1      42.177 -16.217   0.752  1.00  0.00     0.210 HD
ENDBRANCH   7   8
BRANCH   7  10
HETATM   10  C   UNL     1      43.077 -16.599   3.028  1.00  0.00    -0.028 A 
HETATM   11  C   UNL     1      43.612 -16.586   4.323  1.00  0.00     0.012 A 
HETATM   12  C   UNL     1      44.163 -17.743   4.877  1.00  0.00     0.037 A 
HETATM   13  C   UNL     1      44.185 -18.938   4.156  1.00  0.00     0.068 A 
HETATM   14  C   UNL     1      43.661 -18.961   2.864  1.00  0.00     0.037 A 
HETATM   15  C   UNL     1      43.112 -17.799   2.304  1.00  0.00     0.012 A 
BRANCH  13  16
HETATM   16  O   UNL     1      44.744 -19.994   4.821  1.00  0.00    -0.356 OA
HETATM   17  C   UNL     1      43.853 -20.976   5.331  1.00  0.00     0.210 C 
ENDBRANCH  13  16
ENDBRANCH   7  10
ENDBRANCH   5   7
ENDBRANCH   2   5
BRANCH   1  18
HETATM   18  C   UNL     1      40.962 -12.437   5.766  1.00  0.00     0.075 C 
HETATM   19  C   UNL     1      41.939 -11.484   6.052  1.00  0.00     0.051 C 
HETATM   20  C   UNL     1      43.386 -11.424   5.710  1.00  0.00     0.071 C 
HETATM   21  N   UNL     1      41.291 -10.461   6.757  1.00  0.00    -0.220 N 
HETATM   22  N   UNL     1      39.942 -10.646   6.767  1.00  0.00    -0.177 NA
HETATM   23  C   UNL     1      39.763 -11.833   6.200  1.00  0.00     0.158 C 
BRANCH  21  24
HETATM   24  C   UNL     1      41.861  -9.326   7.432  1.00  0.00     0.150 A 
HETATM   25  N   UNL     1      42.476  -9.501   8.634  1.00  0.00    -0.241 NA
HETATM   26  C   UNL     1      42.978  -8.403   9.242  1.00  0.00     0.119 A 
HETATM   27  C   UNL     1      42.905  -7.125   8.716  1.00  0.00     0.019 A 
HETATM   28  C   UNL     1      42.273  -6.956   7.492  1.00  0.00     0.005 A 
HETATM   29  C   UNL     1      41.739  -8.066   6.841  1.00  0.00     0.052 A 
ENDBRANCH  21  24
ENDBRANCH   1  18
TORSDOF 7
ENDMDL
MODEL 9
REMARK VINA RESULT:      -7.3      3.680      6.795
REMARK  7 active torsions:
REMARK  status: ('A' for Active; 'I' for Inactive)
REMARK    1  A    between atoms: N_3  and  C_4 
REMARK    2  A    between atoms: C_12  and  C_13 
REMARK       I    between atoms: C_13  and  N_14 
REMARK    3  A    between atoms: N_14  and  C_15 
REMARK    4  A    between atoms: C_15  and  C_16 
REMARK    5  A    between atoms: C_16  and  O_17 
REMARK    6  A    between atoms: C_16  and  C_18 
REMARK    7  A    between atoms: C_21  and  O_22 
ROOT
HETATM    1  C   UNL     1      40.171 -13.367   4.529  1.00  0.00     0.255 C 
HETATM    2  N   UNL     1      40.838 -14.530   4.830  1.00  0.00    -0.350 N 
HETATM    3  O   UNL     1      39.862 -12.553   5.395  1.00  0.00    -0.268 OA
HETATM    4  H   UNL     1      41.063 -15.194   4.105  1.00  0.00     0.163 HD
ENDROOT
BRANCH   2   5
HETATM    5  C   UNL     1      41.139 -14.915   6.215  1.00  0.00     0.114 C 
HETATM    6  C   UNL     1      40.219 -16.066   6.631  1.00  0.00     0.035 C 
BRANCH   5   7
HETATM    7  C   UNL     1      42.650 -15.248   6.361  1.00  0.00     0.173 C 
BRANCH   7   8
HETATM    8  O   UNL     1      43.461 -14.159   5.906  1.00  0.00    -0.389 OA
HETATM    9  H   UNL     1      43.086 -13.348   6.292  1.00  0.00     0.210 HD
ENDBRANCH   7   8
BRANCH   7  10
HETATM   10  C   UNL     1      43.050 -16.553   5.700  1.00  0.00    -0.028 A 
HETATM   11  C   UNL     1      43.228 -16.593   4.310  1.00  0.00     0.012 A 
HETATM   12  C   UNL     1      43.624 -17.773   3.677  1.00  0.00     0.037 A 
HETATM   13  C   UNL     1      43.859 -18.933   4.414  1.00  0.00     0.068 A 
HETATM   14  C   UNL     1      43.680 -18.907   5.798  1.00  0.00     0.037 A 
HETATM   15  C   UNL     1      43.277 -17.726   6.435  1.00  0.00     0.012 A 
BRANCH  13  16
HETATM   16  O   UNL     1      44.251 -20.011   3.671  1.00  0.00    -0.356 OA
HETATM   17  C   UNL     1      43.654 -20.160   2.390  1.00  0.00     0.210 C 
ENDBRANCH  13  16
ENDBRANCH   7  10
ENDBRANCH   5   7
ENDBRANCH   2   5
BRANCH   1  18
HETATM   18  C   UNL     1      39.893 -13.104   3.124  1.00  0.00     0.075 C 
HETATM   19  C   UNL     1      40.452 -13.583   1.940  1.00  0.00     0.051 C 
HETATM   20  C   UNL     1      41.477 -14.631   1.689  1.00  0.00     0.071 C 
HETATM   21  N   UNL     1      39.820 -12.886   0.901  1.00  0.00    -0.220 N 
HETATM   22  N   UNL     1      38.784 -12.136   1.368  1.00  0.00    -0.177 NA
HETATM   23  C   UNL     1      38.854 -12.253   2.689  1.00  0.00     0.158 C 
BRANCH  21  24
HETATM   24  C   UNL     1      40.136 -12.872  -0.502  1.00  0.00     0.150 A 
HETATM   25  N   UNL     1      39.597 -13.817  -1.320  1.00  0.00    -0.241 NA
HETATM   26  C   UNL     1      39.938 -13.777  -2.627  1.00  0.00     0.119 A 
HETATM   27  C   UNL     1      40.793 -12.838  -3.176  1.00  0.00     0.019 A 
HETATM   28  C   UNL     1      41.340 -11.880  -2.334  1.00  0.00     0.005 A 
HETATM   29  C   UNL     1      41.014 -11.896  -0.979  1.00  0.00     0.052 A 
ENDBRANCH  21  24
ENDBRANCH   1  18
TORSDOF 7
ENDMDL
MODEL 10
REMARK VINA RESULT:      -7.3      4.979     10.255
REMARK  7 active torsions:
REMARK  status: ('A' for Active; 'I' for Inactive)
REMARK    1  A    between atoms: N_3  and  C_4 
REMARK    2  A    between atoms: C_12  and  C_13 
REMARK       I    between atoms: C_13  and  N_14 
REMARK    3  A    between atoms: N_14  and  C_15 
REMARK    4  A    between atoms: C_15  and  C_16 
REMARK    5  A    between atoms: C_16  and  O_17 
REMARK    6  A    between atoms: C_16  and  C_18 
REMARK    7  A    between atoms: C_21  and  O_22 
ROOT
HETATM    1  C   UNL     1      43.681  -9.489   8.837  1.00  0.00     0.255 C 
HETATM    2  N   UNL     1      42.669  -9.803   9.712  1.00  0.00    -0.350 N 
HETATM    3  O   UNL     1      44.401  -8.508   9.002  1.00  0.00    -0.268 OA
HETATM    4  H   UNL     1      42.076 -10.602   9.545  1.00  0.00     0.163 HD
ENDROOT
BRANCH   2   5
HETATM    5  C   UNL     1      42.326  -8.932  10.844  1.00  0.00     0.114 C 
HETATM    6  C   UNL     1      40.834  -8.592  10.788  1.00  0.00     0.035 C 
BRANCH   5   7
HETATM    7  C   UNL     1      42.757  -9.600  12.180  1.00  0.00     0.173 C 
BRANCH   7   8
HETATM    8  O   UNL     1      42.123 -10.872  12.345  1.00  0.00    -0.389 OA
HETATM    9  H   UNL     1      42.609 -11.340  13.047  1.00  0.00     0.210 HD
ENDBRANCH   7   8
BRANCH   7  10
HETATM   10  C   UNL     1      42.551  -8.714  13.394  1.00  0.00    -0.028 A 
HETATM   11  C   UNL     1      43.283  -7.524  13.509  1.00  0.00     0.012 A 
HETATM   12  C   UNL     1      43.094  -6.673  14.600  1.00  0.00     0.037 A 
HETATM   13  C   UNL     1      42.166  -6.986  15.594  1.00  0.00     0.068 A 
HETATM   14  C   UNL     1      41.436  -8.170  15.494  1.00  0.00     0.037 A 
HETATM   15  C   UNL     1      41.628  -9.028  14.402  1.00  0.00     0.012 A 
BRANCH  13  16
HETATM   16  O   UNL     1      42.075  -6.063  16.598  1.00  0.00    -0.356 OA
HETATM   17  C   UNL     1      41.885  -6.561  17.915  1.00  0.00     0.210 C 
ENDBRANCH  13  16
ENDBRANCH   7  10
ENDBRANCH   5   7
ENDBRANCH   2   5
BRANCH   1  18
HETATM   18  C   UNL     1      43.909 -10.405   7.728  1.00  0.00     0.075 C 
HETATM   19  C   UNL     1      43.082 -10.902   6.722  1.00  0.00     0.051 C 
HETATM   20  C   UNL     1      41.675 -10.584   6.357  1.00  0.00     0.071 C 
HETATM   21  N   UNL     1      43.855 -11.822   6.001  1.00  0.00    -0.220 N 
HETATM   22  N   UNL     1      45.158 -11.788   6.395  1.00  0.00    -0.177 NA
HETATM   23  C   UNL     1      45.171 -10.964   7.436  1.00  0.00     0.158 C 
BRANCH  21  24
HETATM   24  C   UNL     1      43.444 -12.739   4.972  1.00  0.00     0.150 A 
HETATM   25  N   UNL     1      43.034 -13.991   5.315  1.00  0.00    -0.241 NA
HETATM   26  C   UNL     1      42.677 -14.826   4.314  1.00  0.00     0.119 A 
HETATM   27  C   UNL     1      42.703 -14.483   2.974  1.00  0.00     0.019 A 
HETATM   28  C   UNL     1      43.125 -13.205   2.633  1.00  0.00     0.005 A 
HETATM   29  C   UNL     1      43.505 -12.321   3.640  1.00  0.00     0.052 A 
ENDBRANCH  21  24
ENDBRANCH   1  18
TORSDOF 7
ENDMDL
