MODEL 1
REMARK VINA RESULT:      -9.4      0.000      0.000
REMARK  5 active torsions:
REMARK  status: ('A' for Active; 'I' for Inactive)
REMARK    1  A    between atoms: C_5  and  C_6 
REMARK    2  A    between atoms: C_10  and  C_11 
REMARK       I    between atoms: C_11  and  N_12 
REMARK    3  A    between atoms: N_12  and  N_13 
REMARK       I    between atoms: N_13  and  C_14 
REMARK       I    between atoms: C_14  and  N_15 
REMARK    4  A    between atoms: N_15  and  C_16 
REMARK    5  A    between atoms: C_16  and  C_17 
ROOT
HETATM    1  C   UNL     1      42.997 -12.254   6.790  1.00  0.00     0.288 C 
HETATM    2  N   UNL     1      43.556 -11.965   8.015  1.00  0.00    -0.261 N 
HETATM    3  O   UNL     1      42.500 -11.386   6.075  1.00  0.00    -0.264 OA
HETATM    4  H   UNL     1      43.941 -12.664   8.646  1.00  0.00     0.190 HD
ENDROOT
BRANCH   2   5
HETATM    5  N   UNL     1      43.549 -10.645   8.491  1.00  0.00    -0.249 N 
HETATM    6  C   UNL     1      43.684 -10.492   9.853  1.00  0.00     0.334 C 
HETATM    7  N   UNL     1      43.557  -9.187  10.250  1.00  0.00    -0.341 N 
HETATM    8  O   UNL     1      43.919 -11.431  10.607  1.00  0.00    -0.246 OA
HETATM    9  H   UNL     1      43.655  -8.482   9.534  1.00  0.00     0.164 HD
HETATM   10  H   UNL     1      42.962  -9.999   7.971  1.00  0.00     0.192 HD
BRANCH   7  11
HETATM   11  C   UNL     1      43.819  -8.796  11.623  1.00  0.00     0.129 C 
BRANCH  11  12
HETATM   12  C   UNL     1      42.948  -7.608  12.075  1.00  0.00     0.004 C 
HETATM   13  C   UNL     1      41.468  -7.710  11.655  1.00  0.00     0.010 C 
HETATM   14  C   UNL     1      40.567  -8.598  12.531  1.00  0.00    -0.018 C 
HETATM   15  C   UNL     1      40.790  -8.330  14.024  1.00  0.00     0.004 C 
HETATM   16  C   UNL     1      40.678 -10.087  12.200  1.00  0.00     0.010 C 
HETATM   17  C   UNL     1      42.262  -8.351  14.421  1.00  0.00     0.001 C 
HETATM   18  C   UNL     1      43.074  -7.365  13.586  1.00  0.00     0.006 C 
ENDBRANCH  11  12
ENDBRANCH   7  11
ENDBRANCH   2   5
BRANCH   1  19
HETATM   19  C   UNL     1      43.032 -13.642   6.419  1.00  0.00     0.121 A 
HETATM   20  N   UNL     1      42.929 -14.642   7.343  1.00  0.00    -0.272 N 
HETATM   21  N   UNL     1      43.003 -15.877   6.828  1.00  0.00    -0.174 NA
HETATM   22  H   UNL     1      42.811 -14.536   8.346  1.00  0.00     0.189 HD
HETATM   23  C   UNL     1      43.156 -15.690   5.506  1.00  0.00     0.089 A 
HETATM   24  C   UNL     1      43.173 -14.297   5.211  1.00  0.00     0.071 A 
BRANCH  23  25
HETATM   25  C   UNL     1      43.303 -16.813   4.573  1.00  0.00    -0.006 A 
HETATM   26  C   UNL     1      44.049 -17.949   4.915  1.00  0.00     0.014 A 
HETATM   27  C   UNL     1      44.159 -19.028   4.029  1.00  0.00     0.007 A 
HETATM   28  C   UNL     1      43.535 -18.988   2.779  1.00  0.00    -0.062 A 
HETATM   29  C   UNL     1      43.613 -20.158   1.845  1.00  0.00     0.048 C 
HETATM   30  C   UNL     1      42.787 -17.858   2.433  1.00  0.00     0.007 A 
HETATM   31  C   UNL     1      42.678 -16.780   3.319  1.00  0.00     0.014 A 
ENDBRANCH  23  25
ENDBRANCH   1  19
TORSDOF 5
ENDMDL
MODEL 2
REMARK VINA RESULT:      -9.2      1.427     11.048
REMARK  5 active torsions:
REMARK  status: ('A' for Active; 'I' for Inactive)
REMARK    1  A    between atoms: C_5  and  C_6 
REMARK    2  A    between atoms: C_10  and  C_11 
REMARK       I    between atoms: C_11  and  N_12 
REMARK    3  A    between atoms: N_12  and  N_13 
REMARK       I    between atoms: N_13  and  C_14 
REMARK       I    between atoms: C_14  and  N_15 
REMARK    4  A    between atoms: N_15  and  C_16 
REMARK    5  A    between atoms: C_16  and  C_17 
ROOT
HETATM    1  C   UNL     1      44.431 -10.862   8.547  1.00  0.00     0.288 C 
HETATM    2  N   UNL     1      43.487 -11.771   8.126  1.00  0.00    -0.261 N 
HETATM    3  O   UNL     1      45.566 -10.830   8.077  1.00  0.00    -0.264 OA
HETATM    4  H   UNL     1      42.553 -11.848   8.521  1.00  0.00     0.190 HD
ENDROOT
BRANCH   2   5
HETATM    5  N   UNL     1      43.818 -12.715   7.142  1.00  0.00    -0.249 N 
HETATM    6  C   UNL     1      42.826 -13.018   6.235  1.00  0.00     0.334 C 
HETATM    7  N   UNL     1      43.187 -14.024   5.379  1.00  0.00    -0.341 N 
HETATM    8  O   UNL     1      41.754 -12.420   6.199  1.00  0.00    -0.246 OA
HETATM    9  H   UNL     1      44.171 -14.235   5.314  1.00  0.00     0.164 HD
HETATM   10  H   UNL     1      44.463 -13.442   7.438  1.00  0.00     0.192 HD
BRANCH   7  11
HETATM   11  C   UNL     1      42.343 -14.385   4.254  1.00  0.00     0.129 C 
BRANCH  11  12
HETATM   12  C   UNL     1      41.744 -15.798   4.394  1.00  0.00     0.004 C 
HETATM   13  C   UNL     1      41.367 -16.461   3.053  1.00  0.00     0.010 C 
HETATM   14  C   UNL     1      42.516 -17.115   2.265  1.00  0.00    -0.018 C 
HETATM   15  C   UNL     1      43.407 -17.970   3.172  1.00  0.00     0.004 C 
HETATM   16  C   UNL     1      43.334 -16.116   1.446  1.00  0.00     0.010 C 
HETATM   17  C   UNL     1      43.853 -17.237   4.434  1.00  0.00     0.001 C 
HETATM   18  C   UNL     1      42.656 -16.714   5.221  1.00  0.00     0.006 C 
ENDBRANCH  11  12
ENDBRANCH   7  11
ENDBRANCH   2   5
BRANCH   1  19
HETATM   19  C   UNL     1      43.991  -9.964   9.580  1.00  0.00     0.121 A 
HETATM   20  N   UNL     1      43.986  -8.609   9.408  1.00  0.00    -0.272 N 
HETATM   21  N   UNL     1      43.568  -7.920  10.479  1.00  0.00    -0.174 NA
HETATM   22  H   UNL     1      44.265  -8.099   8.575  1.00  0.00     0.189 HD
HETATM   23  C   UNL     1      43.277  -8.856  11.397  1.00  0.00     0.089 A 
HETATM   24  C   UNL     1      43.526 -10.153  10.866  1.00  0.00     0.071 A 
BRANCH  23  25
HETATM   25  C   UNL     1      42.801  -8.505  12.741  1.00  0.00    -0.006 A 
HETATM   26  C   UNL     1      43.363  -7.438  13.455  1.00  0.00     0.014 A 
HETATM   27  C   UNL     1      42.883  -7.093  14.725  1.00  0.00     0.007 A 
HETATM   28  C   UNL     1      41.839  -7.815  15.310  1.00  0.00    -0.062 A 
HETATM   29  C   UNL     1      41.292  -7.423  16.650  1.00  0.00     0.048 C 
HETATM   30  C   UNL     1      41.273  -8.880  14.601  1.00  0.00     0.007 A 
HETATM   31  C   UNL     1      41.754  -9.224  13.333  1.00  0.00     0.014 A 
ENDBRANCH  23  25
ENDBRANCH   1  19
TORSDOF 5
ENDMDL
MODEL 3
REMARK VINA RESULT:      -9.1      1.538      2.345
REMARK  5 active torsions:
REMARK  status: ('A' for Active; 'I' for Inactive)
REMARK    1  A    between atoms: C_5  and  C_6 
REMARK    2  A    between atoms: C_10  and  C_11 
REMARK       I    between atoms: C_11  and  N_12 
REMARK    3  A    between atoms: N_12  and  N_13 
REMARK       I    between atoms: N_13  and  C_14 
REMARK       I    between atoms: C_14  and  N_15 
REMARK    4  A    between atoms: N_15  and  C_16 
REMARK    5  A    between atoms: C_16  and  C_17 
ROOT
HETATM    1  C   UNL     1      44.006 -11.451   7.699  1.00  0.00     0.288 C 
HETATM    2  N   UNL     1      43.111 -10.483   8.094  1.00  0.00    -0.261 N 
HETATM    3  O   UNL     1      45.187 -11.431   8.041  1.00  0.00    -0.264 OA
HETATM    4  H   UNL     1      42.138 -10.451   7.799  1.00  0.00     0.190 HD
ENDROOT
BRANCH   2   5
HETATM    5  N   UNL     1      43.544  -9.418   8.898  1.00  0.00    -0.249 N 
HETATM    6  C   UNL     1      42.707  -9.058   9.931  1.00  0.00     0.334 C 
HETATM    7  N   UNL     1      43.143  -7.944  10.597  1.00  0.00    -0.341 N 
HETATM    8  O   UNL     1      41.699  -9.696  10.221  1.00  0.00    -0.246 OA
HETATM    9  H   UNL     1      44.109  -7.683  10.462  1.00  0.00     0.164 HD
HETATM   10  H   UNL     1      44.080  -8.701   8.417  1.00  0.00     0.192 HD
BRANCH   7  11
HETATM   11  C   UNL     1      42.485  -7.494  11.810  1.00  0.00     0.129 C 
BRANCH  11  12
HETATM   12  C   UNL     1      43.115  -8.094  13.082  1.00  0.00     0.004 C 
HETATM   13  C   UNL     1      43.382  -7.067  14.201  1.00  0.00     0.010 C 
HETATM   14  C   UNL     1      42.179  -6.680  15.078  1.00  0.00    -0.018 C 
HETATM   15  C   UNL     1      41.383  -7.913  15.520  1.00  0.00     0.004 C 
HETATM   16  C   UNL     1      41.278  -5.624  14.438  1.00  0.00     0.010 C 
HETATM   17  C   UNL     1      41.039  -8.847  14.365  1.00  0.00     0.001 C 
HETATM   18  C   UNL     1      42.292  -9.278  13.610  1.00  0.00     0.006 C 
ENDBRANCH  11  12
ENDBRANCH   7  11
ENDBRANCH   2   5
BRANCH   1  19
HETATM   19  C   UNL     1      43.459 -12.476   6.854  1.00  0.00     0.121 A 
HETATM   20  N   UNL     1      42.129 -12.531   6.549  1.00  0.00    -0.272 N 
HETATM   21  N   UNL     1      41.785 -13.564   5.767  1.00  0.00    -0.174 NA
HETATM   22  H   UNL     1      41.406 -11.887   6.855  1.00  0.00     0.189 HD
HETATM   23  C   UNL     1      42.935 -14.219   5.538  1.00  0.00     0.089 A 
HETATM   24  C   UNL     1      44.011 -13.561   6.200  1.00  0.00     0.071 A 
BRANCH  23  25
HETATM   25  C   UNL     1      42.985 -15.444   4.730  1.00  0.00    -0.006 A 
HETATM   26  C   UNL     1      42.244 -15.564   3.547  1.00  0.00     0.014 A 
HETATM   27  C   UNL     1      42.321 -16.726   2.768  1.00  0.00     0.007 A 
HETATM   28  C   UNL     1      43.130 -17.794   3.163  1.00  0.00    -0.062 A 
HETATM   29  C   UNL     1      43.250 -19.022   2.312  1.00  0.00     0.048 C 
HETATM   30  C   UNL     1      43.873 -17.679   4.343  1.00  0.00     0.007 A 
HETATM   31  C   UNL     1      43.795 -16.519   5.120  1.00  0.00     0.014 A 
ENDBRANCH  23  25
ENDBRANCH   1  19
TORSDOF 5
ENDMDL
MODEL 4
REMARK VINA RESULT:      -8.6      2.247     10.839
REMARK  5 active torsions:
REMARK  status: ('A' for Active; 'I' for Inactive)
REMARK    1  A    between atoms: C_5  and  C_6 
REMARK    2  A    between atoms: C_10  and  C_11 
REMARK       I    between atoms: C_11  and  N_12 
REMARK    3  A    between atoms: N_12  and  N_13 
REMARK       I    between atoms: N_13  and  C_14 
REMARK       I    between atoms: C_14  and  N_15 
REMARK    4  A    between atoms: N_15  and  C_16 
REMARK    5  A    between atoms: C_16  and  C_17 
ROOT
HETATM    1  C   UNL     1      43.919 -11.878   5.139  1.00  0.00     0.288 C 
HETATM    2  N   UNL     1      43.179 -13.031   5.275  1.00  0.00    -0.261 N 
HETATM    3  O   UNL     1      44.341 -11.494   4.050  1.00  0.00    -0.264 OA
HETATM    4  H   UNL     1      42.848 -13.395   6.165  1.00  0.00     0.190 HD
ENDROOT
BRANCH   2   5
HETATM    5  N   UNL     1      42.904 -13.820   4.148  1.00  0.00    -0.249 N 
HETATM    6  C   UNL     1      42.895 -15.183   4.350  1.00  0.00     0.334 C 
HETATM    7  N   UNL     1      42.730 -15.886   3.187  1.00  0.00    -0.341 N 
HETATM    8  O   UNL     1      42.999 -15.690   5.464  1.00  0.00    -0.246 OA
HETATM    9  H   UNL     1      42.372 -15.375   2.394  1.00  0.00     0.164 HD
HETATM   10  H   UNL     1      43.241 -13.449   3.264  1.00  0.00     0.192 HD
BRANCH   7  11
HETATM   11  C   UNL     1      42.541 -17.325   3.204  1.00  0.00     0.129 C 
BRANCH  11  12
HETATM   12  C   UNL     1      43.811 -18.094   2.793  1.00  0.00     0.004 C 
HETATM   13  C   UNL     1      44.772 -18.401   3.960  1.00  0.00     0.010 C 
HETATM   14  C   UNL     1      44.419 -19.615   4.837  1.00  0.00    -0.018 C 
HETATM   15  C   UNL     1      44.037 -20.832   3.987  1.00  0.00     0.004 C 
HETATM   16  C   UNL     1      43.360 -19.310   5.897  1.00  0.00     0.010 C 
HETATM   17  C   UNL     1      42.999 -20.512   2.917  1.00  0.00     0.001 C 
HETATM   18  C   UNL     1      43.466 -19.372   2.017  1.00  0.00     0.006 C 
ENDBRANCH  11  12
ENDBRANCH   7  11
ENDBRANCH   2   5
BRANCH   1  19
HETATM   19  C   UNL     1      44.166 -11.167   6.363  1.00  0.00     0.121 A 
HETATM   20  N   UNL     1      45.431 -10.879   6.791  1.00  0.00    -0.272 N 
HETATM   21  N   UNL     1      45.480 -10.230   7.963  1.00  0.00    -0.174 NA
HETATM   22  H   UNL     1      46.301 -11.109   6.321  1.00  0.00     0.189 HD
HETATM   23  C   UNL     1      44.196 -10.075   8.324  1.00  0.00     0.089 A 
HETATM   24  C   UNL     1      43.340 -10.646   7.340  1.00  0.00     0.071 A 
BRANCH  23  25
HETATM   25  C   UNL     1      43.816  -9.421   9.583  1.00  0.00    -0.006 A 
HETATM   26  C   UNL     1      43.843 -10.116  10.800  1.00  0.00     0.014 A 
HETATM   27  C   UNL     1      43.507  -9.475  11.999  1.00  0.00     0.007 A 
HETATM   28  C   UNL     1      43.125  -8.131  12.003  1.00  0.00    -0.062 A 
HETATM   29  C   UNL     1      42.806  -7.428  13.289  1.00  0.00     0.048 C 
HETATM   30  C   UNL     1      43.098  -7.432  10.792  1.00  0.00     0.007 A 
HETATM   31  C   UNL     1      43.433  -8.073   9.595  1.00  0.00     0.014 A 
ENDBRANCH  23  25
ENDBRANCH   1  19
TORSDOF 5
ENDMDL
MODEL 5
REMARK VINA RESULT:      -8.5      2.073      2.714
REMARK  5 active torsions:
REMARK  status: ('A' for Active; 'I' for Inactive)
REMARK    1  A    between atoms: C_5  and  C_6 
REMARK    2  A    between atoms: C_10  and  C_11 
REMARK       I    between atoms: C_11  and  N_12 
REMARK    3  A    between atoms: N_12  and  N_13 
REMARK       I    between atoms: N_13  and  C_14 
REMARK       I    between atoms: C_14  and  N_15 
REMARK    4  A    between atoms: N_15  and  C_16 
REMARK    5  A    between atoms: C_16  and  C_17 
ROOT
HETATM    1  C   UNL     1      40.726 -12.509   5.888  1.00  0.00     0.288 C 
HETATM    2  N   UNL     1      41.281 -11.250   5.941  1.00  0.00    -0.261 N 
HETATM    3  O   UNL     1      39.683 -12.791   6.475  1.00  0.00    -0.264 OA
HETATM    4  H   UNL     1      42.160 -10.995   5.498  1.00  0.00     0.190 HD
ENDROOT
BRANCH   2   5
HETATM    5  N   UNL     1      40.663 -10.247   6.703  1.00  0.00    -0.249 N 
HETATM    6  C   UNL     1      41.417  -9.710   7.723  1.00  0.00     0.334 C 
HETATM    7  N   UNL     1      40.709  -8.820   8.487  1.00  0.00    -0.341 N 
HETATM    8  O   UNL     1      42.599  -9.991   7.894  1.00  0.00    -0.246 OA
HETATM    9  H   UNL     1      39.857  -8.456   8.088  1.00  0.00     0.164 HD
HETATM   10  H   UNL     1      39.659 -10.349   6.824  1.00  0.00     0.192 HD
BRANCH   7  11
HETATM   11  C   UNL     1      41.365  -8.032   9.515  1.00  0.00     0.129 C 
BRANCH  11  12
HETATM   12  C   UNL     1      41.010  -8.503  10.938  1.00  0.00     0.004 C 
HETATM   13  C   UNL     1      41.868  -9.679  11.449  1.00  0.00     0.010 C 
HETATM   14  C   UNL     1      43.259  -9.323  12.001  1.00  0.00    -0.018 C 
HETATM   15  C   UNL     1      43.199  -8.118  12.948  1.00  0.00     0.004 C 
HETATM   16  C   UNL     1      44.314  -9.134  10.911  1.00  0.00     0.010 C 
HETATM   17  C   UNL     1      42.438  -6.934  12.359  1.00  0.00     0.001 C 
HETATM   18  C   UNL     1      41.029  -7.337  11.935  1.00  0.00     0.006 C 
ENDBRANCH  11  12
ENDBRANCH   7  11
ENDBRANCH   2   5
BRANCH   1  19
HETATM   19  C   UNL     1      41.459 -13.464   5.104  1.00  0.00     0.121 A 
HETATM   20  N   UNL     1      42.324 -13.081   4.118  1.00  0.00    -0.272 N 
HETATM   21  N   UNL     1      42.907 -14.100   3.471  1.00  0.00    -0.174 NA
HETATM   22  H   UNL     1      42.550 -12.131   3.840  1.00  0.00     0.189 HD
HETATM   23  C   UNL     1      42.415 -15.205   4.056  1.00  0.00     0.089 A 
HETATM   24  C   UNL     1      41.505 -14.844   5.091  1.00  0.00     0.071 A 
BRANCH  23  25
HETATM   25  C   UNL     1      42.792 -16.553   3.613  1.00  0.00    -0.006 A 
HETATM   26  C   UNL     1      42.222 -17.128   2.470  1.00  0.00     0.014 A 
HETATM   27  C   UNL     1      42.610 -18.403   2.039  1.00  0.00     0.007 A 
HETATM   28  C   UNL     1      43.567 -19.132   2.751  1.00  0.00    -0.062 A 
HETATM   29  C   UNL     1      44.018 -20.479   2.270  1.00  0.00     0.048 C 
HETATM   30  C   UNL     1      44.141 -18.563   3.892  1.00  0.00     0.007 A 
HETATM   31  C   UNL     1      43.752 -17.289   4.321  1.00  0.00     0.014 A 
ENDBRANCH  23  25
ENDBRANCH   1  19
TORSDOF 5
ENDMDL
MODEL 6
REMARK VINA RESULT:      -8.4      2.595      3.242
REMARK  5 active torsions:
REMARK  status: ('A' for Active; 'I' for Inactive)
REMARK    1  A    between atoms: C_5  and  C_6 
REMARK    2  A    between atoms: C_10  and  C_11 
REMARK       I    between atoms: C_11  and  N_12 
REMARK    3  A    between atoms: N_12  and  N_13 
REMARK       I    between atoms: N_13  and  C_14 
REMARK       I    between atoms: C_14  and  N_15 
REMARK    4  A    between atoms: N_15  and  C_16 
REMARK    5  A    between atoms: C_16  and  C_17 
ROOT
HETATM    1  C   UNL     1      39.426 -11.213   6.854  1.00  0.00     0.288 C 
HETATM    2  N   UNL     1      40.459 -10.628   7.551  1.00  0.00    -0.261 N 
HETATM    3  O   UNL     1      38.247 -10.970   7.101  1.00  0.00    -0.264 OA
HETATM    4  H   UNL     1      41.442 -10.836   7.396  1.00  0.00     0.190 HD
ENDROOT
BRANCH   2   5
HETATM    5  N   UNL     1      40.177  -9.736   8.597  1.00  0.00    -0.249 N 
HETATM    6  C   UNL     1      41.265  -9.250   9.289  1.00  0.00     0.334 C 
HETATM    7  N   UNL     1      40.904  -8.477  10.360  1.00  0.00    -0.341 N 
HETATM    8  O   UNL     1      42.423  -9.476   8.948  1.00  0.00    -0.246 OA
HETATM    9  H   UNL     1      39.957  -8.129  10.371  1.00  0.00     0.164 HD
HETATM   10  H   UNL     1      39.307  -9.909   9.093  1.00  0.00     0.192 HD
BRANCH   7  11
HETATM   11  C   UNL     1      41.900  -7.748  11.123  1.00  0.00     0.129 C 
BRANCH  11  12
HETATM   12  C   UNL     1      42.652  -8.646  12.124  1.00  0.00     0.004 C 
HETATM   13  C   UNL     1      43.486  -7.873  13.166  1.00  0.00     0.010 C 
HETATM   14  C   UNL     1      42.720  -7.308  14.375  1.00  0.00    -0.018 C 
HETATM   15  C   UNL     1      41.758  -8.343  14.968  1.00  0.00     0.004 C 
HETATM   16  C   UNL     1      42.014  -5.984  14.080  1.00  0.00     0.010 C 
HETATM   17  C   UNL     1      40.870  -9.003  13.918  1.00  0.00     0.001 C 
HETATM   18  C   UNL     1      41.703  -9.639  12.809  1.00  0.00     0.006 C 
ENDBRANCH  11  12
ENDBRANCH   7  11
ENDBRANCH   2   5
BRANCH   1  19
HETATM   19  C   UNL     1      39.831 -12.133   5.826  1.00  0.00     0.121 A 
HETATM   20  N   UNL     1      39.412 -12.004   4.533  1.00  0.00    -0.272 N 
HETATM   21  N   UNL     1      39.866 -12.959   3.709  1.00  0.00    -0.174 NA
HETATM   22  H   UNL     1      38.807 -11.280   4.156  1.00  0.00     0.189 HD
HETATM   23  C   UNL     1      40.623 -13.752   4.487  1.00  0.00     0.089 A 
HETATM   24  C   UNL     1      40.629 -13.260   5.823  1.00  0.00     0.071 A 
BRANCH  23  25
HETATM   25  C   UNL     1      41.291 -14.948   3.960  1.00  0.00    -0.006 A 
HETATM   26  C   UNL     1      40.805 -15.612   2.826  1.00  0.00     0.014 A 
HETATM   27  C   UNL     1      41.466 -16.736   2.315  1.00  0.00     0.007 A 
HETATM   28  C   UNL     1      42.621 -17.224   2.934  1.00  0.00    -0.062 A 
HETATM   29  C   UNL     1      43.357 -18.399   2.366  1.00  0.00     0.048 C 
HETATM   30  C   UNL     1      43.112 -16.564   4.064  1.00  0.00     0.007 A 
HETATM   31  C   UNL     1      42.450 -15.442   4.575  1.00  0.00     0.014 A 
ENDBRANCH  23  25
ENDBRANCH   1  19
TORSDOF 5
ENDMDL
MODEL 7
REMARK VINA RESULT:      -8.1      7.113      9.461
REMARK  5 active torsions:
REMARK  status: ('A' for Active; 'I' for Inactive)
REMARK    1  A    between atoms: C_5  and  C_6 
REMARK    2  A    between atoms: C_10  and  C_11 
REMARK       I    between atoms: C_11  and  N_12 
REMARK    3  A    between atoms: N_12  and  N_13 
REMARK       I    between atoms: N_13  and  C_14 
REMARK       I    between atoms: C_14  and  N_15 
REMARK    4  A    between atoms: N_15  and  C_16 
REMARK    5  A    between atoms: C_16  and  C_17 
ROOT
HETATM    1  C   UNL     1      42.649 -12.197   2.569  1.00  0.00     0.288 C 
HETATM    2  N   UNL     1      41.458 -11.781   2.019  1.00  0.00    -0.261 N 
HETATM    3  O   UNL     1      43.468 -11.407   3.035  1.00  0.00    -0.264 OA
HETATM    4  H   UNL     1      40.777 -12.405   1.593  1.00  0.00     0.190 HD
ENDROOT
BRANCH   2   5
HETATM    5  N   UNL     1      41.158 -10.412   1.958  1.00  0.00    -0.249 N 
HETATM    6  C   UNL     1      41.295  -9.815   0.724  1.00  0.00     0.334 C 
HETATM    7  N   UNL     1      41.093  -8.461   0.769  1.00  0.00    -0.341 N 
HETATM    8  O   UNL     1      41.543 -10.451  -0.297  1.00  0.00    -0.246 OA
HETATM    9  H   UNL     1      40.620  -8.099   1.583  1.00  0.00     0.164 HD
HETATM   10  H   UNL     1      41.380  -9.881   2.796  1.00  0.00     0.192 HD
BRANCH   7  11
HETATM   11  C   UNL     1      41.041  -7.674  -0.449  1.00  0.00     0.129 C 
BRANCH  11  12
HETATM   12  C   UNL     1      42.395  -7.026  -0.793  1.00  0.00     0.004 C 
HETATM   13  C   UNL     1      43.166  -7.733  -1.926  1.00  0.00     0.010 C 
HETATM   14  C   UNL     1      42.733  -7.396  -3.364  1.00  0.00    -0.018 C 
HETATM   15  C   UNL     1      42.552  -5.887  -3.560  1.00  0.00     0.004 C 
HETATM   16  C   UNL     1      41.503  -8.179  -3.825  1.00  0.00     0.010 C 
HETATM   17  C   UNL     1      41.687  -5.244  -2.481  1.00  0.00     0.001 C 
HETATM   18  C   UNL     1      42.241  -5.527  -1.088  1.00  0.00     0.006 C 
ENDBRANCH  11  12
ENDBRANCH   7  11
ENDBRANCH   2   5
BRANCH   1  19
HETATM   19  C   UNL     1      42.863 -13.618   2.550  1.00  0.00     0.121 A 
HETATM   20  N   UNL     1      42.810 -14.343   1.394  1.00  0.00    -0.272 N 
HETATM   21  N   UNL     1      43.011 -15.658   1.559  1.00  0.00    -0.174 NA
HETATM   22  H   UNL     1      42.633 -13.989   0.459  1.00  0.00     0.189 HD
HETATM   23  C   UNL     1      43.212 -15.811   2.879  1.00  0.00     0.089 A 
HETATM   24  C   UNL     1      43.133 -14.549   3.534  1.00  0.00     0.071 A 
BRANCH  23  25
HETATM   25  C   UNL     1      43.449 -17.129   3.481  1.00  0.00    -0.006 A 
HETATM   26  C   UNL     1      43.591 -18.276   2.688  1.00  0.00     0.014 A 
HETATM   27  C   UNL     1      43.845 -19.524   3.271  1.00  0.00     0.007 A 
HETATM   28  C   UNL     1      43.950 -19.652   4.659  1.00  0.00    -0.062 A 
HETATM   29  C   UNL     1      44.264 -20.977   5.285  1.00  0.00     0.048 C 
HETATM   30  C   UNL     1      43.810 -18.511   5.455  1.00  0.00     0.007 A 
HETATM   31  C   UNL     1      43.556 -17.265   4.872  1.00  0.00     0.014 A 
ENDBRANCH  23  25
ENDBRANCH   1  19
TORSDOF 5
ENDMDL
MODEL 8
REMARK VINA RESULT:      -8.0      2.345     11.052
REMARK  5 active torsions:
REMARK  status: ('A' for Active; 'I' for Inactive)
REMARK    1  A    between atoms: C_5  and  C_6 
REMARK    2  A    between atoms: C_10  and  C_11 
REMARK       I    between atoms: C_11  and  N_12 
REMARK    3  A    between atoms: N_12  and  N_13 
REMARK       I    between atoms: N_13  and  C_14 
REMARK       I    between atoms: C_14  and  N_15 
REMARK    4  A    between atoms: N_15  and  C_16 
REMARK    5  A    between atoms: C_16  and  C_17 
ROOT
HETATM    1  C   UNL     1      41.935  -9.581   7.666  1.00  0.00     0.288 C 
HETATM    2  N   UNL     1      41.642 -10.840   7.193  1.00  0.00    -0.261 N 
HETATM    3  O   UNL     1      41.953  -8.593   6.934  1.00  0.00    -0.264 OA
HETATM    4  H   UNL     1      41.656 -11.681   7.764  1.00  0.00     0.190 HD
ENDROOT
BRANCH   2   5
HETATM    5  N   UNL     1      41.371 -11.027   5.829  1.00  0.00    -0.249 N 
HETATM    6  C   UNL     1      41.171 -12.329   5.425  1.00  0.00     0.334 C 
HETATM    7  N   UNL     1      41.024 -12.441   4.067  1.00  0.00    -0.341 N 
HETATM    8  O   UNL     1      41.109 -13.267   6.213  1.00  0.00    -0.246 OA
HETATM    9  H   UNL     1      40.807 -11.594   3.563  1.00  0.00     0.164 HD
HETATM   10  H   UNL     1      41.832 -10.375   5.201  1.00  0.00     0.192 HD
BRANCH   7  11
HETATM   11  C   UNL     1      40.652 -13.704   3.459  1.00  0.00     0.129 C 
BRANCH  11  12
HETATM   12  C   UNL     1      41.517 -14.047   2.231  1.00  0.00     0.004 C 
HETATM   13  C   UNL     1      43.004 -14.298   2.554  1.00  0.00     0.010 C 
HETATM   14  C   UNL     1      43.362 -15.694   3.094  1.00  0.00    -0.018 C 
HETATM   15  C   UNL     1      42.690 -16.804   2.277  1.00  0.00     0.004 C 
HETATM   16  C   UNL     1      43.096 -15.851   4.591  1.00  0.00     0.010 C 
HETATM   17  C   UNL     1      41.195 -16.576   2.077  1.00  0.00     0.001 C 
HETATM   18  C   UNL     1      40.924 -15.219   1.436  1.00  0.00     0.006 C 
ENDBRANCH  11  12
ENDBRANCH   7  11
ENDBRANCH   2   5
BRANCH   1  19
HETATM   19  C   UNL     1      42.226  -9.512   9.072  1.00  0.00     0.121 A 
HETATM   20  N   UNL     1      42.978 -10.462   9.703  1.00  0.00    -0.272 N 
HETATM   21  N   UNL     1      43.133 -10.256  11.019  1.00  0.00    -0.174 NA
HETATM   22  H   UNL     1      43.409 -11.279   9.281  1.00  0.00     0.189 HD
HETATM   23  C   UNL     1      42.462  -9.120  11.270  1.00  0.00     0.089 A 
HETATM   24  C   UNL     1      41.883  -8.620  10.069  1.00  0.00     0.071 A 
BRANCH  23  25
HETATM   25  C   UNL     1      42.366  -8.556  12.622  1.00  0.00    -0.006 A 
HETATM   26  C   UNL     1      41.414  -9.023  13.538  1.00  0.00     0.014 A 
HETATM   27  C   UNL     1      41.349  -8.499  14.835  1.00  0.00     0.007 A 
HETATM   28  C   UNL     1      42.228  -7.490  15.238  1.00  0.00    -0.062 A 
HETATM   29  C   UNL     1      42.192  -6.955  16.638  1.00  0.00     0.048 C 
HETATM   30  C   UNL     1      43.182  -7.021  14.329  1.00  0.00     0.007 A 
HETATM   31  C   UNL     1      43.245  -7.545  13.033  1.00  0.00     0.014 A 
ENDBRANCH  23  25
ENDBRANCH   1  19
TORSDOF 5
ENDMDL
MODEL 9
REMARK VINA RESULT:      -7.9     18.320     20.621
REMARK  5 active torsions:
REMARK  status: ('A' for Active; 'I' for Inactive)
REMARK    1  A    between atoms: C_5  and  C_6 
REMARK    2  A    between atoms: C_10  and  C_11 
REMARK       I    between atoms: C_11  and  N_12 
REMARK    3  A    between atoms: N_12  and  N_13 
REMARK       I    between atoms: N_13  and  C_14 
REMARK       I    between atoms: C_14  and  N_15 
REMARK    4  A    between atoms: N_15  and  C_16 
REMARK    5  A    between atoms: C_16  and  C_17 
ROOT
HETATM    1  C   UNL     1      41.972 -29.956   2.506  1.00  0.00     0.288 C 
HETATM    2  N   UNL     1      43.176 -29.850   3.165  1.00  0.00    -0.261 N 
HETATM    3  O   UNL     1      41.698 -29.266   1.525  1.00  0.00    -0.264 OA
HETATM    4  H   UNL     1      43.418 -30.379   4.000  1.00  0.00     0.190 HD
ENDROOT
BRANCH   2   5
HETATM    5  N   UNL     1      44.128 -28.915   2.733  1.00  0.00    -0.249 N 
HETATM    6  C   UNL     1      45.127 -29.400   1.918  1.00  0.00     0.334 C 
HETATM    7  N   UNL     1      46.076 -28.455   1.630  1.00  0.00    -0.341 N 
HETATM    8  O   UNL     1      45.133 -30.549   1.486  1.00  0.00    -0.246 OA
HETATM    9  H   UNL     1      45.823 -27.492   1.795  1.00  0.00     0.164 HD
HETATM   10  H   UNL     1      44.340 -28.172   3.394  1.00  0.00     0.192 HD
BRANCH   7  11
HETATM   11  C   UNL     1      47.127 -28.721   0.666  1.00  0.00     0.129 C 
BRANCH  11  12
HETATM   12  C   UNL     1      46.976 -27.886  -0.620  1.00  0.00     0.004 C 
HETATM   13  C   UNL     1      47.790 -28.414  -1.818  1.00  0.00     0.010 C 
HETATM   14  C   UNL     1      47.173 -29.585  -2.604  1.00  0.00    -0.018 C 
HETATM   15  C   UNL     1      45.687 -29.346  -2.897  1.00  0.00     0.004 C 
HETATM   16  C   UNL     1      47.410 -30.946  -1.949  1.00  0.00     0.010 C 
HETATM   17  C   UNL     1      44.893 -28.936  -1.661  1.00  0.00     0.001 C 
HETATM   18  C   UNL     1      45.499 -27.703  -0.999  1.00  0.00     0.006 C 
ENDBRANCH  11  12
ENDBRANCH   7  11
ENDBRANCH   2   5
BRANCH   1  19
HETATM   19  C   UNL     1      41.062 -30.924   3.054  1.00  0.00     0.121 A 
HETATM   20  N   UNL     1      40.471 -31.882   2.280  1.00  0.00    -0.272 N 
HETATM   21  N   UNL     1      39.633 -32.688   2.947  1.00  0.00    -0.174 NA
HETATM   22  H   UNL     1      40.601 -32.027   1.283  1.00  0.00     0.189 HD
HETATM   23  C   UNL     1      39.675 -32.252   4.217  1.00  0.00     0.089 A 
HETATM   24  C   UNL     1      40.567 -31.147   4.323  1.00  0.00     0.071 A 
BRANCH  23  25
HETATM   25  C   UNL     1      38.866 -32.866   5.276  1.00  0.00    -0.006 A 
HETATM   26  C   UNL     1      37.621 -33.447   4.996  1.00  0.00     0.014 A 
HETATM   27  C   UNL     1      36.870 -34.056   6.009  1.00  0.00     0.007 A 
HETATM   28  C   UNL     1      37.342 -34.085   7.324  1.00  0.00    -0.062 A 
HETATM   29  C   UNL     1      36.562 -34.773   8.404  1.00  0.00     0.048 C 
HETATM   30  C   UNL     1      38.584 -33.508   7.610  1.00  0.00     0.007 A 
HETATM   31  C   UNL     1      39.333 -32.900   6.597  1.00  0.00     0.014 A 
ENDBRANCH  23  25
ENDBRANCH   1  19
TORSDOF 5
ENDMDL
MODEL 10
REMARK VINA RESULT:      -7.7      3.936      4.672
REMARK  5 active torsions:
REMARK  status: ('A' for Active; 'I' for Inactive)
REMARK    1  A    between atoms: C_5  and  C_6 
REMARK    2  A    between atoms: C_10  and  C_11 
REMARK       I    between atoms: C_11  and  N_12 
REMARK    3  A    between atoms: N_12  and  N_13 
REMARK       I    between atoms: N_13  and  C_14 
REMARK       I    between atoms: C_14  and  N_15 
REMARK    4  A    between atoms: N_15  and  C_16 
REMARK    5  A    between atoms: C_16  and  C_17 
ROOT
HETATM    1  C   UNL     1      39.128 -10.930   6.193  1.00  0.00     0.288 C 
HETATM    2  N   UNL     1      40.114 -10.831   7.149  1.00  0.00    -0.261 N 
HETATM    3  O   UNL     1      38.046 -10.357   6.305  1.00  0.00    -0.264 OA
HETATM    4  H   UNL     1      41.004 -11.321   7.104  1.00  0.00     0.190 HD
ENDROOT
BRANCH   2   5
HETATM    5  N   UNL     1      39.888 -10.073   8.308  1.00  0.00    -0.249 N 
HETATM    6  C   UNL     1      41.006  -9.527   8.901  1.00  0.00     0.334 C 
HETATM    7  N   UNL     1      40.718  -8.897  10.083  1.00  0.00    -0.341 N 
HETATM    8  O   UNL     1      42.122  -9.586   8.395  1.00  0.00    -0.246 OA
HETATM    9  H   UNL     1      39.750  -8.664  10.250  1.00  0.00     0.164 HD
HETATM   10  H   UNL     1      39.117 -10.388   8.890  1.00  0.00     0.192 HD
BRANCH   7  11
HETATM   11  C   UNL     1      41.729  -8.128  10.784  1.00  0.00     0.129 C 
BRANCH  11  12
HETATM   12  C   UNL     1      42.550  -8.986  11.766  1.00  0.00     0.004 C 
HETATM   13  C   UNL     1      43.546  -8.184  12.628  1.00  0.00     0.010 C 
HETATM   14  C   UNL     1      42.966  -7.473  13.863  1.00  0.00    -0.018 C 
HETATM   15  C   UNL     1      42.031  -8.393  14.657  1.00  0.00     0.004 C 
HETATM   16  C   UNL     1      42.301  -6.136  13.536  1.00  0.00     0.010 C 
HETATM   17  C   UNL     1      40.987  -9.080  13.783  1.00  0.00     0.001 C 
HETATM   18  C   UNL     1      41.641  -9.856  12.645  1.00  0.00     0.006 C 
ENDBRANCH  11  12
ENDBRANCH   7  11
ENDBRANCH   2   5
BRANCH   1  19
HETATM   19  C   UNL     1      39.457 -11.756   5.064  1.00  0.00     0.121 A 
HETATM   20  N   UNL     1      40.368 -12.771   5.150  1.00  0.00    -0.272 N 
HETATM   21  N   UNL     1      40.571 -13.426   3.998  1.00  0.00    -0.174 NA
HETATM   22  H   UNL     1      40.887 -13.057   5.974  1.00  0.00     0.189 HD
HETATM   23  C   UNL     1      39.757 -12.827   3.114  1.00  0.00     0.089 A 
HETATM   24  C   UNL     1      39.037 -11.776   3.749  1.00  0.00     0.071 A 
BRANCH  23  25
HETATM   25  C   UNL     1      39.699 -13.241   1.706  1.00  0.00    -0.006 A 
HETATM   26  C   UNL     1      40.077 -14.531   1.312  1.00  0.00     0.014 A 
HETATM   27  C   UNL     1      39.990 -14.926  -0.029  1.00  0.00     0.007 A 
HETATM   28  C   UNL     1      39.536 -14.034  -1.004  1.00  0.00    -0.062 A 
HETATM   29  C   UNL     1      39.401 -14.464  -2.434  1.00  0.00     0.048 C 
HETATM   30  C   UNL     1      39.156 -12.745  -0.617  1.00  0.00     0.007 A 
HETATM   31  C   UNL     1      39.244 -12.352   0.723  1.00  0.00     0.014 A 
ENDBRANCH  23  25
ENDBRANCH   1  19
TORSDOF 5
ENDMDL
