MODEL 1
REMARK VINA RESULT:      -8.3      0.000      0.000
REMARK  5 active torsions:
REMARK  status: ('A' for Active; 'I' for Inactive)
REMARK    1  A    between atoms: C_3  and  O_4 
REMARK    2  A    between atoms: O_4  and  C_5 
REMARK    3  A    between atoms: C_5  and  C_6 
REMARK       I    between atoms: C_6  and  N_7 
REMARK    4  A    between atoms: N_7  and  N_8 
REMARK    5  A    between atoms: C_9  and  C_10 
ROOT
HETATM    1  C   UNL     1      41.230 -13.516   1.483  1.00  0.00     0.261 C 
HETATM    2  N   UNL     1      41.698 -14.803   1.243  1.00  0.00    -0.246 N 
HETATM    3  O   UNL     1      40.958 -13.033   2.579  1.00  0.00    -0.269 OA
HETATM    4  H   UNL     1      42.061 -14.989   0.309  1.00  0.00     0.192 HD
ENDROOT
BRANCH   2   5
HETATM    5  N   UNL     1      42.018 -15.765   2.170  1.00  0.00    -0.184 NA
HETATM    6  C   UNL     1      43.197 -15.772   2.705  1.00  0.00     0.152 C 
BRANCH   6   7
HETATM    7  C   UNL     1      43.542 -16.805   3.663  1.00  0.00     0.011 A 
HETATM    8  C   UNL     1      43.607 -18.216   3.416  1.00  0.00     0.004 A 
HETATM    9  C   UNL     1      43.983 -18.833   4.611  1.00  0.00     0.043 A 
HETATM   10  C   UNL     1      43.372 -19.029   2.287  1.00  0.00     0.014 A 
HETATM   11  C   UNL     1      44.140 -20.219   4.731  1.00  0.00     0.030 A 
HETATM   12  N   UNL     1      44.141 -17.838   5.547  1.00  0.00    -0.364 N 
HETATM   13  C   UNL     1      43.900 -21.000   3.597  1.00  0.00     0.002 A 
HETATM   14  C   UNL     1      43.520 -20.417   2.391  1.00  0.00     0.001 A 
HETATM   15  H   UNL     1      44.412 -17.994   6.509  1.00  0.00     0.165 HD
HETATM   16  C   UNL     1      43.873 -16.617   4.992  1.00  0.00     0.102 A 
ENDBRANCH   6   7
ENDBRANCH   2   5
BRANCH   1  17
HETATM   17  C   UNL     1      40.984 -12.729   0.198  1.00  0.00     0.280 C 
BRANCH  17  18
HETATM   18  O   UNL     1      39.598 -12.450   0.017  1.00  0.00    -0.342 OA
BRANCH  18  19
HETATM   19  C   UNL     1      39.035 -13.100  -1.054  1.00  0.00     0.075 A 
HETATM   20  C   UNL     1      37.910 -12.508  -1.648  1.00  0.00    -0.029 A 
HETATM   21  C   UNL     1      37.345 -11.209  -1.145  1.00  0.00     0.051 C 
HETATM   22  C   UNL     1      37.325 -13.124  -2.766  1.00  0.00     0.009 A 
HETATM   23  C   UNL     1      37.845 -14.314  -3.276  1.00  0.00     0.001 A 
HETATM   24  C   UNL     1      38.966 -14.890  -2.688  1.00  0.00     0.003 A 
HETATM   25  C   UNL     1      39.567 -14.282  -1.586  1.00  0.00     0.037 A 
ENDBRANCH  18  19
ENDBRANCH  17  18
ENDBRANCH   1  17
TORSDOF 5
ENDMDL
MODEL 2
REMARK VINA RESULT:      -8.2      5.616      9.246
REMARK  5 active torsions:
REMARK  status: ('A' for Active; 'I' for Inactive)
REMARK    1  A    between atoms: C_3  and  O_4 
REMARK    2  A    between atoms: O_4  and  C_5 
REMARK    3  A    between atoms: C_5  and  C_6 
REMARK       I    between atoms: C_6  and  N_7 
REMARK    4  A    between atoms: N_7  and  N_8 
REMARK    5  A    between atoms: C_9  and  C_10 
ROOT
HETATM    1  C   UNL     1      43.166 -15.611   6.975  1.00  0.00     0.261 C 
HETATM    2  N   UNL     1      43.617 -14.431   6.395  1.00  0.00    -0.246 N 
HETATM    3  O   UNL     1      43.157 -15.877   8.175  1.00  0.00    -0.269 OA
HETATM    4  H   UNL     1      43.379 -14.285   5.415  1.00  0.00     0.192 HD
ENDROOT
BRANCH   2   5
HETATM    5  N   UNL     1      44.073 -13.304   7.035  1.00  0.00    -0.184 NA
HETATM    6  C   UNL     1      44.556 -12.325   6.340  1.00  0.00     0.152 C 
BRANCH   6   7
HETATM    7  C   UNL     1      45.063 -11.147   7.019  1.00  0.00     0.011 A 
HETATM    8  C   UNL     1      44.287 -10.139   7.680  1.00  0.00     0.004 A 
HETATM    9  C   UNL     1      45.180  -9.198   8.199  1.00  0.00     0.043 A 
HETATM   10  C   UNL     1      42.905  -9.933   7.878  1.00  0.00     0.014 A 
HETATM   11  C   UNL     1      44.759  -8.067   8.909  1.00  0.00     0.030 A 
HETATM   12  N   UNL     1      46.447  -9.617   7.868  1.00  0.00    -0.364 N 
HETATM   13  C   UNL     1      43.384  -7.888   9.090  1.00  0.00     0.002 A 
HETATM   14  C   UNL     1      42.468  -8.805   8.582  1.00  0.00     0.001 A 
HETATM   15  H   UNL     1      47.295  -9.126   8.116  1.00  0.00     0.165 HD
HETATM   16  C   UNL     1      46.390 -10.783   7.154  1.00  0.00     0.102 A 
ENDBRANCH   6   7
ENDBRANCH   2   5
BRANCH   1  17
HETATM   17  C   UNL     1      42.735 -16.649   5.941  1.00  0.00     0.280 C 
BRANCH  17  18
HETATM   18  O   UNL     1      43.745 -16.850   4.954  1.00  0.00    -0.342 OA
BRANCH  18  19
HETATM   19  C   UNL     1      43.745 -18.111   4.409  1.00  0.00     0.075 A 
HETATM   20  C   UNL     1      43.473 -18.218   3.037  1.00  0.00    -0.029 A 
HETATM   21  C   UNL     1      43.203 -17.005   2.190  1.00  0.00     0.051 C 
HETATM   22  C   UNL     1      43.495 -19.485   2.433  1.00  0.00     0.009 A 
HETATM   23  C   UNL     1      43.773 -20.627   3.185  1.00  0.00     0.001 A 
HETATM   24  C   UNL     1      44.051 -20.512   4.544  1.00  0.00     0.003 A 
HETATM   25  C   UNL     1      44.047 -19.257   5.154  1.00  0.00     0.037 A 
ENDBRANCH  18  19
ENDBRANCH  17  18
ENDBRANCH   1  17
TORSDOF 5
ENDMDL
MODEL 3
REMARK VINA RESULT:      -8.1      4.412      8.275
REMARK  5 active torsions:
REMARK  status: ('A' for Active; 'I' for Inactive)
REMARK    1  A    between atoms: C_3  and  O_4 
REMARK    2  A    between atoms: O_4  and  C_5 
REMARK    3  A    between atoms: C_5  and  C_6 
REMARK       I    between atoms: C_6  and  N_7 
REMARK    4  A    between atoms: N_7  and  N_8 
REMARK    5  A    between atoms: C_9  and  C_10 
ROOT
HETATM    1  C   UNL     1      41.654 -15.385   3.212  1.00  0.00     0.261 C 
HETATM    2  N   UNL     1      42.684 -14.476   3.431  1.00  0.00    -0.246 N 
HETATM    3  O   UNL     1      40.526 -15.338   3.696  1.00  0.00    -0.269 OA
HETATM    4  H   UNL     1      43.489 -14.542   2.811  1.00  0.00     0.192 HD
ENDROOT
BRANCH   2   5
HETATM    5  N   UNL     1      42.635 -13.315   4.164  1.00  0.00    -0.184 NA
HETATM    6  C   UNL     1      42.967 -13.335   5.415  1.00  0.00     0.152 C 
BRANCH   6   7
HETATM    7  C   UNL     1      42.888 -12.113   6.195  1.00  0.00     0.011 A 
HETATM    8  C   UNL     1      43.983 -11.402   6.786  1.00  0.00     0.004 A 
HETATM    9  C   UNL     1      43.453 -10.284   7.435  1.00  0.00     0.043 A 
HETATM   10  C   UNL     1      45.378 -11.609   6.837  1.00  0.00     0.014 A 
HETATM   11  C   UNL     1      44.249  -9.363   8.128  1.00  0.00     0.030 A 
HETATM   12  N   UNL     1      42.091 -10.315   7.247  1.00  0.00    -0.364 N 
HETATM   13  C   UNL     1      45.628  -9.593   8.163  1.00  0.00     0.002 A 
HETATM   14  C   UNL     1      46.187 -10.700   7.529  1.00  0.00     0.001 A 
HETATM   15  H   UNL     1      41.448  -9.624   7.609  1.00  0.00     0.165 HD
HETATM   16  C   UNL     1      41.739 -11.412   6.509  1.00  0.00     0.102 A 
ENDBRANCH   6   7
ENDBRANCH   2   5
BRANCH   1  17
HETATM   17  C   UNL     1      42.083 -16.562   2.340  1.00  0.00     0.280 C 
BRANCH  17  18
HETATM   18  O   UNL     1      43.446 -16.912   2.572  1.00  0.00    -0.342 OA
BRANCH  18  19
HETATM   19  C   UNL     1      43.624 -18.207   2.993  1.00  0.00     0.075 A 
HETATM   20  C   UNL     1      44.063 -18.400   4.311  1.00  0.00    -0.029 A 
HETATM   21  C   UNL     1      44.320 -17.241   5.234  1.00  0.00     0.051 C 
HETATM   22  C   UNL     1      44.226 -19.709   4.792  1.00  0.00     0.009 A 
HETATM   23  C   UNL     1      43.966 -20.806   3.971  1.00  0.00     0.001 A 
HETATM   24  C   UNL     1      43.521 -20.607   2.667  1.00  0.00     0.003 A 
HETATM   25  C   UNL     1      43.341 -19.312   2.181  1.00  0.00     0.037 A 
ENDBRANCH  18  19
ENDBRANCH  17  18
ENDBRANCH   1  17
TORSDOF 5
ENDMDL
MODEL 4
REMARK VINA RESULT:      -8.0      1.966      8.238
REMARK  5 active torsions:
REMARK  status: ('A' for Active; 'I' for Inactive)
REMARK    1  A    between atoms: C_3  and  O_4 
REMARK    2  A    between atoms: O_4  and  C_5 
REMARK    3  A    between atoms: C_5  and  C_6 
REMARK       I    between atoms: C_6  and  N_7 
REMARK    4  A    between atoms: N_7  and  N_8 
REMARK    5  A    between atoms: C_9  and  C_10 
ROOT
HETATM    1  C   UNL     1      41.526 -15.340   4.685  1.00  0.00     0.261 C 
HETATM    2  N   UNL     1      40.893 -15.729   3.510  1.00  0.00    -0.246 N 
HETATM    3  O   UNL     1      41.573 -14.201   5.144  1.00  0.00    -0.269 OA
HETATM    4  H   UNL     1      40.775 -16.731   3.367  1.00  0.00     0.192 HD
ENDROOT
BRANCH   2   5
HETATM    5  N   UNL     1      40.139 -14.950   2.666  1.00  0.00    -0.184 NA
HETATM    6  C   UNL     1      40.710 -14.338   1.679  1.00  0.00     0.152 C 
BRANCH   6   7
HETATM    7  C   UNL     1      39.917 -13.493   0.806  1.00  0.00     0.011 A 
HETATM    8  C   UNL     1      39.400 -13.841  -0.485  1.00  0.00     0.004 A 
HETATM    9  C   UNL     1      38.692 -12.736  -0.963  1.00  0.00     0.043 A 
HETATM   10  C   UNL     1      39.476 -14.992  -1.298  1.00  0.00     0.014 A 
HETATM   11  C   UNL     1      38.054 -12.728  -2.210  1.00  0.00     0.030 A 
HETATM   12  N   UNL     1      38.774 -11.756  -0.002  1.00  0.00    -0.364 N 
HETATM   13  C   UNL     1      38.146 -13.882  -2.994  1.00  0.00     0.002 A 
HETATM   14  C   UNL     1      38.848 -14.998  -2.548  1.00  0.00     0.001 A 
HETATM   15  H   UNL     1      38.351 -10.841  -0.080  1.00  0.00     0.165 HD
HETATM   16  C   UNL     1      39.512 -12.196   1.062  1.00  0.00     0.102 A 
ENDBRANCH   6   7
ENDBRANCH   2   5
BRANCH   1  17
HETATM   17  C   UNL     1      42.275 -16.486   5.359  1.00  0.00     0.280 C 
BRANCH  17  18
HETATM   18  O   UNL     1      43.479 -16.802   4.663  1.00  0.00    -0.342 OA
BRANCH  18  19
HETATM   19  C   UNL     1      43.622 -18.138   4.377  1.00  0.00     0.075 A 
HETATM   20  C   UNL     1      43.543 -18.520   3.030  1.00  0.00    -0.029 A 
HETATM   21  C   UNL     1      43.323 -17.512   1.936  1.00  0.00     0.051 C 
HETATM   22  C   UNL     1      43.716 -19.872   2.692  1.00  0.00     0.009 A 
HETATM   23  C   UNL     1      43.953 -20.827   3.680  1.00  0.00     0.001 A 
HETATM   24  C   UNL     1      44.039 -20.440   5.014  1.00  0.00     0.003 A 
HETATM   25  C   UNL     1      43.884 -19.098   5.362  1.00  0.00     0.037 A 
ENDBRANCH  18  19
ENDBRANCH  17  18
ENDBRANCH   1  17
TORSDOF 5
ENDMDL
MODEL 5
REMARK VINA RESULT:      -7.9      6.338      9.173
REMARK  5 active torsions:
REMARK  status: ('A' for Active; 'I' for Inactive)
REMARK    1  A    between atoms: C_3  and  O_4 
REMARK    2  A    between atoms: O_4  and  C_5 
REMARK    3  A    between atoms: C_5  and  C_6 
REMARK       I    between atoms: C_6  and  N_7 
REMARK    4  A    between atoms: N_7  and  N_8 
REMARK    5  A    between atoms: C_9  and  C_10 
ROOT
HETATM    1  C   UNL     1      44.206 -11.642   7.292  1.00  0.00     0.261 C 
HETATM    2  N   UNL     1      43.393 -12.769   7.239  1.00  0.00    -0.246 N 
HETATM    3  O   UNL     1      45.397 -11.588   6.996  1.00  0.00    -0.269 OA
HETATM    4  H   UNL     1      42.391 -12.612   7.326  1.00  0.00     0.192 HD
ENDROOT
BRANCH   2   5
HETATM    5  N   UNL     1      43.727 -14.022   6.785  1.00  0.00    -0.184 NA
HETATM    6  C   UNL     1      42.791 -14.858   6.469  1.00  0.00     0.152 C 
BRANCH   6   7
HETATM    7  C   UNL     1      43.145 -16.191   6.016  1.00  0.00     0.011 A 
HETATM    8  C   UNL     1      43.240 -16.637   4.658  1.00  0.00     0.004 A 
HETATM    9  C   UNL     1      43.615 -17.982   4.684  1.00  0.00     0.043 A 
HETATM   10  C   UNL     1      43.032 -16.024   3.403  1.00  0.00     0.014 A 
HETATM   11  C   UNL     1      43.797 -18.741   3.522  1.00  0.00     0.030 A 
HETATM   12  N   UNL     1      43.744 -18.340   6.006  1.00  0.00    -0.364 N 
HETATM   13  C   UNL     1      43.584 -18.108   2.293  1.00  0.00     0.002 A 
HETATM   14  C   UNL     1      43.206 -16.770   2.232  1.00  0.00     0.001 A 
HETATM   15  H   UNL     1      44.008 -19.262   6.327  1.00  0.00     0.165 HD
HETATM   16  C   UNL     1      43.458 -17.274   6.816  1.00  0.00     0.102 A 
ENDBRANCH   6   7
ENDBRANCH   2   5
BRANCH   1  17
HETATM   17  C   UNL     1      43.485 -10.422   7.859  1.00  0.00     0.280 C 
BRANCH  17  18
HETATM   18  O   UNL     1      44.342  -9.656   8.703  1.00  0.00    -0.342 OA
BRANCH  18  19
HETATM   19  C   UNL     1      43.864  -9.495   9.981  1.00  0.00     0.075 A 
HETATM   20  C   UNL     1      43.482  -8.201  10.366  1.00  0.00    -0.029 A 
HETATM   21  C   UNL     1      43.578  -7.037   9.420  1.00  0.00     0.051 C 
HETATM   22  C   UNL     1      42.958  -7.999  11.652  1.00  0.00     0.009 A 
HETATM   23  C   UNL     1      42.826  -9.064  12.543  1.00  0.00     0.001 A 
HETATM   24  C   UNL     1      43.199 -10.347  12.151  1.00  0.00     0.003 A 
HETATM   25  C   UNL     1      43.708 -10.565  10.870  1.00  0.00     0.037 A 
ENDBRANCH  18  19
ENDBRANCH  17  18
ENDBRANCH   1  17
TORSDOF 5
ENDMDL
MODEL 6
REMARK VINA RESULT:      -7.8      2.012      9.187
REMARK  5 active torsions:
REMARK  status: ('A' for Active; 'I' for Inactive)
REMARK    1  A    between atoms: C_3  and  O_4 
REMARK    2  A    between atoms: O_4  and  C_5 
REMARK    3  A    between atoms: C_5  and  C_6 
REMARK       I    between atoms: C_6  and  N_7 
REMARK    4  A    between atoms: N_7  and  N_8 
REMARK    5  A    between atoms: C_9  and  C_10 
ROOT
HETATM    1  C   UNL     1      42.764 -15.376   1.988  1.00  0.00     0.261 C 
HETATM    2  N   UNL     1      41.549 -15.501   1.325  1.00  0.00    -0.246 N 
HETATM    3  O   UNL     1      43.653 -14.566   1.735  1.00  0.00    -0.269 OA
HETATM    4  H   UNL     1      40.843 -16.083   1.773  1.00  0.00     0.192 HD
ENDROOT
BRANCH   2   5
HETATM    5  N   UNL     1      41.062 -14.711   0.311  1.00  0.00    -0.184 NA
HETATM    6  C   UNL     1      39.874 -14.928  -0.155  1.00  0.00     0.152 C 
BRANCH   6   7
HETATM    7  C   UNL     1      39.374 -14.111  -1.244  1.00  0.00     0.011 A 
HETATM    8  C   UNL     1      38.750 -12.826  -1.135  1.00  0.00     0.004 A 
HETATM    9  C   UNL     1      38.433 -12.403  -2.428  1.00  0.00     0.043 A 
HETATM   10  C   UNL     1      38.414 -11.983  -0.054  1.00  0.00     0.014 A 
HETATM   11  C   UNL     1      37.804 -11.180  -2.692  1.00  0.00     0.030 A 
HETATM   12  N   UNL     1      38.849 -13.391  -3.289  1.00  0.00    -0.364 N 
HETATM   13  C   UNL     1      37.484 -10.366  -1.602  1.00  0.00     0.002 A 
HETATM   14  C   UNL     1      37.782 -10.760  -0.300  1.00  0.00     0.001 A 
HETATM   15  H   UNL     1      38.746 -13.355  -4.295  1.00  0.00     0.165 HD
HETATM   16  C   UNL     1      39.409 -14.425  -2.590  1.00  0.00     0.102 A 
ENDBRANCH   6   7
ENDBRANCH   2   5
BRANCH   1  17
HETATM   17  C   UNL     1      42.960 -16.441   3.065  1.00  0.00     0.280 C 
BRANCH  17  18
HETATM   18  O   UNL     1      43.537 -17.628   2.524  1.00  0.00    -0.342 OA
BRANCH  18  19
HETATM   19  C   UNL     1      43.666 -18.648   3.435  1.00  0.00     0.075 A 
HETATM   20  C   UNL     1      43.661 -19.959   2.937  1.00  0.00    -0.029 A 
HETATM   21  C   UNL     1      43.532 -20.244   1.467  1.00  0.00     0.051 C 
HETATM   22  C   UNL     1      43.822 -21.030   3.831  1.00  0.00     0.009 A 
HETATM   23  C   UNL     1      43.976 -20.798   5.198  1.00  0.00     0.001 A 
HETATM   24  C   UNL     1      43.989 -19.494   5.684  1.00  0.00     0.003 A 
HETATM   25  C   UNL     1      43.843 -18.420   4.805  1.00  0.00     0.037 A 
ENDBRANCH  18  19
ENDBRANCH  17  18
ENDBRANCH   1  17
TORSDOF 5
ENDMDL
MODEL 7
REMARK VINA RESULT:      -7.7      6.377      9.208
REMARK  5 active torsions:
REMARK  status: ('A' for Active; 'I' for Inactive)
REMARK    1  A    between atoms: C_3  and  O_4 
REMARK    2  A    between atoms: O_4  and  C_5 
REMARK    3  A    between atoms: C_5  and  C_6 
REMARK       I    between atoms: C_6  and  N_7 
REMARK    4  A    between atoms: N_7  and  N_8 
REMARK    5  A    between atoms: C_9  and  C_10 
ROOT
HETATM    1  C   UNL     1      44.211 -11.570   7.130  1.00  0.00     0.261 C 
HETATM    2  N   UNL     1      43.355 -12.662   7.044  1.00  0.00    -0.246 N 
HETATM    3  O   UNL     1      44.851 -11.071   6.207  1.00  0.00    -0.269 OA
HETATM    4  H   UNL     1      42.751 -12.833   7.847  1.00  0.00     0.192 HD
ENDROOT
BRANCH   2   5
HETATM    5  N   UNL     1      42.995 -13.358   5.915  1.00  0.00    -0.184 NA
HETATM    6  C   UNL     1      43.230 -14.629   5.845  1.00  0.00     0.152 C 
BRANCH   6   7
HETATM    7  C   UNL     1      42.875 -15.357   4.641  1.00  0.00     0.011 A 
HETATM    8  C   UNL     1      43.354 -16.649   4.248  1.00  0.00     0.004 A 
HETATM    9  C   UNL     1      42.749 -16.967   3.030  1.00  0.00     0.043 A 
HETATM   10  C   UNL     1      44.255 -17.578   4.811  1.00  0.00     0.014 A 
HETATM   11  C   UNL     1      42.996 -18.167   2.352  1.00  0.00     0.030 A 
HETATM   12  N   UNL     1      41.934 -15.910   2.696  1.00  0.00    -0.364 N 
HETATM   13  C   UNL     1      43.893 -19.068   2.933  1.00  0.00     0.002 A 
HETATM   14  C   UNL     1      44.517 -18.780   4.144  1.00  0.00     0.001 A 
HETATM   15  H   UNL     1      41.369 -15.866   1.858  1.00  0.00     0.165 HD
HETATM   16  C   UNL     1      42.006 -14.935   3.652  1.00  0.00     0.102 A 
ENDBRANCH   6   7
ENDBRANCH   2   5
BRANCH   1  17
HETATM   17  C   UNL     1      44.370 -11.058   8.559  1.00  0.00     0.280 C 
BRANCH  17  18
HETATM   18  O   UNL     1      43.783  -9.767   8.718  1.00  0.00    -0.342 OA
BRANCH  18  19
HETATM   19  C   UNL     1      43.507  -9.439  10.022  1.00  0.00     0.075 A 
HETATM   20  C   UNL     1      43.328  -8.079  10.319  1.00  0.00    -0.029 A 
HETATM   21  C   UNL     1      43.422  -7.021   9.256  1.00  0.00     0.051 C 
HETATM   22  C   UNL     1      43.013  -7.704  11.635  1.00  0.00     0.009 A 
HETATM   23  C   UNL     1      42.888  -8.664  12.639  1.00  0.00     0.001 A 
HETATM   24  C   UNL     1      43.058 -10.012  12.335  1.00  0.00     0.003 A 
HETATM   25  C   UNL     1      43.358 -10.400  11.029  1.00  0.00     0.037 A 
ENDBRANCH  18  19
ENDBRANCH  17  18
ENDBRANCH   1  17
TORSDOF 5
ENDMDL
MODEL 8
REMARK VINA RESULT:      -7.4      1.838      2.548
REMARK  5 active torsions:
REMARK  status: ('A' for Active; 'I' for Inactive)
REMARK    1  A    between atoms: C_3  and  O_4 
REMARK    2  A    between atoms: O_4  and  C_5 
REMARK    3  A    between atoms: C_5  and  C_6 
REMARK       I    between atoms: C_6  and  N_7 
REMARK    4  A    between atoms: N_7  and  N_8 
REMARK    5  A    between atoms: C_9  and  C_10 
ROOT
HETATM    1  C   UNL     1      40.318 -13.138   2.274  1.00  0.00     0.261 C 
HETATM    2  N   UNL     1      41.472 -13.895   2.105  1.00  0.00    -0.246 N 
HETATM    3  O   UNL     1      39.541 -13.197   3.224  1.00  0.00    -0.269 OA
HETATM    4  H   UNL     1      42.110 -13.595   1.368  1.00  0.00     0.192 HD
ENDROOT
BRANCH   2   5
HETATM    5  N   UNL     1      42.017 -14.800   2.983  1.00  0.00    -0.184 NA
HETATM    6  C   UNL     1      42.704 -15.799   2.529  1.00  0.00     0.152 C 
BRANCH   6   7
HETATM    7  C   UNL     1      43.255 -16.769   3.456  1.00  0.00     0.011 A 
HETATM    8  C   UNL     1      43.416 -18.175   3.230  1.00  0.00     0.004 A 
HETATM    9  C   UNL     1      43.989 -18.721   4.381  1.00  0.00     0.043 A 
HETATM   10  C   UNL     1      43.118 -19.040   2.155  1.00  0.00     0.014 A 
HETATM   11  C   UNL     1      44.283 -20.084   4.507  1.00  0.00     0.030 A 
HETATM   12  N   UNL     1      44.170 -17.688   5.271  1.00  0.00    -0.364 N 
HETATM   13  C   UNL     1      43.977 -20.917   3.427  1.00  0.00     0.002 A 
HETATM   14  C   UNL     1      43.402 -20.405   2.267  1.00  0.00     0.001 A 
HETATM   15  H   UNL     1      44.569 -17.791   6.194  1.00  0.00     0.165 HD
HETATM   16  C   UNL     1      43.727 -16.512   4.730  1.00  0.00     0.102 A 
ENDBRANCH   6   7
ENDBRANCH   2   5
BRANCH   1  17
HETATM   17  C   UNL     1      40.025 -12.235   1.078  1.00  0.00     0.280 C 
BRANCH  17  18
HETATM   18  O   UNL     1      40.841 -12.574  -0.042  1.00  0.00    -0.342 OA
BRANCH  18  19
HETATM   19  C   UNL     1      40.920 -11.584  -0.991  1.00  0.00     0.075 A 
HETATM   20  C   UNL     1      40.743 -11.962  -2.330  1.00  0.00    -0.029 A 
HETATM   21  C   UNL     1      40.466 -13.388  -2.717  1.00  0.00     0.051 C 
HETATM   22  C   UNL     1      40.783 -10.976  -3.329  1.00  0.00     0.009 A 
HETATM   23  C   UNL     1      41.007  -9.639  -3.000  1.00  0.00     0.001 A 
HETATM   24  C   UNL     1      41.173  -9.270  -1.668  1.00  0.00     0.003 A 
HETATM   25  C   UNL     1      41.121 -10.238  -0.664  1.00  0.00     0.037 A 
ENDBRANCH  18  19
ENDBRANCH  17  18
ENDBRANCH   1  17
TORSDOF 5
ENDMDL
MODEL 9
REMARK VINA RESULT:      -7.4      5.113      8.155
REMARK  5 active torsions:
REMARK  status: ('A' for Active; 'I' for Inactive)
REMARK    1  A    between atoms: C_3  and  O_4 
REMARK    2  A    between atoms: O_4  and  C_5 
REMARK    3  A    between atoms: C_5  and  C_6 
REMARK       I    between atoms: C_6  and  N_7 
REMARK    4  A    between atoms: N_7  and  N_8 
REMARK    5  A    between atoms: C_9  and  C_10 
ROOT
HETATM    1  C   UNL     1      40.951 -11.463   6.134  1.00  0.00     0.261 C 
HETATM    2  N   UNL     1      42.021 -11.992   5.421  1.00  0.00    -0.246 N 
HETATM    3  O   UNL     1      39.784 -11.845   6.088  1.00  0.00    -0.269 OA
HETATM    4  H   UNL     1      42.952 -11.699   5.713  1.00  0.00     0.192 HD
ENDROOT
BRANCH   2   5
HETATM    5  N   UNL     1      42.013 -13.080   4.582  1.00  0.00    -0.184 NA
HETATM    6  C   UNL     1      43.093 -13.409   3.950  1.00  0.00     0.152 C 
BRANCH   6   7
HETATM    7  C   UNL     1      43.075 -14.541   3.043  1.00  0.00     0.011 A 
HETATM    8  C   UNL     1      43.319 -15.913   3.380  1.00  0.00     0.004 A 
HETATM    9  C   UNL     1      43.192 -16.661   2.207  1.00  0.00     0.043 A 
HETATM   10  C   UNL     1      43.645 -16.590   4.575  1.00  0.00     0.014 A 
HETATM   11  C   UNL     1      43.371 -18.049   2.172  1.00  0.00     0.030 A 
HETATM   12  N   UNL     1      42.884 -15.780   1.197  1.00  0.00    -0.364 N 
HETATM   13  C   UNL     1      43.694 -18.693   3.370  1.00  0.00     0.002 A 
HETATM   14  C   UNL     1      43.831 -17.977   4.555  1.00  0.00     0.001 A 
HETATM   15  H   UNL     1      42.735 -16.044   0.233  1.00  0.00     0.165 HD
HETATM   16  C   UNL     1      42.817 -14.503   1.685  1.00  0.00     0.102 A 
ENDBRANCH   6   7
ENDBRANCH   2   5
BRANCH   1  17
HETATM   17  C   UNL     1      41.343 -10.245   6.967  1.00  0.00     0.280 C 
BRANCH  17  18
HETATM   18  O   UNL     1      42.713  -9.900   6.772  1.00  0.00    -0.342 OA
BRANCH  18  19
HETATM   19  C   UNL     1      43.433  -9.805   7.938  1.00  0.00     0.075 A 
HETATM   20  C   UNL     1      44.692 -10.424   7.969  1.00  0.00    -0.029 A 
HETATM   21  C   UNL     1      45.241 -11.153   6.775  1.00  0.00     0.051 C 
HETATM   22  C   UNL     1      45.474 -10.322   9.131  1.00  0.00     0.009 A 
HETATM   23  C   UNL     1      45.006  -9.625  10.245  1.00  0.00     0.001 A 
HETATM   24  C   UNL     1      43.760  -9.006  10.203  1.00  0.00     0.003 A 
HETATM   25  C   UNL     1      42.979  -9.087   9.050  1.00  0.00     0.037 A 
ENDBRANCH  18  19
ENDBRANCH  17  18
ENDBRANCH   1  17
TORSDOF 5
ENDMDL
MODEL 10
REMARK VINA RESULT:      -7.4      4.899      7.894
REMARK  5 active torsions:
REMARK  status: ('A' for Active; 'I' for Inactive)
REMARK    1  A    between atoms: C_3  and  O_4 
REMARK    2  A    between atoms: O_4  and  C_5 
REMARK    3  A    between atoms: C_5  and  C_6 
REMARK       I    between atoms: C_6  and  N_7 
REMARK    4  A    between atoms: N_7  and  N_8 
REMARK    5  A    between atoms: C_9  and  C_10 
ROOT
HETATM    1  C   UNL     1      41.109 -13.377   2.880  1.00  0.00     0.261 C 
HETATM    2  N   UNL     1      40.603 -13.001   4.119  1.00  0.00    -0.246 N 
HETATM    3  O   UNL     1      41.973 -12.788   2.236  1.00  0.00    -0.269 OA
HETATM    4  H   UNL     1      40.038 -13.693   4.610  1.00  0.00     0.192 HD
ENDROOT
BRANCH   2   5
HETATM    5  N   UNL     1      41.006 -11.948   4.905  1.00  0.00    -0.184 NA
HETATM    6  C   UNL     1      42.027 -12.089   5.689  1.00  0.00     0.152 C 
BRANCH   6   7
HETATM    7  C   UNL     1      42.434 -10.985   6.538  1.00  0.00     0.011 A 
HETATM    8  C   UNL     1      43.763 -10.697   6.991  1.00  0.00     0.004 A 
HETATM    9  C   UNL     1      43.697  -9.544   7.775  1.00  0.00     0.043 A 
HETATM   10  C   UNL     1      45.018 -11.317   6.814  1.00  0.00     0.014 A 
HETATM   11  C   UNL     1      44.823  -8.978   8.386  1.00  0.00     0.030 A 
HETATM   12  N   UNL     1      42.381  -9.145   7.798  1.00  0.00    -0.364 N 
HETATM   13  C   UNL     1      46.053  -9.613   8.195  1.00  0.00     0.002 A 
HETATM   14  C   UNL     1      46.153 -10.767   7.422  1.00  0.00     0.001 A 
HETATM   15  H   UNL     1      42.037  -8.334   8.293  1.00  0.00     0.165 HD
HETATM   16  C   UNL     1      41.612 -10.006   7.064  1.00  0.00     0.102 A 
ENDBRANCH   6   7
ENDBRANCH   2   5
BRANCH   1  17
HETATM   17  C   UNL     1      40.408 -14.606   2.306  1.00  0.00     0.280 C 
BRANCH  17  18
HETATM   18  O   UNL     1      40.305 -15.647   3.276  1.00  0.00    -0.342 OA
BRANCH  18  19
HETATM   19  C   UNL     1      41.460 -16.372   3.438  1.00  0.00     0.075 A 
HETATM   20  C   UNL     1      41.942 -16.529   4.747  1.00  0.00    -0.029 A 
HETATM   21  C   UNL     1      41.222 -15.942   5.928  1.00  0.00     0.051 C 
HETATM   22  C   UNL     1      43.103 -17.290   4.959  1.00  0.00     0.009 A 
HETATM   23  C   UNL     1      43.777 -17.875   3.887  1.00  0.00     0.001 A 
HETATM   24  C   UNL     1      43.287 -17.722   2.593  1.00  0.00     0.003 A 
HETATM   25  C   UNL     1      42.127 -16.981   2.369  1.00  0.00     0.037 A 
ENDBRANCH  18  19
ENDBRANCH  17  18
ENDBRANCH   1  17
TORSDOF 5
ENDMDL
