MODEL 1
REMARK VINA RESULT:      -9.2      0.000      0.000
REMARK  9 active torsions:
REMARK  status: ('A' for Active; 'I' for Inactive)
REMARK    1  A    between atoms: C_3  and  O_4 
REMARK    2  A    between atoms: C_5  and  C_6 
REMARK    3  A    between atoms: C_16  and  N_17 
REMARK    4  A    between atoms: N_17  and  C_18 
REMARK    5  A    between atoms: C_18  and  N_19 
REMARK       I    between atoms: N_19  and  C_20 
REMARK    6  A    between atoms: C_20  and  C_21 
REMARK    7  A    between atoms: C_24  and  O_25 
REMARK    8  A    between atoms: O_25  and  C_26 
REMARK    9  A    between atoms: C_26  and  C_27 
ROOT
HETATM    1  N   UNL     1      43.642 -11.219   8.204  1.00  0.00    -0.333 N 
HETATM    2  H   UNL     1      43.231 -11.799   8.930  1.00  0.00     0.168 HD
ENDROOT
BRANCH   1   3
HETATM    3  C   UNL     1      43.246 -11.527   6.887  1.00  0.00     0.035 A 
HETATM    4  C   UNL     1      43.346 -12.792   6.308  1.00  0.00     0.048 A 
HETATM    5  C   UNL     1      42.881 -13.042   5.000  1.00  0.00     0.053 A 
HETATM    6  C   UNL     1      42.285 -11.988   4.286  1.00  0.00     0.086 A 
HETATM    7  C   UNL     1      42.177 -10.708   4.848  1.00  0.00    -0.026 A 
HETATM    8  C   UNL     1      41.502  -9.579   4.118  1.00  0.00     0.051 C 
HETATM    9  C   UNL     1      42.646 -10.497   6.154  1.00  0.00     0.039 A 
BRANCH   5  10
HETATM   10  C   UNL     1      43.051 -14.394   4.470  1.00  0.00     0.183 A 
HETATM   11  O   UNL     1      43.497 -15.352   5.348  1.00  0.00    -0.289 OA
HETATM   12  C   UNL     1      43.584 -16.482   4.589  1.00  0.00     0.106 A 
HETATM   13  C   UNL     1      43.176 -16.162   3.304  1.00  0.00     0.093 A 
HETATM   14  C   UNL     1      44.001 -17.741   4.997  1.00  0.00     0.040 A 
HETATM   15  N   UNL     1      42.837 -14.832   3.241  1.00  0.00    -0.221 NA
HETATM   16  C   UNL     1      43.171 -17.163   2.325  1.00  0.00     0.034 A 
HETATM   17  C   UNL     1      43.585 -18.451   2.697  1.00  0.00     0.002 A 
HETATM   18  C   UNL     1      43.993 -18.732   4.008  1.00  0.00     0.003 A 
ENDBRANCH   5  10
BRANCH   6  19
HETATM   19  O   UNL     1      41.777 -12.144   3.021  1.00  0.00    -0.359 OA
HETATM   20  H   UNL     1      41.311 -12.999   2.964  1.00  0.00     0.218 HD
ENDBRANCH   6  19
ENDBRANCH   1   3
BRANCH   1  21
HETATM   21  C   UNL     1      44.605 -10.382   8.708  1.00  0.00     0.179 C 
HETATM   22  S   UNL     1      46.005 -10.234   7.803  1.00  0.00    -0.040 SA
BRANCH  21  23
HETATM   23  N   UNL     1      44.358  -9.823   9.943  1.00  0.00    -0.299 N 
HETATM   24  C   UNL     1      43.875 -10.459  11.084  1.00  0.00     0.257 C 
HETATM   25  O   UNL     1      44.050 -11.635  11.374  1.00  0.00    -0.267 OA
HETATM   26  H   UNL     1      44.190  -8.831   9.881  1.00  0.00     0.171 HD
BRANCH  24  27
HETATM   27  C   UNL     1      43.151  -9.590  12.048  1.00  0.00     0.032 A 
HETATM   28  C   UNL     1      43.577  -8.297  12.371  1.00  0.00     0.020 A 
HETATM   29  C   UNL     1      42.833  -7.517  13.266  1.00  0.00     0.038 A 
HETATM   30  C   UNL     1      41.668  -8.025  13.843  1.00  0.00     0.068 A 
HETATM   31  C   UNL     1      41.273  -9.332  13.553  1.00  0.00     0.038 A 
HETATM   32  C   UNL     1      42.006 -10.113  12.659  1.00  0.00     0.020 A 
BRANCH  30  33
HETATM   33  O   UNL     1      40.852  -7.367  14.718  1.00  0.00    -0.351 OA
BRANCH  33  34
HETATM   34  C   UNL     1      40.987  -7.646  16.114  1.00  0.00     0.179 C 
BRANCH  34  35
HETATM   35  C   UNL     1      40.343  -6.560  16.993  1.00  0.00     0.002 C 
HETATM   36  C   UNL     1      39.048  -6.032  16.372  1.00  0.00     0.011 C 
HETATM   37  C   UNL     1      40.077  -7.103  18.396  1.00  0.00     0.011 C 
ENDBRANCH  34  35
ENDBRANCH  33  34
ENDBRANCH  30  33
ENDBRANCH  24  27
ENDBRANCH  21  23
ENDBRANCH   1  21
TORSDOF 9
ENDMDL
MODEL 2
REMARK VINA RESULT:      -9.2      1.820      2.495
REMARK  9 active torsions:
REMARK  status: ('A' for Active; 'I' for Inactive)
REMARK    1  A    between atoms: C_3  and  O_4 
REMARK    2  A    between atoms: C_5  and  C_6 
REMARK    3  A    between atoms: C_16  and  N_17 
REMARK    4  A    between atoms: N_17  and  C_18 
REMARK    5  A    between atoms: C_18  and  N_19 
REMARK       I    between atoms: N_19  and  C_20 
REMARK    6  A    between atoms: C_20  and  C_21 
REMARK    7  A    between atoms: C_24  and  O_25 
REMARK    8  A    between atoms: O_25  and  C_26 
REMARK    9  A    between atoms: C_26  and  C_27 
ROOT
HETATM    1  N   UNL     1      43.525 -12.707   7.415  1.00  0.00    -0.333 N 
HETATM    2  H   UNL     1      43.624 -13.224   8.285  1.00  0.00     0.168 HD
ENDROOT
BRANCH   1   3
HETATM    3  C   UNL     1      42.881 -13.399   6.369  1.00  0.00     0.035 A 
HETATM    4  C   UNL     1      43.206 -14.693   5.961  1.00  0.00     0.048 A 
HETATM    5  C   UNL     1      42.484 -15.346   4.941  1.00  0.00     0.053 A 
HETATM    6  C   UNL     1      41.400 -14.675   4.350  1.00  0.00     0.086 A 
HETATM    7  C   UNL     1      41.058 -13.374   4.743  1.00  0.00    -0.026 A 
HETATM    8  C   UNL     1      39.874 -12.655   4.155  1.00  0.00     0.051 C 
HETATM    9  C   UNL     1      41.796 -12.756   5.764  1.00  0.00     0.039 A 
BRANCH   5  10
HETATM   10  C   UNL     1      42.915 -16.692   4.565  1.00  0.00     0.183 A 
HETATM   11  O   UNL     1      42.699 -17.069   3.262  1.00  0.00    -0.289 OA
HETATM   12  C   UNL     1      43.166 -18.350   3.207  1.00  0.00     0.106 A 
HETATM   13  C   UNL     1      43.652 -18.678   4.462  1.00  0.00     0.093 A 
HETATM   14  C   UNL     1      43.169 -19.199   2.109  1.00  0.00     0.040 A 
HETATM   15  N   UNL     1      43.490 -17.615   5.317  1.00  0.00    -0.221 NA
HETATM   16  C   UNL     1      44.196 -19.952   4.667  1.00  0.00     0.034 A 
HETATM   17  C   UNL     1      44.219 -20.842   3.582  1.00  0.00     0.002 A 
HETATM   18  C   UNL     1      43.713 -20.471   2.328  1.00  0.00     0.003 A 
ENDBRANCH   5  10
BRANCH   6  19
HETATM   19  O   UNL     1      40.622 -15.241   3.372  1.00  0.00    -0.359 OA
HETATM   20  H   UNL     1      39.717 -14.880   3.430  1.00  0.00     0.218 HD
ENDBRANCH   6  19
ENDBRANCH   1   3
BRANCH   1  21
HETATM   21  C   UNL     1      44.198 -11.512   7.455  1.00  0.00     0.179 C 
HETATM   22  S   UNL     1      45.507 -11.364   6.424  1.00  0.00    -0.040 SA
BRANCH  21  23
HETATM   23  N   UNL     1      43.783 -10.597   8.398  1.00  0.00    -0.299 N 
HETATM   24  C   UNL     1      44.283 -10.413   9.684  1.00  0.00     0.257 C 
HETATM   25  O   UNL     1      45.433 -10.633  10.041  1.00  0.00    -0.267 OA
HETATM   26  H   UNL     1      42.830 -10.303   8.244  1.00  0.00     0.171 HD
BRANCH  24  27
HETATM   27  C   UNL     1      43.333  -9.831  10.668  1.00  0.00     0.032 A 
HETATM   28  C   UNL     1      42.597  -8.668  10.413  1.00  0.00     0.020 A 
HETATM   29  C   UNL     1      41.695  -8.186  11.371  1.00  0.00     0.038 A 
HETATM   30  C   UNL     1      41.530  -8.857  12.584  1.00  0.00     0.068 A 
HETATM   31  C   UNL     1      42.301  -9.989  12.851  1.00  0.00     0.038 A 
HETATM   32  C   UNL     1      43.197 -10.478  11.901  1.00  0.00     0.020 A 
BRANCH  30  33
HETATM   33  O   UNL     1      40.681  -8.497  13.592  1.00  0.00    -0.351 OA
BRANCH  33  34
HETATM   34  C   UNL     1      41.138  -8.621  14.941  1.00  0.00     0.179 C 
BRANCH  34  35
HETATM   35  C   UNL     1      41.581  -7.273  15.536  1.00  0.00     0.002 C 
HETATM   36  C   UNL     1      41.579  -7.309  17.066  1.00  0.00     0.011 C 
HETATM   37  C   UNL     1      42.965  -6.892  15.014  1.00  0.00     0.011 C 
ENDBRANCH  34  35
ENDBRANCH  33  34
ENDBRANCH  30  33
ENDBRANCH  24  27
ENDBRANCH  21  23
ENDBRANCH   1  21
TORSDOF 9
ENDMDL
MODEL 3
REMARK VINA RESULT:      -9.2      1.853      2.483
REMARK  9 active torsions:
REMARK  status: ('A' for Active; 'I' for Inactive)
REMARK    1  A    between atoms: C_3  and  O_4 
REMARK    2  A    between atoms: C_5  and  C_6 
REMARK    3  A    between atoms: C_16  and  N_17 
REMARK    4  A    between atoms: N_17  and  C_18 
REMARK    5  A    between atoms: C_18  and  N_19 
REMARK       I    between atoms: N_19  and  C_20 
REMARK    6  A    between atoms: C_20  and  C_21 
REMARK    7  A    between atoms: C_24  and  O_25 
REMARK    8  A    between atoms: O_25  and  C_26 
REMARK    9  A    between atoms: C_26  and  C_27 
ROOT
HETATM    1  N   UNL     1      43.595 -12.549   7.561  1.00  0.00    -0.333 N 
HETATM    2  H   UNL     1      43.523 -13.109   8.407  1.00  0.00     0.168 HD
ENDROOT
BRANCH   1   3
HETATM    3  C   UNL     1      43.198 -13.195   6.373  1.00  0.00     0.035 A 
HETATM    4  C   UNL     1      43.413 -14.545   6.097  1.00  0.00     0.048 A 
HETATM    5  C   UNL     1      42.941 -15.139   4.909  1.00  0.00     0.053 A 
HETATM    6  C   UNL     1      42.218 -14.344   4.002  1.00  0.00     0.086 A 
HETATM    7  C   UNL     1      41.992 -12.985   4.258  1.00  0.00    -0.026 A 
HETATM    8  C   UNL     1      41.182 -12.129   3.323  1.00  0.00     0.051 C 
HETATM    9  C   UNL     1      42.473 -12.429   5.453  1.00  0.00     0.039 A 
BRANCH   5  10
HETATM   10  C   UNL     1      43.238 -16.556   4.697  1.00  0.00     0.183 A 
HETATM   11  O   UNL     1      43.172 -17.015   3.404  1.00  0.00    -0.289 OA
HETATM   12  C   UNL     1      43.464 -18.344   3.511  1.00  0.00     0.106 A 
HETATM   13  C   UNL     1      43.705 -18.619   4.848  1.00  0.00     0.093 A 
HETATM   14  C   UNL     1      43.518 -19.279   2.487  1.00  0.00     0.040 A 
HETATM   15  N   UNL     1      43.561 -17.474   5.592  1.00  0.00    -0.221 NA
HETATM   16  C   UNL     1      44.033 -19.928   5.222  1.00  0.00     0.034 A 
HETATM   17  C   UNL     1      44.100 -20.904   4.216  1.00  0.00     0.002 A 
HETATM   18  C   UNL     1      43.845 -20.584   2.875  1.00  0.00     0.003 A 
ENDBRANCH   5  10
BRANCH   6  19
HETATM   19  O   UNL     1      41.695 -14.841   2.835  1.00  0.00    -0.359 OA
HETATM   20  H   UNL     1      40.726 -14.912   2.921  1.00  0.00     0.218 HD
ENDBRANCH   6  19
ENDBRANCH   1   3
BRANCH   1  21
HETATM   21  C   UNL     1      44.218 -11.351   7.797  1.00  0.00     0.179 C 
HETATM   22  S   UNL     1      45.650 -11.085   6.974  1.00  0.00    -0.040 SA
BRANCH  21  23
HETATM   23  N   UNL     1      43.651 -10.533   8.750  1.00  0.00    -0.299 N 
HETATM   24  C   UNL     1      43.964 -10.458  10.104  1.00  0.00     0.257 C 
HETATM   25  O   UNL     1      45.061 -10.688  10.597  1.00  0.00    -0.267 OA
HETATM   26  H   UNL     1      42.719 -10.244   8.492  1.00  0.00     0.171 HD
BRANCH  24  27
HETATM   27  C   UNL     1      42.872  -9.985  10.994  1.00  0.00     0.032 A 
HETATM   28  C   UNL     1      42.902 -10.151  12.384  1.00  0.00     0.020 A 
HETATM   29  C   UNL     1      41.854  -9.655  13.171  1.00  0.00     0.038 A 
HETATM   30  C   UNL     1      40.774  -9.001  12.576  1.00  0.00     0.068 A 
HETATM   31  C   UNL     1      40.728  -8.880  11.186  1.00  0.00     0.038 A 
HETATM   32  C   UNL     1      41.769  -9.366  10.396  1.00  0.00     0.020 A 
BRANCH  30  33
HETATM   33  O   UNL     1      39.700  -8.466  13.228  1.00  0.00    -0.351 OA
BRANCH  33  34
HETATM   34  C   UNL     1      39.896  -7.279  14.001  1.00  0.00     0.179 C 
BRANCH  34  35
HETATM   35  C   UNL     1      38.826  -6.212  13.717  1.00  0.00     0.002 C 
HETATM   36  C   UNL     1      37.644  -6.797  12.940  1.00  0.00     0.011 C 
HETATM   37  C   UNL     1      38.344  -5.584  15.024  1.00  0.00     0.011 C 
ENDBRANCH  34  35
ENDBRANCH  33  34
ENDBRANCH  30  33
ENDBRANCH  24  27
ENDBRANCH  21  23
ENDBRANCH   1  21
TORSDOF 9
ENDMDL
MODEL 4
REMARK VINA RESULT:      -9.1      2.669     10.973
REMARK  9 active torsions:
REMARK  status: ('A' for Active; 'I' for Inactive)
REMARK    1  A    between atoms: C_3  and  O_4 
REMARK    2  A    between atoms: C_5  and  C_6 
REMARK    3  A    between atoms: C_16  and  N_17 
REMARK    4  A    between atoms: N_17  and  C_18 
REMARK    5  A    between atoms: C_18  and  N_19 
REMARK       I    between atoms: N_19  and  C_20 
REMARK    6  A    between atoms: C_20  and  C_21 
REMARK    7  A    between atoms: C_24  and  O_25 
REMARK    8  A    between atoms: O_25  and  C_26 
REMARK    9  A    between atoms: C_26  and  C_27 
ROOT
HETATM    1  N   UNL     1      41.096  -9.679   5.534  1.00  0.00    -0.333 N 
HETATM    2  H   UNL     1      41.285  -8.891   4.921  1.00  0.00     0.168 HD
ENDROOT
BRANCH   1   3
HETATM    3  C   UNL     1      42.038  -9.885   6.563  1.00  0.00     0.035 A 
HETATM    4  C   UNL     1      41.828  -9.558   7.903  1.00  0.00     0.048 A 
HETATM    5  C   UNL     1      42.795  -9.840   8.889  1.00  0.00     0.053 A 
HETATM    6  C   UNL     1      43.982 -10.486   8.502  1.00  0.00     0.086 A 
HETATM    7  C   UNL     1      44.214 -10.821   7.160  1.00  0.00    -0.026 A 
HETATM    8  C   UNL     1      45.457 -11.553   6.732  1.00  0.00     0.051 C 
HETATM    9  C   UNL     1      43.227 -10.529   6.206  1.00  0.00     0.039 A 
BRANCH   5  10
HETATM   10  C   UNL     1      42.496  -9.437  10.263  1.00  0.00     0.183 A 
HETATM   11  O   UNL     1      43.421  -8.639  10.890  1.00  0.00    -0.289 OA
HETATM   12  C   UNL     1      42.901  -8.449  12.137  1.00  0.00     0.106 A 
HETATM   13  C   UNL     1      41.692  -9.121  12.200  1.00  0.00     0.093 A 
HETATM   14  C   UNL     1      43.458  -7.719  13.179  1.00  0.00     0.040 A 
HETATM   15  N   UNL     1      41.443  -9.744  11.002  1.00  0.00    -0.221 NA
HETATM   16  C   UNL     1      40.952  -9.076  13.388  1.00  0.00     0.034 A 
HETATM   17  C   UNL     1      41.479  -8.348  14.466  1.00  0.00     0.002 A 
HETATM   18  C   UNL     1      42.709  -7.684  14.362  1.00  0.00     0.003 A 
ENDBRANCH   5  10
BRANCH   6  19
HETATM   19  O   UNL     1      44.966 -10.827   9.394  1.00  0.00    -0.359 OA
HETATM   20  H   UNL     1      44.557 -11.115  10.231  1.00  0.00     0.218 HD
ENDBRANCH   6  19
ENDBRANCH   1   3
BRANCH   1  21
HETATM   21  C   UNL     1      40.039 -10.429   5.087  1.00  0.00     0.179 C 
HETATM   22  S   UNL     1      38.538  -9.690   5.123  1.00  0.00    -0.040 SA
BRANCH  21  23
HETATM   23  N   UNL     1      40.307 -11.736   4.740  1.00  0.00    -0.299 N 
HETATM   24  C   UNL     1      40.140 -12.875   5.522  1.00  0.00     0.257 C 
HETATM   25  O   UNL     1      39.304 -13.020   6.405  1.00  0.00    -0.267 OA
HETATM   26  H   UNL     1      40.994 -11.797   4.005  1.00  0.00     0.171 HD
BRANCH  24  27
HETATM   27  C   UNL     1      41.019 -14.025   5.183  1.00  0.00     0.032 A 
HETATM   28  C   UNL     1      40.767 -15.328   5.630  1.00  0.00     0.020 A 
HETATM   29  C   UNL     1      41.618 -16.374   5.250  1.00  0.00     0.038 A 
HETATM   30  C   UNL     1      42.721 -16.124   4.432  1.00  0.00     0.068 A 
HETATM   31  C   UNL     1      42.992 -14.816   4.028  1.00  0.00     0.038 A 
HETATM   32  C   UNL     1      42.148 -13.769   4.398  1.00  0.00     0.020 A 
BRANCH  30  33
HETATM   33  O   UNL     1      43.617 -17.053   3.985  1.00  0.00    -0.351 OA
BRANCH  33  34
HETATM   34  C   UNL     1      43.246 -17.877   2.877  1.00  0.00     0.179 C 
BRANCH  34  35
HETATM   35  C   UNL     1      43.977 -19.230   2.883  1.00  0.00     0.002 C 
HETATM   36  C   UNL     1      44.122 -19.782   4.303  1.00  0.00     0.011 C 
HETATM   37  C   UNL     1      43.242 -20.234   1.996  1.00  0.00     0.011 C 
ENDBRANCH  34  35
ENDBRANCH  33  34
ENDBRANCH  30  33
ENDBRANCH  24  27
ENDBRANCH  21  23
ENDBRANCH   1  21
TORSDOF 9
ENDMDL
MODEL 5
REMARK VINA RESULT:      -9.0      1.122      1.597
REMARK  9 active torsions:
REMARK  status: ('A' for Active; 'I' for Inactive)
REMARK    1  A    between atoms: C_3  and  O_4 
REMARK    2  A    between atoms: C_5  and  C_6 
REMARK    3  A    between atoms: C_16  and  N_17 
REMARK    4  A    between atoms: N_17  and  C_18 
REMARK    5  A    between atoms: C_18  and  N_19 
REMARK       I    between atoms: N_19  and  C_20 
REMARK    6  A    between atoms: C_20  and  C_21 
REMARK    7  A    between atoms: C_24  and  O_25 
REMARK    8  A    between atoms: O_25  and  C_26 
REMARK    9  A    between atoms: C_26  and  C_27 
ROOT
HETATM    1  N   UNL     1      43.782 -11.304   8.264  1.00  0.00    -0.333 N 
HETATM    2  H   UNL     1      43.452 -11.948   8.978  1.00  0.00     0.168 HD
ENDROOT
BRANCH   1   3
HETATM    3  C   UNL     1      43.345 -11.581   6.952  1.00  0.00     0.035 A 
HETATM    4  C   UNL     1      43.423 -12.832   6.342  1.00  0.00     0.048 A 
HETATM    5  C   UNL     1      42.918 -13.051   5.044  1.00  0.00     0.053 A 
HETATM    6  C   UNL     1      42.305 -11.979   4.372  1.00  0.00     0.086 A 
HETATM    7  C   UNL     1      42.219 -10.712   4.966  1.00  0.00    -0.026 A 
HETATM    8  C   UNL     1      41.527  -9.565   4.282  1.00  0.00     0.051 C 
HETATM    9  C   UNL     1      42.728 -10.533   6.261  1.00  0.00     0.039 A 
BRANCH   5  10
HETATM   10  C   UNL     1      43.067 -14.392   4.479  1.00  0.00     0.183 A 
HETATM   11  O   UNL     1      43.494 -15.380   5.332  1.00  0.00    -0.289 OA
HETATM   12  C   UNL     1      43.564 -16.490   4.543  1.00  0.00     0.106 A 
HETATM   13  C   UNL     1      43.166 -16.129   3.266  1.00  0.00     0.093 A 
HETATM   14  C   UNL     1      43.959 -17.767   4.919  1.00  0.00     0.040 A 
HETATM   15  N   UNL     1      42.850 -14.793   3.237  1.00  0.00    -0.221 NA
HETATM   16  C   UNL     1      43.147 -17.103   2.261  1.00  0.00     0.034 A 
HETATM   17  C   UNL     1      43.538 -18.408   2.599  1.00  0.00     0.002 A 
HETATM   18  C   UNL     1      43.938 -18.731   3.903  1.00  0.00     0.003 A 
ENDBRANCH   5  10
BRANCH   6  19
HETATM   19  O   UNL     1      41.759 -12.104   3.119  1.00  0.00    -0.359 OA
HETATM   20  H   UNL     1      41.756 -13.045   2.862  1.00  0.00     0.218 HD
ENDBRANCH   6  19
ENDBRANCH   1   3
BRANCH   1  21
HETATM   21  C   UNL     1      44.702 -10.418   8.764  1.00  0.00     0.179 C 
HETATM   22  S   UNL     1      46.110 -10.234   7.880  1.00  0.00    -0.040 SA
BRANCH  21  23
HETATM   23  N   UNL     1      44.411  -9.842   9.982  1.00  0.00    -0.299 N 
HETATM   24  C   UNL     1      43.903 -10.465  11.119  1.00  0.00     0.257 C 
HETATM   25  O   UNL     1      44.085 -11.634  11.434  1.00  0.00    -0.267 OA
HETATM   26  H   UNL     1      44.231  -8.854   9.898  1.00  0.00     0.171 HD
BRANCH  24  27
HETATM   27  C   UNL     1      43.139  -9.591  12.047  1.00  0.00     0.032 A 
HETATM   28  C   UNL     1      43.528  -8.280  12.345  1.00  0.00     0.020 A 
HETATM   29  C   UNL     1      42.747  -7.496  13.205  1.00  0.00     0.038 A 
HETATM   30  C   UNL     1      41.584  -8.019  13.773  1.00  0.00     0.068 A 
HETATM   31  C   UNL     1      41.227  -9.342  13.508  1.00  0.00     0.038 A 
HETATM   32  C   UNL     1      41.995 -10.127  12.649  1.00  0.00     0.020 A 
BRANCH  30  33
HETATM   33  O   UNL     1      40.735  -7.359  14.615  1.00  0.00    -0.351 OA
BRANCH  33  34
HETATM   34  C   UNL     1      39.958  -6.280  14.089  1.00  0.00     0.179 C 
BRANCH  34  35
HETATM   35  C   UNL     1      39.172  -6.685  12.830  1.00  0.00     0.002 C 
HETATM   36  C   UNL     1      37.661  -6.621  13.069  1.00  0.00     0.011 C 
HETATM   37  C   UNL     1      39.561  -5.793  11.652  1.00  0.00     0.011 C 
ENDBRANCH  34  35
ENDBRANCH  33  34
ENDBRANCH  30  33
ENDBRANCH  24  27
ENDBRANCH  21  23
ENDBRANCH   1  21
TORSDOF 9
ENDMDL
MODEL 6
REMARK VINA RESULT:      -8.9      2.440      3.600
REMARK  9 active torsions:
REMARK  status: ('A' for Active; 'I' for Inactive)
REMARK    1  A    between atoms: C_3  and  O_4 
REMARK    2  A    between atoms: C_5  and  C_6 
REMARK    3  A    between atoms: C_16  and  N_17 
REMARK    4  A    between atoms: N_17  and  C_18 
REMARK    5  A    between atoms: C_18  and  N_19 
REMARK       I    between atoms: N_19  and  C_20 
REMARK    6  A    between atoms: C_20  and  C_21 
REMARK    7  A    between atoms: C_24  and  O_25 
REMARK    8  A    between atoms: O_25  and  C_26 
REMARK    9  A    between atoms: C_26  and  C_27 
ROOT
HETATM    1  N   UNL     1      42.325 -11.577   4.834  1.00  0.00    -0.333 N 
HETATM    2  H   UNL     1      42.940 -10.785   4.661  1.00  0.00     0.168 HD
ENDROOT
BRANCH   1   3
HETATM    3  C   UNL     1      42.287 -12.546   3.811  1.00  0.00     0.035 A 
HETATM    4  C   UNL     1      42.636 -13.886   3.979  1.00  0.00     0.048 A 
HETATM    5  C   UNL     1      42.523 -14.814   2.924  1.00  0.00     0.053 A 
HETATM    6  C   UNL     1      42.024 -14.369   1.688  1.00  0.00     0.086 A 
HETATM    7  C   UNL     1      41.669 -13.026   1.496  1.00  0.00    -0.026 A 
HETATM    8  C   UNL     1      41.091 -12.539   0.196  1.00  0.00     0.051 C 
HETATM    9  C   UNL     1      41.790 -12.131   2.570  1.00  0.00     0.039 A 
BRANCH   5  10
HETATM   10  C   UNL     1      42.937 -16.192   3.189  1.00  0.00     0.183 A 
HETATM   11  O   UNL     1      42.730 -17.105   2.184  1.00  0.00    -0.289 OA
HETATM   12  C   UNL     1      43.176 -18.282   2.710  1.00  0.00     0.106 A 
HETATM   13  C   UNL     1      43.642 -18.025   3.989  1.00  0.00     0.093 A 
HETATM   14  C   UNL     1      43.179 -19.529   2.101  1.00  0.00     0.040 A 
HETATM   15  N   UNL     1      43.487 -16.692   4.282  1.00  0.00    -0.221 NA
HETATM   16  C   UNL     1      44.163 -19.082   4.746  1.00  0.00     0.034 A 
HETATM   17  C   UNL     1      44.184 -20.360   4.166  1.00  0.00     0.002 A 
HETATM   18  C   UNL     1      43.700 -20.578   2.869  1.00  0.00     0.003 A 
ENDBRANCH   5  10
BRANCH   6  19
HETATM   19  O   UNL     1      41.851 -15.204   0.613  1.00  0.00    -0.359 OA
HETATM   20  H   UNL     1      41.898 -16.131   0.915  1.00  0.00     0.218 HD
ENDBRANCH   6  19
ENDBRANCH   1   3
BRANCH   1  21
HETATM   21  C   UNL     1      41.574 -11.399   5.967  1.00  0.00     0.179 C 
HETATM   22  S   UNL     1      40.080 -12.152   5.991  1.00  0.00    -0.040 SA
BRANCH  21  23
HETATM   23  N   UNL     1      42.086 -10.551   6.925  1.00  0.00    -0.299 N 
HETATM   24  C   UNL     1      43.362 -10.566   7.481  1.00  0.00     0.257 C 
HETATM   25  O   UNL     1      44.381 -10.952   6.922  1.00  0.00    -0.267 OA
HETATM   26  H   UNL     1      41.360 -10.136   7.488  1.00  0.00     0.171 HD
BRANCH  24  27
HETATM   27  C   UNL     1      43.478  -9.990   8.847  1.00  0.00     0.032 A 
HETATM   28  C   UNL     1      44.596 -10.198   9.663  1.00  0.00     0.020 A 
HETATM   29  C   UNL     1      44.657  -9.602  10.931  1.00  0.00     0.038 A 
HETATM   30  C   UNL     1      43.605  -8.806  11.386  1.00  0.00     0.068 A 
HETATM   31  C   UNL     1      42.474  -8.641  10.586  1.00  0.00     0.038 A 
HETATM   32  C   UNL     1      42.407  -9.226   9.322  1.00  0.00     0.020 A 
BRANCH  30  33
HETATM   33  O   UNL     1      43.546  -8.165  12.591  1.00  0.00    -0.351 OA
BRANCH  33  34
HETATM   34  C   UNL     1      42.490  -7.227  12.811  1.00  0.00     0.179 C 
BRANCH  34  35
HETATM   35  C   UNL     1      41.773  -7.456  14.152  1.00  0.00     0.002 C 
HETATM   36  C   UNL     1      41.364  -8.920  14.326  1.00  0.00     0.011 C 
HETATM   37  C   UNL     1      42.663  -7.012  15.312  1.00  0.00     0.011 C 
ENDBRANCH  34  35
ENDBRANCH  33  34
ENDBRANCH  30  33
ENDBRANCH  24  27
ENDBRANCH  21  23
ENDBRANCH   1  21
TORSDOF 9
ENDMDL
MODEL 7
REMARK VINA RESULT:      -8.8      2.222      3.268
REMARK  9 active torsions:
REMARK  status: ('A' for Active; 'I' for Inactive)
REMARK    1  A    between atoms: C_3  and  O_4 
REMARK    2  A    between atoms: C_5  and  C_6 
REMARK    3  A    between atoms: C_16  and  N_17 
REMARK    4  A    between atoms: N_17  and  C_18 
REMARK    5  A    between atoms: C_18  and  N_19 
REMARK       I    between atoms: N_19  and  C_20 
REMARK    6  A    between atoms: C_20  and  C_21 
REMARK    7  A    between atoms: C_24  and  O_25 
REMARK    8  A    between atoms: O_25  and  C_26 
REMARK    9  A    between atoms: C_26  and  C_27 
ROOT
HETATM    1  N   UNL     1      42.795 -11.808   5.036  1.00  0.00    -0.333 N 
HETATM    2  H   UNL     1      43.623 -11.220   4.978  1.00  0.00     0.168 HD
ENDROOT
BRANCH   1   3
HETATM    3  C   UNL     1      42.598 -12.685   3.950  1.00  0.00     0.035 A 
HETATM    4  C   UNL     1      42.846 -14.057   3.987  1.00  0.00     0.048 A 
HETATM    5  C   UNL     1      42.576 -14.884   2.878  1.00  0.00     0.053 A 
HETATM    6  C   UNL     1      42.024 -14.302   1.724  1.00  0.00     0.086 A 
HETATM    7  C   UNL     1      41.770 -12.924   1.664  1.00  0.00    -0.026 A 
HETATM    8  C   UNL     1      41.137 -12.289   0.456  1.00  0.00     0.051 C 
HETATM    9  C   UNL     1      42.046 -12.133   2.789  1.00  0.00     0.039 A 
BRANCH   5  10
HETATM   10  C   UNL     1      42.892 -16.307   3.004  1.00  0.00     0.183 A 
HETATM   11  O   UNL     1      43.355 -16.732   4.225  1.00  0.00    -0.289 OA
HETATM   12  C   UNL     1      43.585 -18.065   4.045  1.00  0.00     0.106 A 
HETATM   13  C   UNL     1      43.238 -18.383   2.742  1.00  0.00     0.093 A 
HETATM   14  C   UNL     1      44.077 -18.968   4.978  1.00  0.00     0.040 A 
HETATM   15  N   UNL     1      42.796 -17.257   2.090  1.00  0.00    -0.221 NA
HETATM   16  C   UNL     1      43.380 -19.706   2.306  1.00  0.00     0.034 A 
HETATM   17  C   UNL     1      43.873 -20.651   3.218  1.00  0.00     0.002 A 
HETATM   18  C   UNL     1      44.216 -20.287   4.528  1.00  0.00     0.003 A 
ENDBRANCH   5  10
BRANCH   6  19
HETATM   19  O   UNL     1      41.701 -15.031   0.607  1.00  0.00    -0.359 OA
HETATM   20  H   UNL     1      42.028 -14.567  -0.186  1.00  0.00     0.218 HD
ENDBRANCH   6  19
ENDBRANCH   1   3
BRANCH   1  21
HETATM   21  C   UNL     1      42.004 -11.466   6.103  1.00  0.00     0.179 C 
HETATM   22  S   UNL     1      40.430 -12.032   6.069  1.00  0.00    -0.040 SA
BRANCH  21  23
HETATM   23  N   UNL     1      42.558 -10.623   7.042  1.00  0.00    -0.299 N 
HETATM   24  C   UNL     1      43.571 -10.910   7.952  1.00  0.00     0.257 C 
HETATM   25  O   UNL     1      44.472 -11.721   7.785  1.00  0.00    -0.267 OA
HETATM   26  H   UNL     1      41.928  -9.877   7.297  1.00  0.00     0.171 HD
BRANCH  24  27
HETATM   27  C   UNL     1      43.572 -10.094   9.195  1.00  0.00     0.032 A 
HETATM   28  C   UNL     1      43.291  -8.723   9.200  1.00  0.00     0.020 A 
HETATM   29  C   UNL     1      43.280  -8.015  10.409  1.00  0.00     0.038 A 
HETATM   30  C   UNL     1      43.553  -8.670  11.611  1.00  0.00     0.068 A 
HETATM   31  C   UNL     1      43.878 -10.027  11.594  1.00  0.00     0.038 A 
HETATM   32  C   UNL     1      43.887 -10.740  10.395  1.00  0.00     0.020 A 
BRANCH  30  33
HETATM   33  O   UNL     1      43.564  -8.099  12.852  1.00  0.00    -0.351 OA
BRANCH  33  34
HETATM   34  C   UNL     1      42.541  -8.470  13.779  1.00  0.00     0.179 C 
BRANCH  34  35
HETATM   35  C   UNL     1      41.631  -7.287  14.151  1.00  0.00     0.002 C 
HETATM   36  C   UNL     1      41.331  -7.260  15.652  1.00  0.00     0.011 C 
HETATM   37  C   UNL     1      42.268  -5.969  13.714  1.00  0.00     0.011 C 
ENDBRANCH  34  35
ENDBRANCH  33  34
ENDBRANCH  30  33
ENDBRANCH  24  27
ENDBRANCH  21  23
ENDBRANCH   1  21
TORSDOF 9
ENDMDL
MODEL 8
REMARK VINA RESULT:      -8.3      2.389     11.617
REMARK  9 active torsions:
REMARK  status: ('A' for Active; 'I' for Inactive)
REMARK    1  A    between atoms: C_3  and  O_4 
REMARK    2  A    between atoms: C_5  and  C_6 
REMARK    3  A    between atoms: C_16  and  N_17 
REMARK    4  A    between atoms: N_17  and  C_18 
REMARK    5  A    between atoms: C_18  and  N_19 
REMARK       I    between atoms: N_19  and  C_20 
REMARK    6  A    between atoms: C_20  and  C_21 
REMARK    7  A    between atoms: C_24  and  O_25 
REMARK    8  A    between atoms: O_25  and  C_26 
REMARK    9  A    between atoms: C_26  and  C_27 
ROOT
HETATM    1  N   UNL     1      43.531 -10.994   8.348  1.00  0.00    -0.333 N 
HETATM    2  H   UNL     1      43.015 -11.818   8.645  1.00  0.00     0.168 HD
ENDROOT
BRANCH   1   3
HETATM    3  C   UNL     1      42.914  -9.759   8.636  1.00  0.00     0.035 A 
HETATM    4  C   UNL     1      42.630  -9.299   9.921  1.00  0.00     0.048 A 
HETATM    5  C   UNL     1      42.059  -8.029  10.139  1.00  0.00     0.053 A 
HETATM    6  C   UNL     1      41.797  -7.210   9.027  1.00  0.00     0.086 A 
HETATM    7  C   UNL     1      42.072  -7.654   7.726  1.00  0.00    -0.026 A 
HETATM    8  C   UNL     1      41.842  -6.775   6.526  1.00  0.00     0.051 C 
HETATM    9  C   UNL     1      42.645  -8.922   7.547  1.00  0.00     0.039 A 
BRANCH   5  10
HETATM   10  C   UNL     1      41.774  -7.644  11.521  1.00  0.00     0.183 A 
HETATM   11  O   UNL     1      42.841  -7.612  12.387  1.00  0.00    -0.289 OA
HETATM   12  C   UNL     1      42.286  -7.255  13.581  1.00  0.00     0.106 A 
HETATM   13  C   UNL     1      40.927  -7.073  13.380  1.00  0.00     0.093 A 
HETATM   14  C   UNL     1      42.937  -7.092  14.797  1.00  0.00     0.040 A 
HETATM   15  N   UNL     1      40.614  -7.321  12.066  1.00  0.00    -0.221 NA
HETATM   16  C   UNL     1      40.127  -6.695  14.465  1.00  0.00     0.034 A 
HETATM   17  C   UNL     1      40.745  -6.519  15.712  1.00  0.00     0.002 A 
HETATM   18  C   UNL     1      42.124  -6.716  15.873  1.00  0.00     0.003 A 
ENDBRANCH   5  10
BRANCH   6  19
HETATM   19  O   UNL     1      41.270  -5.948   9.142  1.00  0.00    -0.359 OA
HETATM   20  H   UNL     1      41.672  -5.500   9.910  1.00  0.00     0.218 HD
ENDBRANCH   6  19
ENDBRANCH   1   3
BRANCH   1  21
HETATM   21  C   UNL     1      44.630 -11.325   7.597  1.00  0.00     0.179 C 
HETATM   22  S   UNL     1      46.008 -10.415   7.861  1.00  0.00    -0.040 SA
BRANCH  21  23
HETATM   23  N   UNL     1      44.459 -12.307   6.646  1.00  0.00    -0.299 N 
HETATM   24  C   UNL     1      43.271 -12.922   6.261  1.00  0.00     0.257 C 
HETATM   25  O   UNL     1      42.159 -12.410   6.291  1.00  0.00    -0.267 OA
HETATM   26  H   UNL     1      45.304 -12.836   6.495  1.00  0.00     0.171 HD
BRANCH  24  27
HETATM   27  C   UNL     1      43.406 -14.293   5.701  1.00  0.00     0.032 A 
HETATM   28  C   UNL     1      42.918 -14.645   4.437  1.00  0.00     0.020 A 
HETATM   29  C   UNL     1      43.104 -15.948   3.954  1.00  0.00     0.038 A 
HETATM   30  C   UNL     1      43.769 -16.899   4.730  1.00  0.00     0.068 A 
HETATM   31  C   UNL     1      44.211 -16.553   6.007  1.00  0.00     0.038 A 
HETATM   32  C   UNL     1      44.035 -15.258   6.494  1.00  0.00     0.020 A 
BRANCH  30  33
HETATM   33  O   UNL     1      44.021 -18.193   4.372  1.00  0.00    -0.351 OA
BRANCH  33  34
HETATM   34  C   UNL     1      43.925 -18.546   2.990  1.00  0.00     0.179 C 
BRANCH  34  35
HETATM   35  C   UNL     1      44.148 -20.050   2.753  1.00  0.00     0.002 C 
HETATM   36  C   UNL     1      43.816 -20.869   4.003  1.00  0.00     0.011 C 
HETATM   37  C   UNL     1      43.312 -20.530   1.567  1.00  0.00     0.011 C 
ENDBRANCH  34  35
ENDBRANCH  33  34
ENDBRANCH  30  33
ENDBRANCH  24  27
ENDBRANCH  21  23
ENDBRANCH   1  21
TORSDOF 9
ENDMDL
MODEL 9
REMARK VINA RESULT:      -8.3      2.246      2.977
REMARK  9 active torsions:
REMARK  status: ('A' for Active; 'I' for Inactive)
REMARK    1  A    between atoms: C_3  and  O_4 
REMARK    2  A    between atoms: C_5  and  C_6 
REMARK    3  A    between atoms: C_16  and  N_17 
REMARK    4  A    between atoms: N_17  and  C_18 
REMARK    5  A    between atoms: C_18  and  N_19 
REMARK       I    between atoms: N_19  and  C_20 
REMARK    6  A    between atoms: C_20  and  C_21 
REMARK    7  A    between atoms: C_24  and  O_25 
REMARK    8  A    between atoms: O_25  and  C_26 
REMARK    9  A    between atoms: C_26  and  C_27 
ROOT
HETATM    1  N   UNL     1      42.196 -12.050   6.377  1.00  0.00    -0.333 N 
HETATM    2  H   UNL     1      41.448 -12.412   6.963  1.00  0.00     0.168 HD
ENDROOT
BRANCH   1   3
HETATM    3  C   UNL     1      42.299 -12.634   5.098  1.00  0.00     0.035 A 
HETATM    4  C   UNL     1      42.540 -13.988   4.866  1.00  0.00     0.048 A 
HETATM    5  C   UNL     1      42.578 -14.515   3.559  1.00  0.00     0.053 A 
HETATM    6  C   UNL     1      42.343 -13.648   2.477  1.00  0.00     0.086 A 
HETATM    7  C   UNL     1      42.102 -12.283   2.689  1.00  0.00    -0.026 A 
HETATM    8  C   UNL     1      41.804 -11.348   1.549  1.00  0.00     0.051 C 
HETATM    9  C   UNL     1      42.067 -11.795   4.004  1.00  0.00     0.039 A 
BRANCH   5  10
HETATM   10  C   UNL     1      42.861 -15.943   3.414  1.00  0.00     0.183 A 
HETATM   11  O   UNL     1      43.365 -16.589   4.517  1.00  0.00    -0.289 OA
HETATM   12  C   UNL     1      43.552 -17.871   4.091  1.00  0.00     0.106 A 
HETATM   13  C   UNL     1      43.142 -17.944   2.770  1.00  0.00     0.093 A 
HETATM   14  C   UNL     1      44.059 -18.936   4.824  1.00  0.00     0.040 A 
HETATM   15  N   UNL     1      42.702 -16.712   2.351  1.00  0.00    -0.221 NA
HETATM   16  C   UNL     1      43.231 -19.170   2.099  1.00  0.00     0.034 A 
HETATM   17  C   UNL     1      43.737 -20.273   2.804  1.00  0.00     0.002 A 
HETATM   18  C   UNL     1      44.144 -20.155   4.140  1.00  0.00     0.003 A 
ENDBRANCH   5  10
BRANCH   6  19
HETATM   19  O   UNL     1      42.331 -14.075   1.174  1.00  0.00    -0.359 OA
HETATM   20  H   UNL     1      42.886 -14.873   1.091  1.00  0.00     0.218 HD
ENDBRANCH   6  19
ENDBRANCH   1   3
BRANCH   1  21
HETATM   21  C   UNL     1      43.008 -11.186   7.066  1.00  0.00     0.179 C 
HETATM   22  S   UNL     1      44.628 -11.197   6.647  1.00  0.00    -0.040 SA
BRANCH  21  23
HETATM   23  N   UNL     1      42.426 -10.467   8.088  1.00  0.00    -0.299 N 
HETATM   24  C   UNL     1      41.567  -9.377   7.980  1.00  0.00     0.257 C 
HETATM   25  O   UNL     1      40.792  -9.167   7.055  1.00  0.00    -0.267 OA
HETATM   26  H   UNL     1      42.952 -10.536   8.945  1.00  0.00     0.171 HD
BRANCH  24  27
HETATM   27  C   UNL     1      41.561  -8.443   9.136  1.00  0.00     0.032 A 
HETATM   28  C   UNL     1      40.390  -8.087   9.816  1.00  0.00     0.020 A 
HETATM   29  C   UNL     1      40.456  -7.224  10.918  1.00  0.00     0.038 A 
HETATM   30  C   UNL     1      41.684  -6.712  11.340  1.00  0.00     0.068 A 
HETATM   31  C   UNL     1      42.841  -7.033  10.629  1.00  0.00     0.038 A 
HETATM   32  C   UNL     1      42.785  -7.895   9.534  1.00  0.00     0.020 A 
BRANCH  30  33
HETATM   33  O   UNL     1      41.883  -5.874  12.399  1.00  0.00    -0.351 OA
BRANCH  33  34
HETATM   34  C   UNL     1      41.140  -6.107  13.599  1.00  0.00     0.179 C 
BRANCH  34  35
HETATM   35  C   UNL     1      41.859  -7.074  14.555  1.00  0.00     0.002 C 
HETATM   36  C   UNL     1      41.347  -8.507  14.392  1.00  0.00     0.011 C 
HETATM   37  C   UNL     1      43.369  -7.020  14.327  1.00  0.00     0.011 C 
ENDBRANCH  34  35
ENDBRANCH  33  34
ENDBRANCH  30  33
ENDBRANCH  24  27
ENDBRANCH  21  23
ENDBRANCH   1  21
TORSDOF 9
ENDMDL
MODEL 10
REMARK VINA RESULT:      -8.1      2.123     11.953
REMARK  9 active torsions:
REMARK  status: ('A' for Active; 'I' for Inactive)
REMARK    1  A    between atoms: C_3  and  O_4 
REMARK    2  A    between atoms: C_5  and  C_6 
REMARK    3  A    between atoms: C_16  and  N_17 
REMARK    4  A    between atoms: N_17  and  C_18 
REMARK    5  A    between atoms: C_18  and  N_19 
REMARK       I    between atoms: N_19  and  C_20 
REMARK    6  A    between atoms: C_20  and  C_21 
REMARK    7  A    between atoms: C_24  and  O_25 
REMARK    8  A    between atoms: O_25  and  C_26 
REMARK    9  A    between atoms: C_26  and  C_27 
ROOT
HETATM    1  N   UNL     1      43.283  -9.876  10.550  1.00  0.00    -0.333 N 
HETATM    2  H   UNL     1      43.874 -10.430  11.166  1.00  0.00     0.168 HD
ENDROOT
BRANCH   1   3
HETATM    3  C   UNL     1      42.102  -9.377  11.135  1.00  0.00     0.035 A 
HETATM    4  C   UNL     1      42.007  -8.904  12.444  1.00  0.00     0.048 A 
HETATM    5  C   UNL     1      40.804  -8.369  12.948  1.00  0.00     0.053 A 
HETATM    6  C   UNL     1      39.690  -8.296  12.093  1.00  0.00     0.086 A 
HETATM    7  C   UNL     1      39.763  -8.768  10.775  1.00  0.00    -0.026 A 
HETATM    8  C   UNL     1      38.598  -8.657   9.830  1.00  0.00     0.051 C 
HETATM    9  C   UNL     1      40.978  -9.290  10.306  1.00  0.00     0.039 A 
BRANCH   5  10
HETATM   10  C   UNL     1      40.795  -7.921  14.340  1.00  0.00     0.183 A 
HETATM   11  O   UNL     1      40.082  -6.781  14.619  1.00  0.00    -0.289 OA
HETATM   12  C   UNL     1      40.269  -6.593  15.957  1.00  0.00     0.106 A 
HETATM   13  C   UNL     1      41.065  -7.627  16.423  1.00  0.00     0.093 A 
HETATM   14  C   UNL     1      39.767  -5.564  16.742  1.00  0.00     0.040 A 
HETATM   15  N   UNL     1      41.391  -8.467  15.387  1.00  0.00    -0.221 NA
HETATM   16  C   UNL     1      41.402  -7.664  17.782  1.00  0.00     0.034 A 
HETATM   17  C   UNL     1      40.914  -6.642  18.610  1.00  0.00     0.002 A 
HETATM   18  C   UNL     1      40.113  -5.611  18.098  1.00  0.00     0.003 A 
ENDBRANCH   5  10
BRANCH   6  19
HETATM   19  O   UNL     1      38.488  -7.765  12.485  1.00  0.00    -0.359 OA
HETATM   20  H   UNL     1      38.206  -7.092  11.837  1.00  0.00     0.218 HD
ENDBRANCH   6  19
ENDBRANCH   1   3
BRANCH   1  21
HETATM   21  C   UNL     1      43.735  -9.900   9.256  1.00  0.00     0.179 C 
HETATM   22  S   UNL     1      44.458  -8.498   8.698  1.00  0.00    -0.040 SA
BRANCH  21  23
HETATM   23  N   UNL     1      43.468 -11.037   8.525  1.00  0.00    -0.299 N 
HETATM   24  C   UNL     1      44.279 -11.647   7.572  1.00  0.00     0.257 C 
HETATM   25  O   UNL     1      45.502 -11.624   7.555  1.00  0.00    -0.267 OA
HETATM   26  H   UNL     1      42.477 -11.208   8.443  1.00  0.00     0.171 HD
BRANCH  24  27
HETATM   27  C   UNL     1      43.570 -12.450   6.541  1.00  0.00     0.032 A 
HETATM   28  C   UNL     1      42.666 -11.887   5.633  1.00  0.00     0.020 A 
HETATM   29  C   UNL     1      42.052 -12.693   4.665  1.00  0.00     0.038 A 
HETATM   30  C   UNL     1      42.334 -14.059   4.604  1.00  0.00     0.068 A 
HETATM   31  C   UNL     1      43.201 -14.622   5.542  1.00  0.00     0.038 A 
HETATM   32  C   UNL     1      43.819 -13.826   6.505  1.00  0.00     0.020 A 
BRANCH  30  33
HETATM   33  O   UNL     1      41.813 -14.947   3.707  1.00  0.00    -0.351 OA
BRANCH  33  34
HETATM   34  C   UNL     1      42.169 -16.327   3.831  1.00  0.00     0.179 C 
BRANCH  34  35
HETATM   35  C   UNL     1      42.608 -16.941   2.492  1.00  0.00     0.002 C 
HETATM   36  C   UNL     1      43.323 -15.914   1.611  1.00  0.00     0.011 C 
HETATM   37  C   UNL     1      43.509 -18.152   2.733  1.00  0.00     0.011 C 
ENDBRANCH  34  35
ENDBRANCH  33  34
ENDBRANCH  30  33
ENDBRANCH  24  27
ENDBRANCH  21  23
ENDBRANCH   1  21
TORSDOF 9
ENDMDL
