MODEL 1
REMARK VINA RESULT:      -9.5      0.000      0.000
REMARK  9 active torsions:
REMARK  status: ('A' for Active; 'I' for Inactive)
REMARK    1  A    between atoms: C_2  and  C_3 
REMARK    2  A    between atoms: C_3  and  N_4 
REMARK    3  A    between atoms: N_4  and  C_7 
REMARK    4  A    between atoms: C_12  and  N_13 
REMARK       I    between atoms: N_13  and  C_14 
REMARK    5  A    between atoms: C_14  and  C_16 
REMARK    6  A    between atoms: C_20  and  C_22 
REMARK    7  A    between atoms: C_22  and  N_24 
REMARK       I    between atoms: N_24  and  C_25 
REMARK    8  A    between atoms: C_25  and  C_27 
REMARK    9  A    between atoms: C_30  and  O_31 
ROOT
HETATM    1  C   UNL     1      44.629 -10.711   8.371  1.00  0.00     0.033 A 
HETATM    2  C   UNL     1      45.946 -10.665   7.896  1.00  0.00     0.017 A 
HETATM    3  C   UNL     1      46.244 -11.073   6.598  1.00  0.00     0.002 A 
HETATM    4  C   UNL     1      45.227 -11.521   5.756  1.00  0.00     0.009 A 
HETATM    5  C   UNL     1      43.894 -11.545   6.193  1.00  0.00    -0.035 A 
HETATM    6  C   UNL     1      43.608 -11.144   7.514  1.00  0.00     0.026 A 
ENDROOT
BRANCH   1   7
HETATM    7  C   UNL     1      44.376 -10.256   9.771  1.00  0.00     0.257 C 
HETATM    8  N   UNL     1      43.236  -9.504   9.971  1.00  0.00    -0.301 N 
HETATM    9  H   UNL     1      42.583  -9.322   9.225  1.00  0.00     0.171 HD
HETATM   10  O   UNL     1      45.180 -10.596  10.633  1.00  0.00    -0.267 OA
BRANCH   8  11
HETATM   11  C   UNL     1      42.908  -9.035  11.215  1.00  0.00     0.174 A 
HETATM   12  N   UNL     1      43.417  -8.025  11.877  1.00  0.00    -0.228 NA
HETATM   13  C   UNL     1      42.803  -7.910  13.093  1.00  0.00     0.050 A 
HETATM   14  C   UNL     1      43.197  -6.839  14.045  1.00  0.00     0.062 C 
HETATM   15  C   UNL     1      41.795  -8.821  13.332  1.00  0.00     0.013 A 
HETATM   16  C   UNL     1      42.630  -7.116  15.448  1.00  0.00     0.039 C 
HETATM   17  C   UNL     1      41.153  -7.561  15.380  1.00  0.00     0.191 C 
HETATM   18  C   UNL     1      40.983  -8.884  14.577  1.00  0.00     0.081 C 
HETATM   19  S   UNL     1      41.648  -9.888  12.009  1.00  0.00    -0.055 SA
BRANCH  17  20
HETATM   20  N   UNL     1      40.610  -7.762  16.779  1.00  0.00    -0.071 N 
HETATM   21  H   UNL     1      40.234  -8.717  16.871  1.00  0.00     0.277 HD
HETATM   22  H   UNL     1      39.806  -7.133  16.913  1.00  0.00     0.277 HD
BRANCH  20  23
HETATM   23  C   UNL     1      41.581  -7.505  17.895  1.00  0.00     0.232 C 
BRANCH  23  24
HETATM   24  C   UNL     1      40.836  -7.555  19.222  1.00  0.00     0.023 C 
HETATM   25  C   UNL     1      39.576  -8.398  19.109  1.00  0.00     0.007 C 
ENDBRANCH  23  24
ENDBRANCH  20  23
ENDBRANCH  17  20
ENDBRANCH   8  11
ENDBRANCH   1   7
BRANCH   5  26
HETATM   26  C   UNL     1      42.762 -12.036   5.305  1.00  0.00     0.114 C 
HETATM   27  C   UNL     1      42.408 -11.068   4.175  1.00  0.00     0.037 C 
BRANCH  26  28
HETATM   28  N   UNL     1      43.097 -13.343   4.767  1.00  0.00    -0.349 N 
HETATM   29  C   UNL     1      42.167 -14.355   4.676  1.00  0.00     0.252 C 
HETATM   30  O   UNL     1      40.982 -14.230   4.964  1.00  0.00    -0.268 OA
HETATM   31  H   UNL     1      44.063 -13.520   4.534  1.00  0.00     0.163 HD
BRANCH  29  32
HETATM   32  C   UNL     1      42.673 -15.652   4.157  1.00  0.00     0.033 A 
HETATM   33  C   UNL     1      42.779 -15.822   2.773  1.00  0.00     0.020 A 
HETATM   34  C   UNL     1      43.268 -17.023   2.243  1.00  0.00     0.039 A 
HETATM   35  C   UNL     1      43.644 -18.069   3.092  1.00  0.00     0.089 A 
HETATM   36  C   UNL     1      43.509 -17.895   4.480  1.00  0.00     0.068 A 
HETATM   37 CL   UNL     1      43.934 -19.152   5.591  1.00  0.00    -0.081 Cl
HETATM   38  C   UNL     1      43.025 -16.696   5.014  1.00  0.00     0.043 A 
BRANCH  35  39
HETATM   39  O   UNL     1      44.133 -19.275   2.665  1.00  0.00    -0.354 OA
HETATM   40  C   UNL     1      43.233 -20.171   2.028  1.00  0.00     0.210 C 
ENDBRANCH  35  39
ENDBRANCH  29  32
ENDBRANCH  26  28
ENDBRANCH   5  26
TORSDOF 9
ENDMDL
MODEL 2
REMARK VINA RESULT:      -8.8      1.547      1.863
REMARK  9 active torsions:
REMARK  status: ('A' for Active; 'I' for Inactive)
REMARK    1  A    between atoms: C_2  and  C_3 
REMARK    2  A    between atoms: C_3  and  N_4 
REMARK    3  A    between atoms: N_4  and  C_7 
REMARK    4  A    between atoms: C_12  and  N_13 
REMARK       I    between atoms: N_13  and  C_14 
REMARK    5  A    between atoms: C_14  and  C_16 
REMARK    6  A    between atoms: C_20  and  C_22 
REMARK    7  A    between atoms: C_22  and  N_24 
REMARK       I    between atoms: N_24  and  C_25 
REMARK    8  A    between atoms: C_25  and  C_27 
REMARK    9  A    between atoms: C_30  and  O_31 
ROOT
HETATM    1  C   UNL     1      44.069 -10.015   7.958  1.00  0.00     0.033 A 
HETATM    2  C   UNL     1      45.449 -10.254   7.906  1.00  0.00     0.017 A 
HETATM    3  C   UNL     1      45.996 -11.020   6.879  1.00  0.00     0.002 A 
HETATM    4  C   UNL     1      45.172 -11.546   5.885  1.00  0.00     0.009 A 
HETATM    5  C   UNL     1      43.791 -11.295   5.893  1.00  0.00    -0.035 A 
HETATM    6  C   UNL     1      43.248 -10.532   6.946  1.00  0.00     0.026 A 
ENDROOT
BRANCH   1   7
HETATM    7  C   UNL     1      43.547  -9.184   9.083  1.00  0.00     0.257 C 
HETATM    8  N   UNL     1      43.380  -9.829  10.292  1.00  0.00    -0.301 N 
HETATM    9  H   UNL     1      43.648 -10.793  10.420  1.00  0.00     0.171 HD
HETATM   10  O   UNL     1      43.327  -7.998   8.859  1.00  0.00    -0.267 OA
BRANCH   8  11
HETATM   11  C   UNL     1      42.906  -9.163  11.389  1.00  0.00     0.174 A 
HETATM   12  N   UNL     1      43.562  -8.445  12.266  1.00  0.00    -0.228 NA
HETATM   13  C   UNL     1      42.701  -7.965  13.213  1.00  0.00     0.050 A 
HETATM   14  C   UNL     1      43.193  -7.116  14.329  1.00  0.00     0.062 C 
HETATM   15  C   UNL     1      41.376  -8.295  13.024  1.00  0.00     0.013 A 
HETATM   16  C   UNL     1      42.131  -6.990  15.434  1.00  0.00     0.039 C 
HETATM   17  C   UNL     1      40.732  -6.720  14.840  1.00  0.00     0.191 C 
HETATM   18  C   UNL     1      40.259  -7.881  13.917  1.00  0.00     0.081 C 
HETATM   19  S   UNL     1      41.212  -9.283  11.642  1.00  0.00    -0.055 SA
BRANCH  17  20
HETATM   20  N   UNL     1      39.724  -6.538  15.955  1.00  0.00    -0.071 N 
HETATM   21  H   UNL     1      39.112  -7.365  16.008  1.00  0.00     0.277 HD
HETATM   22  H   UNL     1      39.106  -5.749  15.715  1.00  0.00     0.277 HD
BRANCH  20  23
HETATM   23  C   UNL     1      40.302  -6.266  17.314  1.00  0.00     0.232 C 
BRANCH  23  24
HETATM   24  C   UNL     1      40.101  -4.796  17.654  1.00  0.00     0.023 C 
HETATM   25  C   UNL     1      40.499  -4.509  19.094  1.00  0.00     0.007 C 
ENDBRANCH  23  24
ENDBRANCH  20  23
ENDBRANCH  17  20
ENDBRANCH   8  11
ENDBRANCH   1   7
BRANCH   5  26
HETATM   26  C   UNL     1      42.862 -11.862   4.831  1.00  0.00     0.114 C 
HETATM   27  C   UNL     1      42.938 -11.121   3.495  1.00  0.00     0.037 C 
BRANCH  26  28
HETATM   28  N   UNL     1      43.139 -13.275   4.645  1.00  0.00    -0.349 N 
HETATM   29  C   UNL     1      42.605 -14.239   5.470  1.00  0.00     0.252 C 
HETATM   30  O   UNL     1      41.806 -14.008   6.372  1.00  0.00    -0.268 OA
HETATM   31  H   UNL     1      43.810 -13.531   3.934  1.00  0.00     0.163 HD
BRANCH  29  32
HETATM   32  C   UNL     1      43.026 -15.635   5.189  1.00  0.00     0.033 A 
HETATM   33  C   UNL     1      43.638 -16.368   6.210  1.00  0.00     0.020 A 
HETATM   34  C   UNL     1      44.034 -17.694   5.992  1.00  0.00     0.039 A 
HETATM   35  C   UNL     1      43.834 -18.295   4.745  1.00  0.00     0.089 A 
HETATM   36  C   UNL     1      43.240 -17.540   3.719  1.00  0.00     0.068 A 
HETATM   37 CL   UNL     1      42.979 -18.210   2.144  1.00  0.00    -0.081 Cl
HETATM   38  C   UNL     1      42.839 -16.218   3.934  1.00  0.00     0.043 A 
BRANCH  35  39
HETATM   39  O   UNL     1      44.186 -19.583   4.440  1.00  0.00    -0.354 OA
HETATM   40  C   UNL     1      44.061 -20.567   5.458  1.00  0.00     0.210 C 
ENDBRANCH  35  39
ENDBRANCH  29  32
ENDBRANCH  26  28
ENDBRANCH   5  26
TORSDOF 9
ENDMDL
MODEL 3
REMARK VINA RESULT:      -8.6      3.825      6.711
REMARK  9 active torsions:
REMARK  status: ('A' for Active; 'I' for Inactive)
REMARK    1  A    between atoms: C_2  and  C_3 
REMARK    2  A    between atoms: C_3  and  N_4 
REMARK    3  A    between atoms: N_4  and  C_7 
REMARK    4  A    between atoms: C_12  and  N_13 
REMARK       I    between atoms: N_13  and  C_14 
REMARK    5  A    between atoms: C_14  and  C_16 
REMARK    6  A    between atoms: C_20  and  C_22 
REMARK    7  A    between atoms: C_22  and  N_24 
REMARK       I    between atoms: N_24  and  C_25 
REMARK    8  A    between atoms: C_25  and  C_27 
REMARK    9  A    between atoms: C_30  and  O_31 
ROOT
HETATM    1  C   UNL     1      43.459 -16.106   6.320  1.00  0.00     0.033 A 
HETATM    2  C   UNL     1      43.535 -17.292   7.061  1.00  0.00     0.017 A 
HETATM    3  C   UNL     1      43.526 -18.529   6.420  1.00  0.00     0.002 A 
HETATM    4  C   UNL     1      43.453 -18.593   5.029  1.00  0.00     0.009 A 
HETATM    5  C   UNL     1      43.411 -17.421   4.259  1.00  0.00    -0.035 A 
HETATM    6  C   UNL     1      43.405 -16.177   4.921  1.00  0.00     0.026 A 
ENDROOT
BRANCH   1   7
HETATM    7  C   UNL     1      43.477 -14.813   7.068  1.00  0.00     0.257 C 
HETATM    8  N   UNL     1      43.807 -13.690   6.337  1.00  0.00    -0.301 N 
HETATM    9  H   UNL     1      43.971 -13.733   5.343  1.00  0.00     0.171 HD
HETATM   10  O   UNL     1      43.181 -14.842   8.258  1.00  0.00    -0.267 OA
BRANCH   8  11
HETATM   11  C   UNL     1      43.854 -12.454   6.923  1.00  0.00     0.174 A 
HETATM   12  N   UNL     1      44.747 -11.964   7.747  1.00  0.00    -0.228 NA
HETATM   13  C   UNL     1      44.403 -10.689   8.100  1.00  0.00     0.050 A 
HETATM   14  C   UNL     1      45.254  -9.903   9.032  1.00  0.00     0.062 C 
HETATM   15  C   UNL     1      43.259 -10.202   7.505  1.00  0.00     0.013 A 
HETATM   16  C   UNL     1      44.505  -8.661   9.544  1.00  0.00     0.039 C 
HETATM   17  C   UNL     1      43.771  -7.935   8.396  1.00  0.00     0.191 C 
HETATM   18  C   UNL     1      42.696  -8.842   7.729  1.00  0.00     0.081 C 
HETATM   19  S   UNL     1      42.564 -11.400   6.510  1.00  0.00    -0.055 SA
BRANCH  17  20
HETATM   20  N   UNL     1      43.100  -6.684   8.923  1.00  0.00    -0.071 N 
HETATM   21  H   UNL     1      42.927  -6.030   8.146  1.00  0.00     0.277 HD
HETATM   22  H   UNL     1      43.755  -6.200   9.554  1.00  0.00     0.277 HD
BRANCH  20  23
HETATM   23  C   UNL     1      41.819  -6.903   9.677  1.00  0.00     0.232 C 
BRANCH  23  24
HETATM   24  C   UNL     1      42.055  -6.605  11.151  1.00  0.00     0.023 C 
HETATM   25  C   UNL     1      41.459  -7.694  12.030  1.00  0.00     0.007 C 
ENDBRANCH  23  24
ENDBRANCH  20  23
ENDBRANCH  17  20
ENDBRANCH   8  11
ENDBRANCH   1   7
BRANCH   5  26
HETATM   26  C   UNL     1      43.321 -17.455   2.742  1.00  0.00     0.114 C 
HETATM   27  C   UNL     1      43.032 -18.847   2.178  1.00  0.00     0.037 C 
BRANCH  26  28
HETATM   28  N   UNL     1      42.317 -16.507   2.292  1.00  0.00    -0.349 N 
HETATM   29  C   UNL     1      42.656 -15.293   1.734  1.00  0.00     0.252 C 
HETATM   30  O   UNL     1      43.807 -14.939   1.504  1.00  0.00    -0.268 OA
HETATM   31  H   UNL     1      41.349 -16.728   2.475  1.00  0.00     0.163 HD
BRANCH  29  32
HETATM   32  C   UNL     1      41.519 -14.408   1.375  1.00  0.00     0.033 A 
HETATM   33  C   UNL     1      41.175 -13.373   2.251  1.00  0.00     0.020 A 
HETATM   34  C   UNL     1      40.121 -12.505   1.942  1.00  0.00     0.039 A 
HETATM   35  C   UNL     1      39.391 -12.671   0.760  1.00  0.00     0.089 A 
HETATM   36  C   UNL     1      39.731 -13.731  -0.100  1.00  0.00     0.068 A 
HETATM   37 CL   UNL     1      38.860 -14.011  -1.569  1.00  0.00    -0.081 Cl
HETATM   38  C   UNL     1      40.785 -14.597   0.203  1.00  0.00     0.043 A 
BRANCH  35  39
HETATM   39  O   UNL     1      38.348 -11.872   0.374  1.00  0.00    -0.354 OA
HETATM   40  C   UNL     1      37.627 -11.183   1.387  1.00  0.00     0.210 C 
ENDBRANCH  35  39
ENDBRANCH  29  32
ENDBRANCH  26  28
ENDBRANCH   5  26
TORSDOF 9
ENDMDL
MODEL 4
REMARK VINA RESULT:      -8.5      4.182     12.710
REMARK  9 active torsions:
REMARK  status: ('A' for Active; 'I' for Inactive)
REMARK    1  A    between atoms: C_2  and  C_3 
REMARK    2  A    between atoms: C_3  and  N_4 
REMARK    3  A    between atoms: N_4  and  C_7 
REMARK    4  A    between atoms: C_12  and  N_13 
REMARK       I    between atoms: N_13  and  C_14 
REMARK    5  A    between atoms: C_14  and  C_16 
REMARK    6  A    between atoms: C_20  and  C_22 
REMARK    7  A    between atoms: C_22  and  N_24 
REMARK       I    between atoms: N_24  and  C_25 
REMARK    8  A    between atoms: C_25  and  C_27 
REMARK    9  A    between atoms: C_30  and  O_31 
ROOT
HETATM    1  C   UNL     1      44.098 -10.232   7.577  1.00  0.00     0.033 A 
HETATM    2  C   UNL     1      45.276  -9.583   7.970  1.00  0.00     0.017 A 
HETATM    3  C   UNL     1      45.230  -8.517   8.867  1.00  0.00     0.002 A 
HETATM    4  C   UNL     1      44.008  -8.098   9.391  1.00  0.00     0.009 A 
HETATM    5  C   UNL     1      42.816  -8.752   9.042  1.00  0.00    -0.035 A 
HETATM    6  C   UNL     1      42.875  -9.817   8.121  1.00  0.00     0.026 A 
ENDROOT
BRANCH   1   7
HETATM    7  C   UNL     1      44.217 -11.368   6.615  1.00  0.00     0.257 C 
HETATM    8  N   UNL     1      43.040 -12.007   6.279  1.00  0.00    -0.301 N 
HETATM    9  H   UNL     1      42.147 -11.687   6.619  1.00  0.00     0.171 HD
HETATM   10  O   UNL     1      45.334 -11.635   6.185  1.00  0.00    -0.267 OA
BRANCH   8  11
HETATM   11  C   UNL     1      43.033 -13.062   5.406  1.00  0.00     0.174 A 
HETATM   12  N   UNL     1      42.999 -13.051   4.097  1.00  0.00    -0.228 NA
HETATM   13  C   UNL     1      42.995 -14.332   3.621  1.00  0.00     0.050 A 
HETATM   14  C   UNL     1      42.957 -14.600   2.159  1.00  0.00     0.062 C 
HETATM   15  C   UNL     1      43.064 -15.317   4.582  1.00  0.00     0.013 A 
HETATM   16  C   UNL     1      42.613 -16.072   1.879  1.00  0.00     0.039 C 
HETATM   17  C   UNL     1      43.409 -17.021   2.801  1.00  0.00     0.191 C 
HETATM   18  C   UNL     1      43.081 -16.779   4.304  1.00  0.00     0.081 C 
HETATM   19  S   UNL     1      43.084 -14.614   6.137  1.00  0.00    -0.055 SA
BRANCH  17  20
HETATM   20  N   UNL     1      43.094 -18.460   2.455  1.00  0.00    -0.071 N 
HETATM   21  H   UNL     1      42.770 -18.520   1.479  1.00  0.00     0.277 HD
HETATM   22  H   UNL     1      42.298 -18.771   3.032  1.00  0.00     0.277 HD
BRANCH  20  23
HETATM   23  C   UNL     1      44.215 -19.438   2.662  1.00  0.00     0.232 C 
BRANCH  23  24
HETATM   24  C   UNL     1      43.649 -20.725   3.247  1.00  0.00     0.023 C 
HETATM   25  C   UNL     1      43.957 -20.830   4.733  1.00  0.00     0.007 C 
ENDBRANCH  23  24
ENDBRANCH  20  23
ENDBRANCH  17  20
ENDBRANCH   8  11
ENDBRANCH   1   7
BRANCH   5  26
HETATM   26  C   UNL     1      41.466  -8.314   9.586  1.00  0.00     0.114 C 
HETATM   27  C   UNL     1      40.345  -9.319   9.319  1.00  0.00     0.037 C 
BRANCH  26  28
HETATM   28  N   UNL     1      41.578  -8.046  11.009  1.00  0.00    -0.349 N 
HETATM   29  C   UNL     1      41.046  -6.912  11.582  1.00  0.00     0.252 C 
HETATM   30  O   UNL     1      40.380  -6.080  10.974  1.00  0.00    -0.268 OA
HETATM   31  H   UNL     1      42.136  -8.679  11.563  1.00  0.00     0.163 HD
BRANCH  29  32
HETATM   32  C   UNL     1      41.291  -6.749  13.038  1.00  0.00     0.033 A 
HETATM   33  C   UNL     1      42.544  -7.101  13.548  1.00  0.00     0.020 A 
HETATM   34  C   UNL     1      42.823  -6.946  14.912  1.00  0.00     0.039 A 
HETATM   35  C   UNL     1      41.845  -6.450  15.782  1.00  0.00     0.089 A 
HETATM   36  C   UNL     1      40.581  -6.123  15.260  1.00  0.00     0.068 A 
HETATM   37 CL   UNL     1      39.316  -5.524  16.278  1.00  0.00    -0.081 Cl
HETATM   38  C   UNL     1      40.301  -6.272  13.899  1.00  0.00     0.043 A 
BRANCH  35  39
HETATM   39  O   UNL     1      42.026  -6.264  17.126  1.00  0.00    -0.354 OA
HETATM   40  C   UNL     1      41.811  -7.374  17.987  1.00  0.00     0.210 C 
ENDBRANCH  35  39
ENDBRANCH  29  32
ENDBRANCH  26  28
ENDBRANCH   5  26
TORSDOF 9
ENDMDL
MODEL 5
REMARK VINA RESULT:      -8.4      2.747      4.715
REMARK  9 active torsions:
REMARK  status: ('A' for Active; 'I' for Inactive)
REMARK    1  A    between atoms: C_2  and  C_3 
REMARK    2  A    between atoms: C_3  and  N_4 
REMARK    3  A    between atoms: N_4  and  C_7 
REMARK    4  A    between atoms: C_12  and  N_13 
REMARK       I    between atoms: N_13  and  C_14 
REMARK    5  A    between atoms: C_14  and  C_16 
REMARK    6  A    between atoms: C_20  and  C_22 
REMARK    7  A    between atoms: C_22  and  N_24 
REMARK       I    between atoms: N_24  and  C_25 
REMARK    8  A    between atoms: C_25  and  C_27 
REMARK    9  A    between atoms: C_30  and  O_31 
ROOT
HETATM    1  C   UNL     1      39.871 -11.154   4.292  1.00  0.00     0.033 A 
HETATM    2  C   UNL     1      38.841 -10.272   3.942  1.00  0.00     0.017 A 
HETATM    3  C   UNL     1      38.243 -10.346   2.685  1.00  0.00     0.002 A 
HETATM    4  C   UNL     1      38.661 -11.311   1.769  1.00  0.00     0.009 A 
HETATM    5  C   UNL     1      39.667 -12.230   2.105  1.00  0.00    -0.035 A 
HETATM    6  C   UNL     1      40.274 -12.133   3.374  1.00  0.00     0.026 A 
ENDROOT
BRANCH   1   7
HETATM    7  C   UNL     1      40.467 -11.024   5.655  1.00  0.00     0.257 C 
HETATM    8  N   UNL     1      41.054  -9.810   5.950  1.00  0.00    -0.301 N 
HETATM    9  H   UNL     1      41.030  -9.038   5.302  1.00  0.00     0.171 HD
HETATM   10  O   UNL     1      40.376 -11.986   6.410  1.00  0.00    -0.267 OA
BRANCH   8  11
HETATM   11  C   UNL     1      41.632  -9.582   7.170  1.00  0.00     0.174 A 
HETATM   12  N   UNL     1      42.872  -9.772   7.545  1.00  0.00    -0.228 NA
HETATM   13  C   UNL     1      43.020  -9.422   8.858  1.00  0.00     0.050 A 
HETATM   14  C   UNL     1      44.339  -9.544   9.534  1.00  0.00     0.062 C 
HETATM   15  C   UNL     1      41.886  -8.929   9.467  1.00  0.00     0.013 A 
HETATM   16  C   UNL     1      44.187  -9.430  11.060  1.00  0.00     0.039 C 
HETATM   17  C   UNL     1      43.244  -8.269  11.445  1.00  0.00     0.191 C 
HETATM   18  C   UNL     1      41.807  -8.478  10.883  1.00  0.00     0.081 C 
HETATM   19  S   UNL     1      40.579  -8.952   8.370  1.00  0.00    -0.055 SA
BRANCH  17  20
HETATM   20  N   UNL     1      43.168  -8.145  12.952  1.00  0.00    -0.071 N 
HETATM   21  H   UNL     1      42.864  -7.195  13.208  1.00  0.00     0.277 HD
HETATM   22  H   UNL     1      44.118  -8.247  13.339  1.00  0.00     0.277 HD
BRANCH  20  23
HETATM   23  C   UNL     1      42.287  -9.146  13.643  1.00  0.00     0.232 C 
BRANCH  23  24
HETATM   24  C   UNL     1      41.663  -8.496  14.869  1.00  0.00     0.023 C 
HETATM   25  C   UNL     1      40.649  -7.435  14.469  1.00  0.00     0.007 C 
ENDBRANCH  23  24
ENDBRANCH  20  23
ENDBRANCH  17  20
ENDBRANCH   8  11
ENDBRANCH   1   7
BRANCH   5  26
HETATM   26  C   UNL     1      40.153 -13.287   1.128  1.00  0.00     0.114 C 
HETATM   27  C   UNL     1      40.846 -12.707  -0.106  1.00  0.00     0.037 C 
BRANCH  26  28
HETATM   28  N   UNL     1      41.033 -14.217   1.813  1.00  0.00    -0.349 N 
HETATM   29  C   UNL     1      40.733 -15.556   1.931  1.00  0.00     0.252 C 
HETATM   30  O   UNL     1      39.756 -16.090   1.418  1.00  0.00    -0.268 OA
HETATM   31  H   UNL     1      41.844 -13.836   2.280  1.00  0.00     0.163 HD
BRANCH  29  32
HETATM   32  C   UNL     1      41.702 -16.369   2.709  1.00  0.00     0.033 A 
HETATM   33  C   UNL     1      42.568 -17.221   2.015  1.00  0.00     0.020 A 
HETATM   34  C   UNL     1      43.509 -17.992   2.709  1.00  0.00     0.039 A 
HETATM   35  C   UNL     1      43.585 -17.929   4.104  1.00  0.00     0.089 A 
HETATM   36  C   UNL     1      42.692 -17.087   4.791  1.00  0.00     0.068 A 
HETATM   37 CL   UNL     1      42.713 -16.972   6.518  1.00  0.00    -0.081 Cl
HETATM   38  C   UNL     1      41.754 -16.313   4.102  1.00  0.00     0.043 A 
BRANCH  35  39
HETATM   39  O   UNL     1      44.471 -18.643   4.865  1.00  0.00    -0.354 OA
HETATM   40  C   UNL     1      44.294 -20.050   4.949  1.00  0.00     0.210 C 
ENDBRANCH  35  39
ENDBRANCH  29  32
ENDBRANCH  26  28
ENDBRANCH   5  26
TORSDOF 9
ENDMDL
MODEL 6
REMARK VINA RESULT:      -8.1      4.796     12.934
REMARK  9 active torsions:
REMARK  status: ('A' for Active; 'I' for Inactive)
REMARK    1  A    between atoms: C_2  and  C_3 
REMARK    2  A    between atoms: C_3  and  N_4 
REMARK    3  A    between atoms: N_4  and  C_7 
REMARK    4  A    between atoms: C_12  and  N_13 
REMARK       I    between atoms: N_13  and  C_14 
REMARK    5  A    between atoms: C_14  and  C_16 
REMARK    6  A    between atoms: C_20  and  C_22 
REMARK    7  A    between atoms: C_22  and  N_24 
REMARK       I    between atoms: N_24  and  C_25 
REMARK    8  A    between atoms: C_25  and  C_27 
REMARK    9  A    between atoms: C_30  and  O_31 
ROOT
HETATM    1  C   UNL     1      44.518 -10.788   7.293  1.00  0.00     0.033 A 
HETATM    2  C   UNL     1      45.854 -10.383   7.411  1.00  0.00     0.017 A 
HETATM    3  C   UNL     1      46.310  -9.782   8.581  1.00  0.00     0.002 A 
HETATM    4  C   UNL     1      45.439  -9.590   9.653  1.00  0.00     0.009 A 
HETATM    5  C   UNL     1      44.104 -10.016   9.576  1.00  0.00    -0.035 A 
HETATM    6  C   UNL     1      43.652 -10.609   8.380  1.00  0.00     0.026 A 
ENDROOT
BRANCH   1   7
HETATM    7  C   UNL     1      44.094 -11.430   6.013  1.00  0.00     0.257 C 
HETATM    8  N   UNL     1      42.940 -12.185   6.062  1.00  0.00    -0.301 N 
HETATM    9  H   UNL     1      42.385 -12.253   6.902  1.00  0.00     0.171 HD
HETATM   10  O   UNL     1      44.782 -11.224   5.019  1.00  0.00    -0.267 OA
BRANCH   8  11
HETATM   11  C   UNL     1      42.461 -12.818   4.947  1.00  0.00     0.174 A 
HETATM   12  N   UNL     1      42.818 -13.969   4.433  1.00  0.00    -0.228 NA
HETATM   13  C   UNL     1      42.087 -14.221   3.305  1.00  0.00     0.050 A 
HETATM   14  C   UNL     1      42.299 -15.469   2.525  1.00  0.00     0.062 C 
HETATM   15  C   UNL     1      41.145 -13.266   2.989  1.00  0.00     0.013 A 
HETATM   16  C   UNL     1      41.633 -15.372   1.143  1.00  0.00     0.039 C 
HETATM   17  C   UNL     1      40.212 -14.775   1.244  1.00  0.00     0.191 C 
HETATM   18  C   UNL     1      40.230 -13.327   1.817  1.00  0.00     0.081 C 
HETATM   19  S   UNL     1      41.212 -11.985   4.115  1.00  0.00    -0.055 SA
BRANCH  17  20
HETATM   20  N   UNL     1      39.563 -14.754  -0.124  1.00  0.00    -0.071 N 
HETATM   21  H   UNL     1      38.538 -14.744  -0.021  1.00  0.00     0.277 HD
HETATM   22  H   UNL     1      39.785 -15.637  -0.607  1.00  0.00     0.277 HD
BRANCH  20  23
HETATM   23  C   UNL     1      39.979 -13.626  -1.023  1.00  0.00     0.232 C 
BRANCH  23  24
HETATM   24  C   UNL     1      40.008 -14.122  -2.462  1.00  0.00     0.023 C 
HETATM   25  C   UNL     1      38.797 -14.990  -2.764  1.00  0.00     0.007 C 
ENDBRANCH  23  24
ENDBRANCH  20  23
ENDBRANCH  17  20
ENDBRANCH   8  11
ENDBRANCH   1   7
BRANCH   5  26
HETATM   26  C   UNL     1      43.125  -9.813  10.721  1.00  0.00     0.114 C 
HETATM   27  C   UNL     1      43.411 -10.700  11.934  1.00  0.00     0.037 C 
BRANCH  26  28
HETATM   28  N   UNL     1      43.110  -8.414  11.108  1.00  0.00    -0.349 N 
HETATM   29  C   UNL     1      42.057  -7.581  10.800  1.00  0.00     0.252 C 
HETATM   30  O   UNL     1      41.026  -7.951  10.249  1.00  0.00    -0.268 OA
HETATM   31  H   UNL     1      43.942  -8.039  11.543  1.00  0.00     0.163 HD
BRANCH  29  32
HETATM   32  C   UNL     1      42.213  -6.163  11.212  1.00  0.00     0.033 A 
HETATM   33  C   UNL     1      42.775  -5.261  10.304  1.00  0.00     0.020 A 
HETATM   34  C   UNL     1      42.924  -3.910  10.646  1.00  0.00     0.039 A 
HETATM   35  C   UNL     1      42.524  -3.452  11.906  1.00  0.00     0.089 A 
HETATM   36  C   UNL     1      41.984  -4.374  12.819  1.00  0.00     0.068 A 
HETATM   37 CL   UNL     1      41.486  -3.886  14.403  1.00  0.00    -0.081 Cl
HETATM   38  C   UNL     1      41.829  -5.722  12.480  1.00  0.00     0.043 A 
BRANCH  35  39
HETATM   39  O   UNL     1      42.629  -2.154  12.327  1.00  0.00    -0.354 OA
HETATM   40  C   UNL     1      41.805  -1.181  11.700  1.00  0.00     0.210 C 
ENDBRANCH  35  39
ENDBRANCH  29  32
ENDBRANCH  26  28
ENDBRANCH   5  26
TORSDOF 9
ENDMDL
MODEL 7
REMARK VINA RESULT:      -8.0      4.547     13.204
REMARK  9 active torsions:
REMARK  status: ('A' for Active; 'I' for Inactive)
REMARK    1  A    between atoms: C_2  and  C_3 
REMARK    2  A    between atoms: C_3  and  N_4 
REMARK    3  A    between atoms: N_4  and  C_7 
REMARK    4  A    between atoms: C_12  and  N_13 
REMARK       I    between atoms: N_13  and  C_14 
REMARK    5  A    between atoms: C_14  and  C_16 
REMARK    6  A    between atoms: C_20  and  C_22 
REMARK    7  A    between atoms: C_22  and  N_24 
REMARK       I    between atoms: N_24  and  C_25 
REMARK    8  A    between atoms: C_25  and  C_27 
REMARK    9  A    between atoms: C_30  and  O_31 
ROOT
HETATM    1  C   UNL     1      43.855 -10.073   8.533  1.00  0.00     0.033 A 
HETATM    2  C   UNL     1      44.488  -8.875   8.177  1.00  0.00     0.017 A 
HETATM    3  C   UNL     1      44.345  -7.737   8.968  1.00  0.00     0.002 A 
HETATM    4  C   UNL     1      43.577  -7.787  10.131  1.00  0.00     0.009 A 
HETATM    5  C   UNL     1      42.960  -8.982  10.530  1.00  0.00    -0.035 A 
HETATM    6  C   UNL     1      43.100 -10.122   9.713  1.00  0.00     0.026 A 
ENDROOT
BRANCH   1   7
HETATM    7  C   UNL     1      44.051 -11.257   7.644  1.00  0.00     0.257 C 
HETATM    8  N   UNL     1      42.904 -11.852   7.160  1.00  0.00    -0.301 N 
HETATM    9  H   UNL     1      41.989 -11.475   7.351  1.00  0.00     0.171 HD
HETATM   10  O   UNL     1      45.204 -11.597   7.396  1.00  0.00    -0.267 OA
BRANCH   8  11
HETATM   11  C   UNL     1      42.968 -12.945   6.338  1.00  0.00     0.174 A 
HETATM   12  N   UNL     1      42.904 -12.999   5.030  1.00  0.00    -0.228 NA
HETATM   13  C   UNL     1      42.999 -14.298   4.614  1.00  0.00     0.050 A 
HETATM   14  C   UNL     1      42.952 -14.637   3.167  1.00  0.00     0.062 C 
HETATM   15  C   UNL     1      43.173 -15.226   5.618  1.00  0.00     0.013 A 
HETATM   16  C   UNL     1      42.728 -16.145   2.964  1.00  0.00     0.039 C 
HETATM   17  C   UNL     1      43.622 -16.978   3.908  1.00  0.00     0.191 C 
HETATM   18  C   UNL     1      43.308 -16.693   5.406  1.00  0.00     0.081 C 
HETATM   19  S   UNL     1      43.167 -14.451   7.137  1.00  0.00    -0.055 SA
BRANCH  17  20
HETATM   20  N   UNL     1      43.423 -18.454   3.637  1.00  0.00    -0.071 N 
HETATM   21  H   UNL     1      42.687 -18.825   4.255  1.00  0.00     0.277 HD
HETATM   22  H   UNL     1      44.284 -18.956   3.899  1.00  0.00     0.277 HD
BRANCH  20  23
HETATM   23  C   UNL     1      43.101 -18.816   2.215  1.00  0.00     0.232 C 
BRANCH  23  24
HETATM   24  C   UNL     1      43.417 -20.288   1.994  1.00  0.00     0.023 C 
HETATM   25  C   UNL     1      43.878 -20.948   3.284  1.00  0.00     0.007 C 
ENDBRANCH  23  24
ENDBRANCH  20  23
ENDBRANCH  17  20
ENDBRANCH   8  11
ENDBRANCH   1   7
BRANCH   5  26
HETATM   26  C   UNL     1      42.108  -9.070  11.786  1.00  0.00     0.114 C 
HETATM   27  C   UNL     1      42.564 -10.158  12.760  1.00  0.00     0.037 C 
BRANCH  26  28
HETATM   28  N   UNL     1      42.080  -7.777  12.447  1.00  0.00    -0.349 N 
HETATM   29  C   UNL     1      40.947  -7.297  13.067  1.00  0.00     0.252 C 
HETATM   30  O   UNL     1      39.904  -7.932  13.181  1.00  0.00    -0.268 OA
HETATM   31  H   UNL     1      42.901  -7.193  12.369  1.00  0.00     0.163 HD
BRANCH  29  32
HETATM   32  C   UNL     1      41.057  -5.936  13.649  1.00  0.00     0.033 A 
HETATM   33  C   UNL     1      41.742  -4.953  12.927  1.00  0.00     0.020 A 
HETATM   34  C   UNL     1      41.854  -3.652  13.432  1.00  0.00     0.039 A 
HETATM   35  C   UNL     1      41.294  -3.323  14.671  1.00  0.00     0.089 A 
HETATM   36  C   UNL     1      40.629  -4.326  15.399  1.00  0.00     0.068 A 
HETATM   37 CL   UNL     1      39.929  -4.000  16.947  1.00  0.00    -0.081 Cl
HETATM   38  C   UNL     1      40.512  -5.626  14.896  1.00  0.00     0.043 A 
BRANCH  35  39
HETATM   39  O   UNL     1      41.351  -2.080  15.243  1.00  0.00    -0.354 OA
HETATM   40  C   UNL     1      42.620  -1.446  15.330  1.00  0.00     0.210 C 
ENDBRANCH  35  39
ENDBRANCH  29  32
ENDBRANCH  26  28
ENDBRANCH   5  26
TORSDOF 9
ENDMDL
MODEL 8
REMARK VINA RESULT:      -7.8      4.399     12.207
REMARK  9 active torsions:
REMARK  status: ('A' for Active; 'I' for Inactive)
REMARK    1  A    between atoms: C_2  and  C_3 
REMARK    2  A    between atoms: C_3  and  N_4 
REMARK    3  A    between atoms: N_4  and  C_7 
REMARK    4  A    between atoms: C_12  and  N_13 
REMARK       I    between atoms: N_13  and  C_14 
REMARK    5  A    between atoms: C_14  and  C_16 
REMARK    6  A    between atoms: C_20  and  C_22 
REMARK    7  A    between atoms: C_22  and  N_24 
REMARK       I    between atoms: N_24  and  C_25 
REMARK    8  A    between atoms: C_25  and  C_27 
REMARK    9  A    between atoms: C_30  and  O_31 
ROOT
HETATM    1  C   UNL     1      40.270  -9.762   5.958  1.00  0.00     0.033 A 
HETATM    2  C   UNL     1      38.952  -9.405   5.647  1.00  0.00     0.017 A 
HETATM    3  C   UNL     1      38.546  -8.074   5.709  1.00  0.00     0.002 A 
HETATM    4  C   UNL     1      39.458  -7.082   6.071  1.00  0.00     0.009 A 
HETATM    5  C   UNL     1      40.793  -7.406   6.355  1.00  0.00    -0.035 A 
HETATM    6  C   UNL     1      41.186  -8.759   6.304  1.00  0.00     0.026 A 
ENDROOT
BRANCH   1   7
HETATM    7  C   UNL     1      40.641 -11.206   5.870  1.00  0.00     0.257 C 
HETATM    8  N   UNL     1      41.941 -11.480   5.495  1.00  0.00    -0.301 N 
HETATM    9  H   UNL     1      42.616 -10.745   5.345  1.00  0.00     0.171 HD
HETATM   10  O   UNL     1      39.780 -12.033   6.151  1.00  0.00    -0.267 OA
BRANCH   8  11
HETATM   11  C   UNL     1      42.388 -12.768   5.381  1.00  0.00     0.174 A 
HETATM   12  N   UNL     1      42.934 -13.537   6.290  1.00  0.00    -0.228 NA
HETATM   13  C   UNL     1      43.243 -14.753   5.747  1.00  0.00     0.050 A 
HETATM   14  C   UNL     1      43.878 -15.815   6.571  1.00  0.00     0.062 C 
HETATM   15  C   UNL     1      42.890 -14.913   4.424  1.00  0.00     0.013 A 
HETATM   16  C   UNL     1      44.437 -16.938   5.683  1.00  0.00     0.039 C 
HETATM   17  C   UNL     1      43.432 -17.337   4.581  1.00  0.00     0.191 C 
HETATM   18  C   UNL     1      43.117 -16.148   3.626  1.00  0.00     0.081 C 
HETATM   19  S   UNL     1      42.194 -13.474   3.827  1.00  0.00    -0.055 SA
BRANCH  17  20
HETATM   20  N   UNL     1      43.987 -18.486   3.767  1.00  0.00    -0.071 N 
HETATM   21  H   UNL     1      43.917 -19.360   4.309  1.00  0.00     0.277 HD
HETATM   22  H   UNL     1      44.996 -18.330   3.623  1.00  0.00     0.277 HD
BRANCH  20  23
HETATM   23  C   UNL     1      43.360 -18.691   2.418  1.00  0.00     0.232 C 
BRANCH  23  24
HETATM   24  C   UNL     1      43.246 -20.184   2.145  1.00  0.00     0.023 C 
HETATM   25  C   UNL     1      43.818 -20.995   3.298  1.00  0.00     0.007 C 
ENDBRANCH  23  24
ENDBRANCH  20  23
ENDBRANCH  17  20
ENDBRANCH   8  11
ENDBRANCH   1   7
BRANCH   5  26
HETATM   26  C   UNL     1      41.810  -6.353   6.763  1.00  0.00     0.114 C 
HETATM   27  C   UNL     1      41.619  -5.012   6.052  1.00  0.00     0.037 C 
BRANCH  26  28
HETATM   28  N   UNL     1      41.775  -6.173   8.203  1.00  0.00    -0.349 N 
HETATM   29  C   UNL     1      42.826  -6.544   9.012  1.00  0.00     0.252 C 
HETATM   30  O   UNL     1      43.894  -6.982   8.596  1.00  0.00    -0.268 OA
HETATM   31  H   UNL     1      40.913  -5.840   8.613  1.00  0.00     0.163 HD
BRANCH  29  32
HETATM   32  C   UNL     1      42.619  -6.350  10.470  1.00  0.00     0.033 A 
HETATM   33  C   UNL     1      42.366  -5.059  10.943  1.00  0.00     0.020 A 
HETATM   34  C   UNL     1      42.148  -4.835  12.309  1.00  0.00     0.039 A 
HETATM   35  C   UNL     1      42.194  -5.899  13.216  1.00  0.00     0.089 A 
HETATM   36  C   UNL     1      42.474  -7.188  12.731  1.00  0.00     0.068 A 
HETATM   37 CL   UNL     1      42.568  -8.549  13.795  1.00  0.00    -0.081 Cl
HETATM   38  C   UNL     1      42.688  -7.417  11.368  1.00  0.00     0.043 A 
BRANCH  35  39
HETATM   39  O   UNL     1      41.992  -5.776  14.565  1.00  0.00    -0.354 OA
HETATM   40  C   UNL     1      40.849  -5.056  15.004  1.00  0.00     0.210 C 
ENDBRANCH  35  39
ENDBRANCH  29  32
ENDBRANCH  26  28
ENDBRANCH   5  26
TORSDOF 9
ENDMDL
MODEL 9
REMARK VINA RESULT:      -7.8      2.819      4.009
REMARK  9 active torsions:
REMARK  status: ('A' for Active; 'I' for Inactive)
REMARK    1  A    between atoms: C_2  and  C_3 
REMARK    2  A    between atoms: C_3  and  N_4 
REMARK    3  A    between atoms: N_4  and  C_7 
REMARK    4  A    between atoms: C_12  and  N_13 
REMARK       I    between atoms: N_13  and  C_14 
REMARK    5  A    between atoms: C_14  and  C_16 
REMARK    6  A    between atoms: C_20  and  C_22 
REMARK    7  A    between atoms: C_22  and  N_24 
REMARK       I    between atoms: N_24  and  C_25 
REMARK    8  A    between atoms: C_25  and  C_27 
REMARK    9  A    between atoms: C_30  and  O_31 
ROOT
HETATM    1  C   UNL     1      44.470 -10.922   8.636  1.00  0.00     0.033 A 
HETATM    2  C   UNL     1      45.581 -10.278   8.077  1.00  0.00     0.017 A 
HETATM    3  C   UNL     1      46.070 -10.665   6.831  1.00  0.00     0.002 A 
HETATM    4  C   UNL     1      45.446 -11.692   6.124  1.00  0.00     0.009 A 
HETATM    5  C   UNL     1      44.310 -12.332   6.644  1.00  0.00    -0.035 A 
HETATM    6  C   UNL     1      43.836 -11.941   7.913  1.00  0.00     0.026 A 
ENDROOT
BRANCH   1   7
HETATM    7  C   UNL     1      43.995 -10.457   9.973  1.00  0.00     0.257 C 
HETATM    8  N   UNL     1      43.386  -9.219  10.008  1.00  0.00    -0.301 N 
HETATM    9  H   UNL     1      43.222  -8.685   9.168  1.00  0.00     0.171 HD
HETATM   10  O   UNL     1      44.160 -11.209  10.928  1.00  0.00    -0.267 OA
BRANCH   8  11
HETATM   11  C   UNL     1      42.914  -8.695  11.181  1.00  0.00     0.174 A 
HETATM   12  N   UNL     1      43.577  -8.127  12.158  1.00  0.00    -0.228 NA
HETATM   13  C   UNL     1      42.713  -7.754  13.150  1.00  0.00     0.050 A 
HETATM   14  C   UNL     1      43.212  -7.085  14.380  1.00  0.00     0.062 C 
HETATM   15  C   UNL     1      41.383  -8.012  12.900  1.00  0.00     0.013 A 
HETATM   16  C   UNL     1      42.135  -7.078  15.477  1.00  0.00     0.039 C 
HETATM   17  C   UNL     1      40.755  -6.682  14.907  1.00  0.00     0.191 C 
HETATM   18  C   UNL     1      40.264  -7.689  13.826  1.00  0.00     0.081 C 
HETATM   19  S   UNL     1      41.213  -8.793  11.392  1.00  0.00    -0.055 SA
BRANCH  17  20
HETATM   20  N   UNL     1      39.735  -6.623  16.024  1.00  0.00    -0.071 N 
HETATM   21  H   UNL     1      40.194  -6.819  16.925  1.00  0.00     0.277 HD
HETATM   22  H   UNL     1      39.053  -7.384  15.887  1.00  0.00     0.277 HD
BRANCH  20  23
HETATM   23  C   UNL     1      38.965  -5.338  16.133  1.00  0.00     0.232 C 
BRANCH  23  24
HETATM   24  C   UNL     1      39.623  -4.454  17.183  1.00  0.00     0.023 C 
HETATM   25  C   UNL     1      40.304  -5.291  18.254  1.00  0.00     0.007 C 
ENDBRANCH  23  24
ENDBRANCH  20  23
ENDBRANCH  17  20
ENDBRANCH   8  11
ENDBRANCH   1   7
BRANCH   5  26
HETATM   26  C   UNL     1      43.610 -13.461   5.905  1.00  0.00     0.114 C 
HETATM   27  C   UNL     1      42.613 -14.232   6.771  1.00  0.00     0.037 C 
BRANCH  26  28
HETATM   28  N   UNL     1      42.954 -12.936   4.721  1.00  0.00    -0.349 N 
HETATM   29  C   UNL     1      42.825 -13.677   3.568  1.00  0.00     0.252 C 
HETATM   30  O   UNL     1      43.177 -14.847   3.458  1.00  0.00    -0.268 OA
HETATM   31  H   UNL     1      42.663 -11.969   4.737  1.00  0.00     0.163 HD
BRANCH  29  32
HETATM   32  C   UNL     1      42.181 -12.984   2.423  1.00  0.00     0.033 A 
HETATM   33  C   UNL     1      42.192 -11.586   2.397  1.00  0.00     0.020 A 
HETATM   34  C   UNL     1      41.611 -10.893   1.327  1.00  0.00     0.039 A 
HETATM   35  C   UNL     1      41.002 -11.592   0.279  1.00  0.00     0.089 A 
HETATM   36  C   UNL     1      40.976 -12.997   0.330  1.00  0.00     0.068 A 
HETATM   37 CL   UNL     1      40.222 -13.928  -0.919  1.00  0.00    -0.081 Cl
HETATM   38  C   UNL     1      41.558 -13.692   1.394  1.00  0.00     0.043 A 
BRANCH  35  39
HETATM   39  O   UNL     1      40.411 -11.002  -0.806  1.00  0.00    -0.354 OA
HETATM   40  C   UNL     1      39.076 -10.536  -0.666  1.00  0.00     0.210 C 
ENDBRANCH  35  39
ENDBRANCH  29  32
ENDBRANCH  26  28
ENDBRANCH   5  26
TORSDOF 9
ENDMDL
MODEL 10
REMARK VINA RESULT:      -7.7      4.791      6.778
REMARK  9 active torsions:
REMARK  status: ('A' for Active; 'I' for Inactive)
REMARK    1  A    between atoms: C_2  and  C_3 
REMARK    2  A    between atoms: C_3  and  N_4 
REMARK    3  A    between atoms: N_4  and  C_7 
REMARK    4  A    between atoms: C_12  and  N_13 
REMARK       I    between atoms: N_13  and  C_14 
REMARK    5  A    between atoms: C_14  and  C_16 
REMARK    6  A    between atoms: C_20  and  C_22 
REMARK    7  A    between atoms: C_22  and  N_24 
REMARK       I    between atoms: N_24  and  C_25 
REMARK    8  A    between atoms: C_25  and  C_27 
REMARK    9  A    between atoms: C_30  and  O_31 
ROOT
HETATM    1  C   UNL     1      43.096 -13.876   5.154  1.00  0.00     0.033 A 
HETATM    2  C   UNL     1      43.035 -14.811   6.195  1.00  0.00     0.017 A 
HETATM    3  C   UNL     1      42.999 -16.176   5.919  1.00  0.00     0.002 A 
HETATM    4  C   UNL     1      43.036 -16.622   4.598  1.00  0.00     0.009 A 
HETATM    5  C   UNL     1      43.131 -15.709   3.536  1.00  0.00    -0.035 A 
HETATM    6  C   UNL     1      43.151 -14.331   3.830  1.00  0.00     0.026 A 
ENDROOT
BRANCH   1   7
HETATM    7  C   UNL     1      43.135 -12.428   5.519  1.00  0.00     0.257 C 
HETATM    8  N   UNL     1      42.736 -12.111   6.802  1.00  0.00    -0.301 N 
HETATM    9  H   UNL     1      42.487 -12.824   7.471  1.00  0.00     0.171 HD
HETATM   10  O   UNL     1      43.532 -11.638   4.669  1.00  0.00    -0.267 OA
BRANCH   8  11
HETATM   11  C   UNL     1      42.731 -10.815   7.241  1.00  0.00     0.174 A 
HETATM   12  N   UNL     1      43.687 -10.138   7.827  1.00  0.00    -0.228 NA
HETATM   13  C   UNL     1      43.255  -8.872   8.109  1.00  0.00     0.050 A 
HETATM   14  C   UNL     1      44.152  -7.895   8.780  1.00  0.00     0.062 C 
HETATM   15  C   UNL     1      41.972  -8.583   7.697  1.00  0.00     0.013 A 
HETATM   16  C   UNL     1      43.357  -6.685   9.297  1.00  0.00     0.039 C 
HETATM   17  C   UNL     1      42.346  -6.184   8.242  1.00  0.00     0.191 C 
HETATM   18  C   UNL     1      41.292  -7.273   7.886  1.00  0.00     0.081 C 
HETATM   19  S   UNL     1      41.267  -9.960   6.977  1.00  0.00    -0.055 SA
BRANCH  17  20
HETATM   20  N   UNL     1      41.628  -4.956   8.759  1.00  0.00    -0.071 N 
HETATM   21  H   UNL     1      40.616  -5.046   8.586  1.00  0.00     0.277 HD
HETATM   22  H   UNL     1      41.933  -4.140   8.208  1.00  0.00     0.277 HD
BRANCH  20  23
HETATM   23  C   UNL     1      41.851  -4.635  10.209  1.00  0.00     0.232 C 
BRANCH  23  24
HETATM   24  C   UNL     1      41.995  -3.127  10.368  1.00  0.00     0.023 C 
HETATM   25  C   UNL     1      43.405  -2.756  10.802  1.00  0.00     0.007 C 
ENDBRANCH  23  24
ENDBRANCH  20  23
ENDBRANCH  17  20
ENDBRANCH   8  11
ENDBRANCH   1   7
BRANCH   5  26
HETATM   26  C   UNL     1      43.163 -16.160   2.085  1.00  0.00     0.114 C 
HETATM   27  C   UNL     1      42.798 -17.633   1.894  1.00  0.00     0.037 C 
BRANCH  26  28
HETATM   28  N   UNL     1      42.288 -15.314   1.293  1.00  0.00    -0.349 N 
HETATM   29  C   UNL     1      40.919 -15.331   1.447  1.00  0.00     0.252 C 
HETATM   30  O   UNL     1      40.330 -15.990   2.297  1.00  0.00    -0.268 OA
HETATM   31  H   UNL     1      42.708 -14.764   0.556  1.00  0.00     0.163 HD
BRANCH  29  32
HETATM   32  C   UNL     1      40.154 -14.452   0.526  1.00  0.00     0.033 A 
HETATM   33  C   UNL     1      39.850 -13.152   0.942  1.00  0.00     0.020 A 
HETATM   34  C   UNL     1      39.146 -12.285   0.097  1.00  0.00     0.039 A 
HETATM   35  C   UNL     1      38.727 -12.714  -1.167  1.00  0.00     0.089 A 
HETATM   36  C   UNL     1      39.018 -14.031  -1.563  1.00  0.00     0.068 A 
HETATM   37 CL   UNL     1      38.515 -14.640  -3.103  1.00  0.00    -0.081 Cl
HETATM   38  C   UNL     1      39.724 -14.899  -0.725  1.00  0.00     0.043 A 
BRANCH  35  39
HETATM   39  O   UNL     1      38.037 -11.938  -2.060  1.00  0.00    -0.354 OA
HETATM   40  C   UNL     1      38.784 -11.104  -2.935  1.00  0.00     0.210 C 
ENDBRANCH  35  39
ENDBRANCH  29  32
ENDBRANCH  26  28
ENDBRANCH   5  26
TORSDOF 9
ENDMDL
